MODEL 1
REMARK VINA RESULT:      -8.2      0.000      0.000
REMARK  5 active torsions:
REMARK  status: ('A' for Active; 'I' for Inactive)
REMARK    1  A    between atoms: C_2  and  N_3 
REMARK       I    between atoms: N_3  and  C_4 
REMARK    2  A    between atoms: C_4  and  C_5 
REMARK    3  A    between atoms: C_8  and  N_9 
REMARK       I    between atoms: N_9  and  C_10 
REMARK       I    between atoms: C_10  and  N_11 
REMARK    4  A    between atoms: N_11  and  C_12 
REMARK    5  A    between atoms: C_17  and  C_18 
ROOT
HETATM    1  N   UNL     1     -42.532  56.682 -56.073  1.00  0.00    -0.309 N 
HETATM    2  C   UNL     1     -42.631  55.844 -54.970  1.00  0.00     0.325 C 
HETATM    3  N   UNL     1     -41.482  55.945 -54.197  1.00  0.00    -0.308 N 
HETATM    4  O   UNL     1     -43.570  55.095 -54.746  1.00  0.00    -0.247 OA
HETATM    5  H   UNL     1     -41.902  57.465 -55.980  1.00  0.00     0.170 HD
HETATM    6  H   UNL     1     -40.696  56.359 -54.671  1.00  0.00     0.170 HD
ENDROOT
BRANCH   1   7
HETATM    7  C   UNL     1     -43.303  56.630 -57.252  1.00  0.00     0.036 A 
HETATM    8  C   UNL     1     -44.302  57.555 -57.564  1.00  0.00     0.030 A 
HETATM    9  C   UNL     1     -45.094  57.393 -58.706  1.00  0.00     0.019 A 
HETATM   10  C   UNL     1     -44.905  56.290 -59.544  1.00  0.00     0.032 A 
HETATM   11  C   UNL     1     -43.879  55.383 -59.259  1.00  0.00     0.019 A 
HETATM   12  C   UNL     1     -43.086  55.551 -58.118  1.00  0.00     0.030 A 
BRANCH  10  13
HETATM   13  C   UNL     1     -45.771  56.037 -60.730  1.00  0.00     0.251 C 
HETATM   14  N   UNL     1     -46.901  56.825 -60.838  1.00  0.00    -0.357 N 
HETATM   15  H   UNL     1     -47.169  57.411 -60.060  1.00  0.00     0.162 HD
HETATM   16  O   UNL     1     -45.491  55.138 -61.515  1.00  0.00    -0.268 OA
BRANCH  14  17
HETATM   17  C   UNL     1     -47.893  56.589 -61.866  1.00  0.00     0.118 C 
HETATM   18  C   UNL     1     -48.511  57.890 -62.347  1.00  0.00     0.026 C 
ENDBRANCH  14  17
ENDBRANCH  10  13
ENDBRANCH   1   7
BRANCH   3  19
HETATM   19  C   UNL     1     -41.193  55.240 -53.003  1.00  0.00     0.043 A 
HETATM   20  C   UNL     1     -41.297  55.921 -51.770  1.00  0.00    -0.035 A 
HETATM   21  C   UNL     1     -41.709  57.366 -51.676  1.00  0.00     0.050 C 
HETATM   22  C   UNL     1     -40.977  55.242 -50.584  1.00  0.00     0.010 A 
HETATM   23  C   UNL     1     -40.575  53.907 -50.611  1.00  0.00     0.016 A 
HETATM   24  C   UNL     1     -40.495  53.211 -51.821  1.00  0.00     0.019 A 
HETATM   25  C   UNL     1     -40.811  53.891 -53.008  1.00  0.00     0.046 A 
BRANCH  24  26
HETATM   26  C   UNL     1     -40.079  51.811 -51.816  1.00  0.00     0.179 A 
HETATM   27  O   UNL     1     -39.874  51.216 -53.036  1.00  0.00    -0.302 OA
HETATM   28  C   UNL     1     -39.505  49.942 -52.731  1.00  0.00     0.163 A 
HETATM   29  C   UNL     1     -39.502  49.817 -51.366  1.00  0.00     0.144 A 
HETATM   30  N   UNL     1     -39.873  51.005 -50.788  1.00  0.00    -0.234 NA
ENDBRANCH  24  26
ENDBRANCH   3  19
TORSDOF 5
ENDMDL
MODEL 2
REMARK VINA RESULT:      -7.8      3.503     10.097
REMARK  5 active torsions:
REMARK  status: ('A' for Active; 'I' for Inactive)
REMARK    1  A    between atoms: C_2  and  N_3 
REMARK       I    between atoms: N_3  and  C_4 
REMARK    2  A    between atoms: C_4  and  C_5 
REMARK    3  A    between atoms: C_8  and  N_9 
REMARK       I    between atoms: N_9  and  C_10 
REMARK       I    between atoms: C_10  and  N_11 
REMARK    4  A    between atoms: N_11  and  C_12 
REMARK    5  A    between atoms: C_17  and  C_18 
ROOT
HETATM    1  N   UNL     1     -42.351  55.049 -56.542  1.00  0.00    -0.309 N 
HETATM    2  C   UNL     1     -42.612  56.373 -56.871  1.00  0.00     0.325 C 
HETATM    3  N   UNL     1     -42.569  56.533 -58.249  1.00  0.00    -0.308 N 
HETATM    4  O   UNL     1     -42.803  57.268 -56.060  1.00  0.00    -0.247 OA
HETATM    5  H   UNL     1     -42.540  54.368 -57.262  1.00  0.00     0.170 HD
HETATM    6  H   UNL     1     -42.106  55.787 -58.741  1.00  0.00     0.170 HD
ENDROOT
BRANCH   1   7
HETATM    7  C   UNL     1     -41.972  54.545 -55.281  1.00  0.00     0.036 A 
HETATM    8  C   UNL     1     -42.834  54.476 -54.185  1.00  0.00     0.030 A 
HETATM    9  C   UNL     1     -42.369  54.053 -52.935  1.00  0.00     0.019 A 
HETATM   10  C   UNL     1     -41.025  53.707 -52.764  1.00  0.00     0.032 A 
HETATM   11  C   UNL     1     -40.167  53.735 -53.867  1.00  0.00     0.019 A 
HETATM   12  C   UNL     1     -40.636  54.155 -55.117  1.00  0.00     0.030 A 
BRANCH  10  13
HETATM   13  C   UNL     1     -40.469  53.319 -51.437  1.00  0.00     0.251 C 
HETATM   14  N   UNL     1     -40.272  54.347 -50.536  1.00  0.00    -0.357 N 
HETATM   15  H   UNL     1     -40.361  55.303 -50.850  1.00  0.00     0.162 HD
HETATM   16  O   UNL     1     -40.167  52.153 -51.214  1.00  0.00    -0.268 OA
BRANCH  14  17
HETATM   17  C   UNL     1     -39.613  54.126 -49.266  1.00  0.00     0.118 C 
HETATM   18  C   UNL     1     -40.619  53.901 -48.151  1.00  0.00     0.026 C 
ENDBRANCH  14  17
ENDBRANCH  10  13
ENDBRANCH   1   7
BRANCH   3  19
HETATM   19  C   UNL     1     -42.766  57.734 -58.974  1.00  0.00     0.043 A 
HETATM   20  C   UNL     1     -43.818  57.796 -59.915  1.00  0.00    -0.035 A 
HETATM   21  C   UNL     1     -44.741  56.634 -60.172  1.00  0.00     0.050 C 
HETATM   22  C   UNL     1     -43.999  58.968 -60.665  1.00  0.00     0.010 A 
HETATM   23  C   UNL     1     -43.164  60.070 -60.480  1.00  0.00     0.016 A 
HETATM   24  C   UNL     1     -42.136  60.036 -59.533  1.00  0.00     0.019 A 
HETATM   25  C   UNL     1     -41.953  58.861 -58.785  1.00  0.00     0.046 A 
BRANCH  24  26
HETATM   26  C   UNL     1     -41.285  61.209 -59.356  1.00  0.00     0.179 A 
HETATM   27  O   UNL     1     -41.025  61.965 -60.472  1.00  0.00    -0.302 OA
HETATM   28  C   UNL     1     -40.223  62.967 -60.019  1.00  0.00     0.163 A 
HETATM   29  C   UNL     1     -40.031  62.782 -58.674  1.00  0.00     0.144 A 
HETATM   30  N   UNL     1     -40.703  61.660 -58.258  1.00  0.00    -0.234 NA
ENDBRANCH  24  26
ENDBRANCH   3  19
TORSDOF 5
ENDMDL
MODEL 3
REMARK VINA RESULT:      -7.5      3.226      4.175
REMARK  5 active torsions:
REMARK  status: ('A' for Active; 'I' for Inactive)
REMARK    1  A    between atoms: C_2  and  N_3 
REMARK       I    between atoms: N_3  and  C_4 
REMARK    2  A    between atoms: C_4  and  C_5 
REMARK    3  A    between atoms: C_8  and  N_9 
REMARK       I    between atoms: N_9  and  C_10 
REMARK       I    between atoms: C_10  and  N_11 
REMARK    4  A    between atoms: N_11  and  C_12 
REMARK    5  A    between atoms: C_17  and  C_18 
ROOT
HETATM    1  N   UNL     1     -42.705  56.928 -54.753  1.00  0.00    -0.309 N 
HETATM    2  C   UNL     1     -41.713  56.189 -54.121  1.00  0.00     0.325 C 
HETATM    3  N   UNL     1     -42.145  55.800 -52.861  1.00  0.00    -0.308 N 
HETATM    4  O   UNL     1     -40.607  55.961 -54.591  1.00  0.00    -0.247 OA
HETATM    5  H   UNL     1     -43.648  56.769 -54.431  1.00  0.00     0.170 HD
HETATM    6  H   UNL     1     -42.935  56.318 -52.513  1.00  0.00     0.170 HD
ENDROOT
BRANCH   1   7
HETATM    7  C   UNL     1     -42.554  57.775 -55.869  1.00  0.00     0.036 A 
HETATM    8  C   UNL     1     -42.566  57.322 -57.190  1.00  0.00     0.030 A 
HETATM    9  C   UNL     1     -42.317  58.203 -58.249  1.00  0.00     0.019 A 
HETATM   10  C   UNL     1     -42.036  59.548 -57.995  1.00  0.00     0.032 A 
HETATM   11  C   UNL     1     -42.062  60.015 -56.677  1.00  0.00     0.019 A 
HETATM   12  C   UNL     1     -42.316  59.133 -55.621  1.00  0.00     0.030 A 
BRANCH  10  13
HETATM   13  C   UNL     1     -41.694  60.506 -59.084  1.00  0.00     0.251 C 
HETATM   14  N   UNL     1     -40.978  61.626 -58.708  1.00  0.00    -0.357 N 
HETATM   15  H   UNL     1     -40.853  61.824 -57.725  1.00  0.00     0.162 HD
HETATM   16  O   UNL     1     -42.088  60.304 -60.227  1.00  0.00    -0.268 OA
BRANCH  14  17
HETATM   17  C   UNL     1     -40.701  62.697 -59.642  1.00  0.00     0.118 C 
HETATM   18  C   UNL     1     -39.361  63.351 -59.353  1.00  0.00     0.026 C 
ENDBRANCH  14  17
ENDBRANCH  10  13
ENDBRANCH   1   7
BRANCH   3  19
HETATM   19  C   UNL     1     -41.418  55.049 -51.904  1.00  0.00     0.043 A 
HETATM   20  C   UNL     1     -40.982  55.692 -50.724  1.00  0.00    -0.035 A 
HETATM   21  C   UNL     1     -41.265  57.144 -50.442  1.00  0.00     0.050 C 
HETATM   22  C   UNL     1     -40.230  54.967 -49.787  1.00  0.00     0.010 A 
HETATM   23  C   UNL     1     -39.924  53.623 -50.003  1.00  0.00     0.016 A 
HETATM   24  C   UNL     1     -40.372  52.965 -51.152  1.00  0.00     0.019 A 
HETATM   25  C   UNL     1     -41.122  53.691 -52.091  1.00  0.00     0.046 A 
BRANCH  24  26
HETATM   26  C   UNL     1     -40.043  51.555 -51.345  1.00  0.00     0.179 A 
HETATM   27  O   UNL     1     -39.783  51.145 -52.629  1.00  0.00    -0.302 OA
HETATM   28  C   UNL     1     -39.516  49.816 -52.509  1.00  0.00     0.163 A 
HETATM   29  C   UNL     1     -39.624  49.479 -51.185  1.00  0.00     0.144 A 
HETATM   30  N   UNL     1     -39.965  50.586 -50.449  1.00  0.00    -0.234 NA
ENDBRANCH  24  26
ENDBRANCH   3  19
TORSDOF 5
ENDMDL
MODEL 4
REMARK VINA RESULT:      -7.5      5.734     10.064
REMARK  5 active torsions:
REMARK  status: ('A' for Active; 'I' for Inactive)
REMARK    1  A    between atoms: C_2  and  N_3 
REMARK       I    between atoms: N_3  and  C_4 
REMARK    2  A    between atoms: C_4  and  C_5 
REMARK    3  A    between atoms: C_8  and  N_9 
REMARK       I    between atoms: N_9  and  C_10 
REMARK       I    between atoms: C_10  and  N_11 
REMARK    4  A    between atoms: N_11  and  C_12 
REMARK    5  A    between atoms: C_17  and  C_18 
ROOT
HETATM    1  N   UNL     1     -41.578  57.907 -51.619  1.00  0.00    -0.309 N 
HETATM    2  C   UNL     1     -42.791  58.542 -51.384  1.00  0.00     0.325 C 
HETATM    3  N   UNL     1     -42.582  59.901 -51.190  1.00  0.00    -0.308 N 
HETATM    4  O   UNL     1     -43.872  57.976 -51.312  1.00  0.00    -0.247 OA
HETATM    5  H   UNL     1     -40.836  58.489 -51.979  1.00  0.00     0.170 HD
HETATM    6  H   UNL     1     -41.630  60.149 -50.978  1.00  0.00     0.170 HD
ENDROOT
BRANCH   1   7
HETATM    7  C   UNL     1     -41.310  56.527 -51.528  1.00  0.00     0.036 A 
HETATM    8  C   UNL     1     -40.954  55.885 -50.338  1.00  0.00     0.030 A 
HETATM    9  C   UNL     1     -40.609  54.529 -50.334  1.00  0.00     0.019 A 
HETATM   10  C   UNL     1     -40.601  53.801 -51.527  1.00  0.00     0.032 A 
HETATM   11  C   UNL     1     -40.995  54.427 -52.713  1.00  0.00     0.019 A 
HETATM   12  C   UNL     1     -41.344  55.782 -52.714  1.00  0.00     0.030 A 
BRANCH  10  13
HETATM   13  C   UNL     1     -40.171  52.375 -51.582  1.00  0.00     0.251 C 
HETATM   14  N   UNL     1     -39.887  51.872 -52.837  1.00  0.00    -0.357 N 
HETATM   15  H   UNL     1     -40.121  52.421 -53.652  1.00  0.00     0.162 HD
HETATM   16  O   UNL     1     -40.135  51.704 -50.557  1.00  0.00    -0.268 OA
BRANCH  14  17
HETATM   17  C   UNL     1     -39.592  50.470 -53.042  1.00  0.00     0.118 C 
HETATM   18  C   UNL     1     -40.047  50.004 -54.414  1.00  0.00     0.026 C 
ENDBRANCH  14  17
ENDBRANCH  10  13
ENDBRANCH   1   7
BRANCH   3  19
HETATM   19  C   UNL     1     -43.563  60.883 -50.909  1.00  0.00     0.043 A 
HETATM   20  C   UNL     1     -43.942  61.778 -51.933  1.00  0.00    -0.035 A 
HETATM   21  C   UNL     1     -43.347  61.725 -53.316  1.00  0.00     0.050 C 
HETATM   22  C   UNL     1     -44.887  62.778 -51.655  1.00  0.00     0.010 A 
HETATM   23  C   UNL     1     -45.461  62.886 -50.388  1.00  0.00     0.016 A 
HETATM   24  C   UNL     1     -45.117  61.990 -49.371  1.00  0.00     0.019 A 
HETATM   25  C   UNL     1     -44.170  60.991 -49.649  1.00  0.00     0.046 A 
BRANCH  24  26
HETATM   26  C   UNL     1     -45.742  62.123 -48.058  1.00  0.00     0.179 A 
HETATM   27  O   UNL     1     -44.952  62.584 -47.034  1.00  0.00    -0.302 OA
HETATM   28  C   UNL     1     -45.780  62.603 -45.954  1.00  0.00     0.163 A 
HETATM   29  C   UNL     1     -47.013  62.161 -46.357  1.00  0.00     0.144 A 
HETATM   30  N   UNL     1     -46.984  61.851 -47.693  1.00  0.00    -0.234 NA
ENDBRANCH  24  26
ENDBRANCH   3  19
TORSDOF 5
ENDMDL
MODEL 5
REMARK VINA RESULT:      -7.4     15.819     19.811
REMARK  5 active torsions:
REMARK  status: ('A' for Active; 'I' for Inactive)
REMARK    1  A    between atoms: C_2  and  N_3 
REMARK       I    between atoms: N_3  and  C_4 
REMARK    2  A    between atoms: C_4  and  C_5 
REMARK    3  A    between atoms: C_8  and  N_9 
REMARK       I    between atoms: N_9  and  C_10 
REMARK       I    between atoms: C_10  and  N_11 
REMARK    4  A    between atoms: N_11  and  C_12 
REMARK    5  A    between atoms: C_17  and  C_18 
ROOT
HETATM    1  N   UNL     1     -34.002  41.134 -53.880  1.00  0.00    -0.309 N 
HETATM    2  C   UNL     1     -34.705  40.298 -54.737  1.00  0.00     0.325 C 
HETATM    3  N   UNL     1     -35.378  41.055 -55.687  1.00  0.00    -0.308 N 
HETATM    4  O   UNL     1     -34.760  39.081 -54.635  1.00  0.00    -0.247 OA
HETATM    5  H   UNL     1     -33.762  42.044 -54.246  1.00  0.00     0.170 HD
HETATM    6  H   UNL     1     -35.477  42.028 -55.451  1.00  0.00     0.170 HD
ENDROOT
BRANCH   1   7
HETATM    7  C   UNL     1     -33.482  40.808 -52.611  1.00  0.00     0.036 A 
HETATM    8  C   UNL     1     -32.160  40.411 -52.397  1.00  0.00     0.030 A 
HETATM    9  C   UNL     1     -31.732  40.011 -51.126  1.00  0.00     0.019 A 
HETATM   10  C   UNL     1     -32.630  39.988 -50.055  1.00  0.00     0.032 A 
HETATM   11  C   UNL     1     -33.943  40.424 -50.255  1.00  0.00     0.019 A 
HETATM   12  C   UNL     1     -34.367  40.828 -51.526  1.00  0.00     0.030 A 
BRANCH  10  13
HETATM   13  C   UNL     1     -32.238  39.502 -48.702  1.00  0.00     0.251 C 
HETATM   14  N   UNL     1     -31.169  40.145 -48.109  1.00  0.00    -0.357 N 
HETATM   15  H   UNL     1     -30.616  40.790 -48.657  1.00  0.00     0.162 HD
HETATM   16  O   UNL     1     -32.822  38.549 -48.198  1.00  0.00    -0.268 OA
BRANCH  14  17
HETATM   17  C   UNL     1     -30.604  39.681 -46.860  1.00  0.00     0.118 C 
HETATM   18  C   UNL     1     -29.933  40.813 -46.102  1.00  0.00     0.026 C 
ENDBRANCH  14  17
ENDBRANCH  10  13
ENDBRANCH   1   7
BRANCH   3  19
HETATM   19  C   UNL     1     -36.215  40.574 -56.724  1.00  0.00     0.043 A 
HETATM   20  C   UNL     1     -37.614  40.701 -56.583  1.00  0.00    -0.035 A 
HETATM   21  C   UNL     1     -38.250  41.334 -55.373  1.00  0.00     0.050 C 
HETATM   22  C   UNL     1     -38.453  40.195 -57.587  1.00  0.00     0.010 A 
HETATM   23  C   UNL     1     -37.921  39.585 -58.723  1.00  0.00     0.016 A 
HETATM   24  C   UNL     1     -36.537  39.476 -58.891  1.00  0.00     0.019 A 
HETATM   25  C   UNL     1     -35.697  39.980 -57.884  1.00  0.00     0.046 A 
BRANCH  24  26
HETATM   26  C   UNL     1     -36.009  38.840 -60.095  1.00  0.00     0.179 A 
HETATM   27  O   UNL     1     -34.846  38.122 -59.964  1.00  0.00    -0.302 OA
HETATM   28  C   UNL     1     -34.596  37.656 -61.218  1.00  0.00     0.163 A 
HETATM   29  C   UNL     1     -35.596  38.101 -62.043  1.00  0.00     0.144 A 
HETATM   30  N   UNL     1     -36.489  38.858 -61.327  1.00  0.00    -0.234 NA
ENDBRANCH  24  26
ENDBRANCH   3  19
TORSDOF 5
ENDMDL
MODEL 6
REMARK VINA RESULT:      -7.4      2.512     10.427
REMARK  5 active torsions:
REMARK  status: ('A' for Active; 'I' for Inactive)
REMARK    1  A    between atoms: C_2  and  N_3 
REMARK       I    between atoms: N_3  and  C_4 
REMARK    2  A    between atoms: C_4  and  C_5 
REMARK    3  A    between atoms: C_8  and  N_9 
REMARK       I    between atoms: N_9  and  C_10 
REMARK       I    between atoms: C_10  and  N_11 
REMARK    4  A    between atoms: N_11  and  C_12 
REMARK    5  A    between atoms: C_17  and  C_18 
ROOT
HETATM    1  N   UNL     1     -43.234  54.987 -56.456  1.00  0.00    -0.309 N 
HETATM    2  C   UNL     1     -43.470  56.277 -56.913  1.00  0.00     0.325 C 
HETATM    3  N   UNL     1     -43.905  56.238 -58.231  1.00  0.00    -0.308 N 
HETATM    4  O   UNL     1     -43.275  57.294 -56.263  1.00  0.00    -0.247 OA
HETATM    5  H   UNL     1     -43.731  54.250 -56.934  1.00  0.00     0.170 HD
HETATM    6  H   UNL     1     -43.719  55.370 -58.705  1.00  0.00     0.170 HD
ENDROOT
BRANCH   1   7
HETATM    7  C   UNL     1     -42.481  54.610 -55.326  1.00  0.00     0.036 A 
HETATM    8  C   UNL     1     -41.126  54.275 -55.377  1.00  0.00     0.030 A 
HETATM    9  C   UNL     1     -40.459  53.818 -54.235  1.00  0.00     0.019 A 
HETATM   10  C   UNL     1     -41.149  53.676 -53.027  1.00  0.00     0.032 A 
HETATM   11  C   UNL     1     -42.495  54.048 -52.960  1.00  0.00     0.019 A 
HETATM   12  C   UNL     1     -43.157  54.508 -54.103  1.00  0.00     0.030 A 
BRANCH  10  13
HETATM   13  C   UNL     1     -40.499  53.126 -51.803  1.00  0.00     0.251 C 
HETATM   14  N   UNL     1     -41.094  53.450 -50.600  1.00  0.00    -0.357 N 
HETATM   15  H   UNL     1     -41.825  54.147 -50.583  1.00  0.00     0.162 HD
HETATM   16  O   UNL     1     -39.467  52.471 -51.897  1.00  0.00    -0.268 OA
BRANCH  14  17
HETATM   17  C   UNL     1     -40.487  53.095 -49.334  1.00  0.00     0.118 C 
HETATM   18  C   UNL     1     -40.478  54.271 -48.375  1.00  0.00     0.026 C 
ENDBRANCH  14  17
ENDBRANCH  10  13
ENDBRANCH   1   7
BRANCH   3  19
HETATM   19  C   UNL     1     -44.233  57.343 -59.054  1.00  0.00     0.043 A 
HETATM   20  C   UNL     1     -43.241  57.874 -59.907  1.00  0.00    -0.035 A 
HETATM   21  C   UNL     1     -41.848  57.305 -59.981  1.00  0.00     0.050 C 
HETATM   22  C   UNL     1     -43.545  58.992 -60.700  1.00  0.00     0.010 A 
HETATM   23  C   UNL     1     -44.814  59.570 -60.662  1.00  0.00     0.016 A 
HETATM   24  C   UNL     1     -45.816  59.040 -59.843  1.00  0.00     0.019 A 
HETATM   25  C   UNL     1     -45.510  57.923 -59.048  1.00  0.00     0.046 A 
BRANCH  24  26
HETATM   26  C   UNL     1     -47.136  59.662 -59.831  1.00  0.00     0.179 A 
HETATM   27  O   UNL     1     -47.875  59.580 -60.985  1.00  0.00    -0.302 OA
HETATM   28  C   UNL     1     -49.032  60.234 -60.690  1.00  0.00     0.163 A 
HETATM   29  C   UNL     1     -48.950  60.678 -59.396  1.00  0.00     0.144 A 
HETATM   30  N   UNL     1     -47.741  60.318 -58.855  1.00  0.00    -0.234 NA
ENDBRANCH  24  26
ENDBRANCH   3  19
TORSDOF 5
ENDMDL
MODEL 7
REMARK VINA RESULT:      -7.3     15.155     16.907
REMARK  5 active torsions:
REMARK  status: ('A' for Active; 'I' for Inactive)
REMARK    1  A    between atoms: C_2  and  N_3 
REMARK       I    between atoms: N_3  and  C_4 
REMARK    2  A    between atoms: C_4  and  C_5 
REMARK    3  A    between atoms: C_8  and  N_9 
REMARK       I    between atoms: N_9  and  C_10 
REMARK       I    between atoms: C_10  and  N_11 
REMARK    4  A    between atoms: N_11  and  C_12 
REMARK    5  A    between atoms: C_17  and  C_18 
ROOT
HETATM    1  N   UNL     1     -35.946  41.809 -53.701  1.00  0.00    -0.309 N 
HETATM    2  C   UNL     1     -35.554  40.712 -52.945  1.00  0.00     0.325 C 
HETATM    3  N   UNL     1     -34.875  41.139 -51.812  1.00  0.00    -0.308 N 
HETATM    4  O   UNL     1     -35.740  39.545 -53.260  1.00  0.00    -0.247 OA
HETATM    5  H   UNL     1     -36.039  42.681 -53.202  1.00  0.00     0.170 HD
HETATM    6  H   UNL     1     -34.545  42.089 -51.858  1.00  0.00     0.170 HD
ENDROOT
BRANCH   1   7
HETATM    7  C   UNL     1     -36.346  41.811 -55.053  1.00  0.00     0.036 A 
HETATM    8  C   UNL     1     -37.628  41.457 -55.480  1.00  0.00     0.030 A 
HETATM    9  C   UNL     1     -37.933  41.389 -56.844  1.00  0.00     0.019 A 
HETATM   10  C   UNL     1     -36.949  41.661 -57.800  1.00  0.00     0.032 A 
HETATM   11  C   UNL     1     -35.676  42.055 -57.377  1.00  0.00     0.019 A 
HETATM   12  C   UNL     1     -35.376  42.126 -56.013  1.00  0.00     0.030 A 
BRANCH  10  13
HETATM   13  C   UNL     1     -37.207  41.532 -59.262  1.00  0.00     0.251 C 
HETATM   14  N   UNL     1     -37.354  40.245 -59.743  1.00  0.00    -0.357 N 
HETATM   15  H   UNL     1     -37.135  39.465 -59.140  1.00  0.00     0.162 HD
HETATM   16  O   UNL     1     -37.229  42.530 -59.973  1.00  0.00    -0.268 OA
BRANCH  14  17
HETATM   17  C   UNL     1     -37.472  39.975 -61.160  1.00  0.00     0.118 C 
HETATM   18  C   UNL     1     -36.653  38.762 -61.563  1.00  0.00     0.026 C 
ENDBRANCH  14  17
ENDBRANCH  10  13
ENDBRANCH   1   7
BRANCH   3  19
HETATM   19  C   UNL     1     -34.304  40.325 -50.803  1.00  0.00     0.043 A 
HETATM   20  C   UNL     1     -32.906  40.122 -50.802  1.00  0.00    -0.035 A 
HETATM   21  C   UNL     1     -31.998  40.742 -51.831  1.00  0.00     0.050 C 
HETATM   22  C   UNL     1     -32.336  39.288 -49.828  1.00  0.00     0.010 A 
HETATM   23  C   UNL     1     -33.129  38.674 -48.859  1.00  0.00     0.016 A 
HETATM   24  C   UNL     1     -34.511  38.888 -48.829  1.00  0.00     0.019 A 
HETATM   25  C   UNL     1     -35.082  39.719 -49.805  1.00  0.00     0.046 A 
BRANCH  24  26
HETATM   26  C   UNL     1     -35.314  38.238 -47.797  1.00  0.00     0.179 A 
HETATM   27  O   UNL     1     -34.709  37.245 -47.068  1.00  0.00    -0.302 OA
HETATM   28  C   UNL     1     -35.673  36.828 -46.202  1.00  0.00     0.163 A 
HETATM   29  C   UNL     1     -36.802  37.570 -46.436  1.00  0.00     0.144 A 
HETATM   30  N   UNL     1     -36.572  38.461 -47.454  1.00  0.00    -0.234 NA
ENDBRANCH  24  26
ENDBRANCH   3  19
TORSDOF 5
ENDMDL
MODEL 8
REMARK VINA RESULT:      -7.2      4.518      9.250
REMARK  5 active torsions:
REMARK  status: ('A' for Active; 'I' for Inactive)
REMARK    1  A    between atoms: C_2  and  N_3 
REMARK       I    between atoms: N_3  and  C_4 
REMARK    2  A    between atoms: C_4  and  C_5 
REMARK    3  A    between atoms: C_8  and  N_9 
REMARK       I    between atoms: N_9  and  C_10 
REMARK       I    between atoms: C_10  and  N_11 
REMARK    4  A    between atoms: N_11  and  C_12 
REMARK    5  A    between atoms: C_17  and  C_18 
ROOT
HETATM    1  N   UNL     1     -42.105  57.324 -53.559  1.00  0.00    -0.309 N 
HETATM    2  C   UNL     1     -43.265  57.707 -52.897  1.00  0.00     0.325 C 
HETATM    3  N   UNL     1     -43.282  59.085 -52.735  1.00  0.00    -0.308 N 
HETATM    4  O   UNL     1     -44.116  56.935 -52.478  1.00  0.00    -0.247 OA
HETATM    5  H   UNL     1     -41.667  58.031 -54.130  1.00  0.00     0.170 HD
HETATM    6  H   UNL     1     -42.387  59.530 -52.855  1.00  0.00     0.170 HD
ENDROOT
BRANCH   1   7
HETATM    7  C   UNL     1     -41.548  56.031 -53.618  1.00  0.00     0.036 A 
HETATM    8  C   UNL     1     -41.310  55.346 -54.812  1.00  0.00     0.030 A 
HETATM    9  C   UNL     1     -40.841  54.027 -54.797  1.00  0.00     0.019 A 
HETATM   10  C   UNL     1     -40.619  53.372 -53.582  1.00  0.00     0.032 A 
HETATM   11  C   UNL     1     -40.817  54.067 -52.385  1.00  0.00     0.019 A 
HETATM   12  C   UNL     1     -41.281  55.386 -52.403  1.00  0.00     0.030 A 
BRANCH  10  13
HETATM   13  C   UNL     1     -40.190  51.947 -53.517  1.00  0.00     0.251 C 
HETATM   14  N   UNL     1     -39.781  51.489 -52.279  1.00  0.00    -0.357 N 
HETATM   15  H   UNL     1     -39.645  52.152 -51.529  1.00  0.00     0.162 HD
HETATM   16  O   UNL     1     -40.164  51.265 -54.536  1.00  0.00    -0.268 OA
BRANCH  14  17
HETATM   17  C   UNL     1     -39.212  50.169 -52.109  1.00  0.00     0.118 C 
HETATM   18  C   UNL     1     -39.863  49.431 -50.954  1.00  0.00     0.026 C 
ENDBRANCH  14  17
ENDBRANCH  10  13
ENDBRANCH   1   7
BRANCH   3  19
HETATM   19  C   UNL     1     -44.284  59.857 -52.097  1.00  0.00     0.043 A 
HETATM   20  C   UNL     1     -45.282  60.466 -52.889  1.00  0.00    -0.035 A 
HETATM   21  C   UNL     1     -45.324  60.322 -54.388  1.00  0.00     0.050 C 
HETATM   22  C   UNL     1     -46.258  61.262 -52.270  1.00  0.00     0.010 A 
HETATM   23  C   UNL     1     -46.259  61.444 -50.887  1.00  0.00     0.016 A 
HETATM   24  C   UNL     1     -45.295  60.826 -50.085  1.00  0.00     0.019 A 
HETATM   25  C   UNL     1     -44.316  60.032 -50.705  1.00  0.00     0.046 A 
BRANCH  24  26
HETATM   26  C   UNL     1     -45.328  61.028 -48.640  1.00  0.00     0.179 A 
HETATM   27  O   UNL     1     -46.076  60.145 -47.902  1.00  0.00    -0.302 OA
HETATM   28  C   UNL     1     -45.927  60.570 -46.618  1.00  0.00     0.163 A 
HETATM   29  C   UNL     1     -45.112  61.672 -46.627  1.00  0.00     0.144 A 
HETATM   30  N   UNL     1     -44.738  61.964 -47.915  1.00  0.00    -0.234 NA
ENDBRANCH  24  26
ENDBRANCH   3  19
TORSDOF 5
ENDMDL
MODEL 9
REMARK VINA RESULT:      -7.1     15.169     19.010
REMARK  5 active torsions:
REMARK  status: ('A' for Active; 'I' for Inactive)
REMARK    1  A    between atoms: C_2  and  N_3 
REMARK       I    between atoms: N_3  and  C_4 
REMARK    2  A    between atoms: C_4  and  C_5 
REMARK    3  A    between atoms: C_8  and  N_9 
REMARK       I    between atoms: N_9  and  C_10 
REMARK       I    between atoms: C_10  and  N_11 
REMARK    4  A    between atoms: N_11  and  C_12 
REMARK    5  A    between atoms: C_17  and  C_18 
ROOT
HETATM    1  N   UNL     1     -36.450  40.906 -58.894  1.00  0.00    -0.309 N 
HETATM    2  C   UNL     1     -36.904  39.671 -59.338  1.00  0.00     0.325 C 
HETATM    3  N   UNL     1     -37.324  39.770 -60.657  1.00  0.00    -0.308 N 
HETATM    4  O   UNL     1     -36.968  38.662 -58.650  1.00  0.00    -0.247 OA
HETATM    5  H   UNL     1     -36.137  41.546 -59.608  1.00  0.00     0.170 HD
HETATM    6  H   UNL     1     -37.492  40.711 -60.971  1.00  0.00     0.170 HD
ENDROOT
BRANCH   1   7
HETATM    7  C   UNL     1     -36.263  41.312 -57.557  1.00  0.00     0.036 A 
HETATM    8  C   UNL     1     -35.010  41.575 -56.997  1.00  0.00     0.030 A 
HETATM    9  C   UNL     1     -34.886  41.884 -55.638  1.00  0.00     0.019 A 
HETATM   10  C   UNL     1     -36.018  41.918 -54.817  1.00  0.00     0.032 A 
HETATM   11  C   UNL     1     -37.278  41.695 -55.381  1.00  0.00     0.019 A 
HETATM   12  C   UNL     1     -37.399  41.391 -56.741  1.00  0.00     0.030 A 
BRANCH  10  13
HETATM   13  C   UNL     1     -35.926  42.171 -53.352  1.00  0.00     0.251 C 
HETATM   14  N   UNL     1     -34.667  42.069 -52.793  1.00  0.00    -0.357 N 
HETATM   15  H   UNL     1     -33.911  41.689 -53.346  1.00  0.00     0.162 HD
HETATM   16  O   UNL     1     -36.941  42.402 -52.703  1.00  0.00    -0.268 OA
BRANCH  14  17
HETATM   17  C   UNL     1     -34.463  42.156 -51.363  1.00  0.00     0.118 C 
HETATM   18  C   UNL     1     -34.079  40.810 -50.775  1.00  0.00     0.026 C 
ENDBRANCH  14  17
ENDBRANCH  10  13
ENDBRANCH   1   7
BRANCH   3  19
HETATM   19  C   UNL     1     -37.866  38.736 -61.460  1.00  0.00     0.043 A 
HETATM   20  C   UNL     1     -36.986  37.927 -62.212  1.00  0.00    -0.035 A 
HETATM   21  C   UNL     1     -35.493  38.118 -62.189  1.00  0.00     0.050 C 
HETATM   22  C   UNL     1     -37.516  36.923 -63.038  1.00  0.00     0.010 A 
HETATM   23  C   UNL     1     -38.892  36.711 -63.112  1.00  0.00     0.016 A 
HETATM   24  C   UNL     1     -39.775  37.484 -62.352  1.00  0.00     0.019 A 
HETATM   25  C   UNL     1     -39.246  38.491 -61.527  1.00  0.00     0.046 A 
BRANCH  24  26
HETATM   26  C   UNL     1     -41.210  37.232 -62.443  1.00  0.00     0.179 A 
HETATM   27  O   UNL     1     -41.693  36.806 -63.656  1.00  0.00    -0.302 OA
HETATM   28  C   UNL     1     -43.031  36.658 -63.451  1.00  0.00     0.163 A 
HETATM   29  C   UNL     1     -43.300  36.993 -62.149  1.00  0.00     0.144 A 
HETATM   30  N   UNL     1     -42.142  37.363 -61.514  1.00  0.00    -0.234 NA
ENDBRANCH  24  26
ENDBRANCH   3  19
TORSDOF 5
ENDMDL
MODEL 10
REMARK VINA RESULT:      -6.9      5.423     10.224
REMARK  5 active torsions:
REMARK  status: ('A' for Active; 'I' for Inactive)
REMARK    1  A    between atoms: C_2  and  N_3 
REMARK       I    between atoms: N_3  and  C_4 
REMARK    2  A    between atoms: C_4  and  C_5 
REMARK    3  A    between atoms: C_8  and  N_9 
REMARK       I    between atoms: N_9  and  C_10 
REMARK       I    between atoms: C_10  and  N_11 
REMARK    4  A    between atoms: N_11  and  C_12 
REMARK    5  A    between atoms: C_17  and  C_18 
ROOT
HETATM    1  N   UNL     1     -43.924  57.118 -50.557  1.00  0.00    -0.309 N 
HETATM    2  C   UNL     1     -44.066  58.431 -50.987  1.00  0.00     0.325 C 
HETATM    3  N   UNL     1     -45.268  58.950 -50.526  1.00  0.00    -0.308 N 
HETATM    4  O   UNL     1     -43.271  59.020 -51.705  1.00  0.00    -0.247 OA
HETATM    5  H   UNL     1     -44.445  56.863 -49.731  1.00  0.00     0.170 HD
HETATM    6  H   UNL     1     -45.931  58.256 -50.220  1.00  0.00     0.170 HD
ENDROOT
BRANCH   1   7
HETATM    7  C   UNL     1     -43.041  56.146 -51.071  1.00  0.00     0.036 A 
HETATM    8  C   UNL     1     -43.350  55.316 -52.151  1.00  0.00     0.030 A 
HETATM    9  C   UNL     1     -42.466  54.308 -52.552  1.00  0.00     0.019 A 
HETATM   10  C   UNL     1     -41.266  54.108 -51.864  1.00  0.00     0.032 A 
HETATM   11  C   UNL     1     -40.934  54.962 -50.807  1.00  0.00     0.019 A 
HETATM   12  C   UNL     1     -41.818  55.972 -50.412  1.00  0.00     0.030 A 
BRANCH  10  13
HETATM   13  C   UNL     1     -40.328  53.003 -52.209  1.00  0.00     0.251 C 
HETATM   14  N   UNL     1     -40.336  52.587 -53.526  1.00  0.00    -0.357 N 
HETATM   15  H   UNL     1     -41.058  52.926 -54.146  1.00  0.00     0.162 HD
HETATM   16  O   UNL     1     -39.643  52.482 -51.335  1.00  0.00    -0.268 OA
BRANCH  14  17
HETATM   17  C   UNL     1     -39.575  51.435 -53.961  1.00  0.00     0.118 C 
HETATM   18  C   UNL     1     -40.481  50.254 -54.261  1.00  0.00     0.026 C 
ENDBRANCH  14  17
ENDBRANCH  10  13
ENDBRANCH   1   7
BRANCH   3  19
HETATM   19  C   UNL     1     -45.784  60.248 -50.764  1.00  0.00     0.043 A 
HETATM   20  C   UNL     1     -45.478  61.279 -49.849  1.00  0.00    -0.035 A 
HETATM   21  C   UNL     1     -44.619  61.053 -48.633  1.00  0.00     0.050 C 
HETATM   22  C   UNL     1     -46.014  62.559 -50.055  1.00  0.00     0.010 A 
HETATM   23  C   UNL     1     -46.829  62.824 -51.156  1.00  0.00     0.016 A 
HETATM   24  C   UNL     1     -47.119  61.821 -52.086  1.00  0.00     0.019 A 
HETATM   25  C   UNL     1     -46.585  60.539 -51.878  1.00  0.00     0.046 A 
BRANCH  24  26
HETATM   26  C   UNL     1     -47.968  62.130 -53.233  1.00  0.00     0.179 A 
HETATM   27  O   UNL     1     -49.326  62.069 -53.040  1.00  0.00    -0.302 OA
HETATM   28  C   UNL     1     -49.853  62.396 -54.251  1.00  0.00     0.163 A 
HETATM   29  C   UNL     1     -48.815  62.637 -55.114  1.00  0.00     0.144 A 
HETATM   30  N   UNL     1     -47.619  62.461 -54.465  1.00  0.00    -0.234 NA
ENDBRANCH  24  26
ENDBRANCH   3  19
TORSDOF 5
ENDMDL
