MODEL 1
REMARK VINA RESULT:      -7.7      0.000      0.000
REMARK  8 active torsions:
REMARK  status: ('A' for Active; 'I' for Inactive)
REMARK    1  A    between atoms: C_2  and  C_3 
REMARK    2  A    between atoms: C_7  and  C_8 
REMARK       I    between atoms: C_8  and  N_9 
REMARK    3  A    between atoms: N_9  and  C_10 
REMARK    4  A    between atoms: C_10  and  C_11 
REMARK    5  A    between atoms: C_11  and  O_12 
REMARK    6  A    between atoms: C_11  and  C_13 
REMARK    7  A    between atoms: C_13  and  O_14 
REMARK    8  A    between atoms: O_14  and  C_15 
ROOT
HETATM    1  C   UNL     1     -42.832  56.494 -55.310  1.00  0.00     0.269 C 
HETATM    2  N   UNL     1     -43.986  56.576 -54.568  1.00  0.00    -0.353 N 
HETATM    3  O   UNL     1     -42.563  57.295 -56.199  1.00  0.00    -0.266 OA
HETATM    4  H   UNL     1     -44.169  55.896 -53.846  1.00  0.00     0.162 HD
ENDROOT
BRANCH   1   5
HETATM    5  C   UNL     1     -41.983  55.378 -54.996  1.00  0.00     0.120 A 
HETATM    6  N   UNL     1     -40.943  55.017 -55.808  1.00  0.00    -0.272 N 
HETATM    7  N   UNL     1     -40.275  53.930 -55.397  1.00  0.00    -0.174 NA
HETATM    8  H   UNL     1     -40.658  55.473 -56.670  1.00  0.00     0.189 HD
HETATM    9  C   UNL     1     -40.865  53.585 -54.243  1.00  0.00     0.089 A 
HETATM   10  C   UNL     1     -41.945  54.468 -53.959  1.00  0.00     0.071 A 
BRANCH   9  11
HETATM   11  C   UNL     1     -40.405  52.439 -53.454  1.00  0.00    -0.005 A 
HETATM   12  C   UNL     1     -40.177  51.191 -54.057  1.00  0.00     0.017 A 
HETATM   13  C   UNL     1     -39.733  50.106 -53.295  1.00  0.00     0.043 A 
HETATM   14  C   UNL     1     -39.513  50.265 -51.932  1.00  0.00     0.116 A 
HETATM   15  C   UNL     1     -39.734  51.489 -51.313  1.00  0.00     0.043 A 
HETATM   16  F   UNL     1     -39.086  49.225 -51.206  1.00  0.00    -0.206 F 
HETATM   17  C   UNL     1     -40.183  52.573 -52.073  1.00  0.00     0.017 A 
ENDBRANCH   9  11
ENDBRANCH   1   5
BRANCH   2  18
HETATM   18  C   UNL     1     -44.952  57.656 -54.739  1.00  0.00     0.156 C 
BRANCH  18  19
HETATM   19  C   UNL     1     -44.769  58.783 -53.708  1.00  0.00     0.159 C 
BRANCH  19  20
HETATM   20  O   UNL     1     -45.867  59.702 -53.799  1.00  0.00    -0.392 OA
HETATM   21  H   UNL     1     -45.797  60.111 -54.681  1.00  0.00     0.210 HD
ENDBRANCH  19  20
BRANCH  19  22
HETATM   22  C   UNL     1     -44.712  58.232 -52.278  1.00  0.00     0.201 C 
BRANCH  22  23
HETATM   23  O   UNL     1     -43.422  58.269 -51.676  1.00  0.00    -0.383 OA
BRANCH  23  24
HETATM   24  C   UNL     1     -42.751  57.013 -51.516  1.00  0.00     0.121 C 
HETATM   25  C   UNL     1     -43.772  56.067 -50.870  1.00  0.00     0.032 C 
HETATM   26  C   UNL     1     -43.177  54.705 -50.538  1.00  0.00     0.002 C 
HETATM   27  C   UNL     1     -41.933  54.839 -49.668  1.00  0.00     0.000 C 
HETATM   28  C   UNL     1     -40.902  55.759 -50.311  1.00  0.00     0.002 C 
HETATM   29  C   UNL     1     -41.494  57.126 -50.646  1.00  0.00     0.032 C 
ENDBRANCH  23  24
ENDBRANCH  22  23
ENDBRANCH  19  22
ENDBRANCH  18  19
ENDBRANCH   2  18
TORSDOF 8
ENDMDL
MODEL 2
REMARK VINA RESULT:      -7.5      0.510      1.443
REMARK  8 active torsions:
REMARK  status: ('A' for Active; 'I' for Inactive)
REMARK    1  A    between atoms: C_2  and  C_3 
REMARK    2  A    between atoms: C_7  and  C_8 
REMARK       I    between atoms: C_8  and  N_9 
REMARK    3  A    between atoms: N_9  and  C_10 
REMARK    4  A    between atoms: C_10  and  C_11 
REMARK    5  A    between atoms: C_11  and  O_12 
REMARK    6  A    between atoms: C_11  and  C_13 
REMARK    7  A    between atoms: C_13  and  O_14 
REMARK    8  A    between atoms: O_14  and  C_15 
ROOT
HETATM    1  C   UNL     1     -42.742  56.463 -55.191  1.00  0.00     0.269 C 
HETATM    2  N   UNL     1     -43.968  56.395 -54.572  1.00  0.00    -0.353 N 
HETATM    3  O   UNL     1     -42.439  57.376 -55.950  1.00  0.00    -0.266 OA
HETATM    4  H   UNL     1     -44.177  55.625 -53.955  1.00  0.00     0.162 HD
ENDROOT
BRANCH   1   5
HETATM    5  C   UNL     1     -41.858  55.364 -54.914  1.00  0.00     0.120 A 
HETATM    6  N   UNL     1     -40.616  55.283 -55.480  1.00  0.00    -0.272 N 
HETATM    7  N   UNL     1     -39.932  54.176 -55.154  1.00  0.00    -0.174 NA
HETATM    8  H   UNL     1     -40.191  55.953 -56.115  1.00  0.00     0.189 HD
HETATM    9  C   UNL     1     -40.734  53.522 -54.300  1.00  0.00     0.089 A 
HETATM   10  C   UNL     1     -41.954  54.233 -54.127  1.00  0.00     0.071 A 
BRANCH   9  11
HETATM   11  C   UNL     1     -40.334  52.252 -53.687  1.00  0.00    -0.005 A 
HETATM   12  C   UNL     1     -39.934  52.192 -52.343  1.00  0.00     0.017 A 
HETATM   13  C   UNL     1     -39.561  50.974 -51.767  1.00  0.00     0.043 A 
HETATM   14  C   UNL     1     -39.589  49.814 -52.531  1.00  0.00     0.116 A 
HETATM   15  C   UNL     1     -39.979  49.848 -53.864  1.00  0.00     0.043 A 
HETATM   16  F   UNL     1     -39.233  48.649 -51.977  1.00  0.00    -0.206 F 
HETATM   17  C   UNL     1     -40.348  51.067 -54.442  1.00  0.00     0.017 A 
ENDBRANCH   9  11
ENDBRANCH   1   5
BRANCH   2  18
HETATM   18  C   UNL     1     -44.980  57.434 -54.724  1.00  0.00     0.156 C 
BRANCH  18  19
HETATM   19  C   UNL     1     -44.665  58.692 -53.897  1.00  0.00     0.159 C 
BRANCH  19  20
HETATM   20  O   UNL     1     -45.773  59.602 -53.963  1.00  0.00    -0.392 OA
HETATM   21  H   UNL     1     -46.124  59.524 -54.870  1.00  0.00     0.210 HD
ENDBRANCH  19  20
BRANCH  19  22
HETATM   22  C   UNL     1     -44.408  58.347 -52.425  1.00  0.00     0.201 C 
BRANCH  22  23
HETATM   23  O   UNL     1     -43.041  58.107 -52.100  1.00  0.00    -0.383 OA
BRANCH  23  24
HETATM   24  C   UNL     1     -42.784  57.122 -51.093  1.00  0.00     0.121 C 
HETATM   25  C   UNL     1     -41.367  56.599 -51.364  1.00  0.00     0.032 C 
HETATM   26  C   UNL     1     -40.976  55.461 -50.431  1.00  0.00     0.002 C 
HETATM   27  C   UNL     1     -41.992  54.326 -50.483  1.00  0.00     0.000 C 
HETATM   28  C   UNL     1     -43.402  54.830 -50.192  1.00  0.00     0.002 C 
HETATM   29  C   UNL     1     -43.797  55.972 -51.125  1.00  0.00     0.032 C 
ENDBRANCH  23  24
ENDBRANCH  22  23
ENDBRANCH  19  22
ENDBRANCH  18  19
ENDBRANCH   2  18
TORSDOF 8
ENDMDL
MODEL 3
REMARK VINA RESULT:      -7.5      3.679      6.781
REMARK  8 active torsions:
REMARK  status: ('A' for Active; 'I' for Inactive)
REMARK    1  A    between atoms: C_2  and  C_3 
REMARK    2  A    between atoms: C_7  and  C_8 
REMARK       I    between atoms: C_8  and  N_9 
REMARK    3  A    between atoms: N_9  and  C_10 
REMARK    4  A    between atoms: C_10  and  C_11 
REMARK    5  A    between atoms: C_11  and  O_12 
REMARK    6  A    between atoms: C_11  and  C_13 
REMARK    7  A    between atoms: C_13  and  O_14 
REMARK    8  A    between atoms: O_14  and  C_15 
ROOT
HETATM    1  C   UNL     1     -42.859  55.833 -51.488  1.00  0.00     0.269 C 
HETATM    2  N   UNL     1     -41.685  55.407 -50.914  1.00  0.00    -0.353 N 
HETATM    3  O   UNL     1     -43.799  56.256 -50.826  1.00  0.00    -0.266 OA
HETATM    4  H   UNL     1     -40.935  55.065 -51.497  1.00  0.00     0.162 HD
ENDROOT
BRANCH   1   5
HETATM    5  C   UNL     1     -42.919  55.707 -52.919  1.00  0.00     0.120 A 
HETATM    6  N   UNL     1     -43.261  54.529 -53.522  1.00  0.00    -0.272 N 
HETATM    7  N   UNL     1     -43.229  54.565 -54.862  1.00  0.00    -0.174 NA
HETATM    8  H   UNL     1     -43.509  53.658 -53.060  1.00  0.00     0.189 HD
HETATM    9  C   UNL     1     -42.899  55.831 -55.159  1.00  0.00     0.089 A 
HETATM   10  C   UNL     1     -42.691  56.579 -53.965  1.00  0.00     0.071 A 
BRANCH   9  11
HETATM   11  C   UNL     1     -42.779  56.292 -56.545  1.00  0.00    -0.005 A 
HETATM   12  C   UNL     1     -43.084  55.441 -57.619  1.00  0.00     0.017 A 
HETATM   13  C   UNL     1     -42.971  55.893 -58.937  1.00  0.00     0.043 A 
HETATM   14  C   UNL     1     -42.557  57.196 -59.184  1.00  0.00     0.116 A 
HETATM   15  C   UNL     1     -42.246  58.056 -58.139  1.00  0.00     0.043 A 
HETATM   16  F   UNL     1     -42.452  57.627 -60.448  1.00  0.00    -0.206 F 
HETATM   17  C   UNL     1     -42.354  57.603 -56.821  1.00  0.00     0.017 A 
ENDBRANCH   9  11
ENDBRANCH   1   5
BRANCH   2  18
HETATM   18  C   UNL     1     -41.443  55.482 -49.478  1.00  0.00     0.156 C 
BRANCH  18  19
HETATM   19  C   UNL     1     -40.403  54.456 -48.997  1.00  0.00     0.159 C 
BRANCH  19  20
HETATM   20  O   UNL     1     -40.615  54.170 -47.607  1.00  0.00    -0.392 OA
HETATM   21  H   UNL     1     -39.888  53.575 -47.347  1.00  0.00     0.210 HD
ENDBRANCH  19  20
BRANCH  19  22
HETATM   22  C   UNL     1     -40.503  53.144 -49.785  1.00  0.00     0.201 C 
BRANCH  22  23
HETATM   23  O   UNL     1     -39.945  53.192 -51.095  1.00  0.00    -0.383 OA
BRANCH  23  24
HETATM   24  C   UNL     1     -40.354  52.163 -52.005  1.00  0.00     0.121 C 
HETATM   25  C   UNL     1     -39.470  50.948 -51.694  1.00  0.00     0.032 C 
HETATM   26  C   UNL     1     -39.713  49.790 -52.653  1.00  0.00     0.002 C 
HETATM   27  C   UNL     1     -39.548  50.226 -54.105  1.00  0.00     0.000 C 
HETATM   28  C   UNL     1     -40.439  51.419 -54.431  1.00  0.00     0.002 C 
HETATM   29  C   UNL     1     -40.199  52.583 -53.471  1.00  0.00     0.032 C 
ENDBRANCH  23  24
ENDBRANCH  22  23
ENDBRANCH  19  22
ENDBRANCH  18  19
ENDBRANCH   2  18
TORSDOF 8
ENDMDL
MODEL 4
REMARK VINA RESULT:      -7.4      3.696      6.453
REMARK  8 active torsions:
REMARK  status: ('A' for Active; 'I' for Inactive)
REMARK    1  A    between atoms: C_2  and  C_3 
REMARK    2  A    between atoms: C_7  and  C_8 
REMARK       I    between atoms: C_8  and  N_9 
REMARK    3  A    between atoms: N_9  and  C_10 
REMARK    4  A    between atoms: C_10  and  C_11 
REMARK    5  A    between atoms: C_11  and  O_12 
REMARK    6  A    between atoms: C_11  and  C_13 
REMARK    7  A    between atoms: C_13  and  O_14 
REMARK    8  A    between atoms: O_14  and  C_15 
ROOT
HETATM    1  C   UNL     1     -42.579  57.225 -56.402  1.00  0.00     0.269 C 
HETATM    2  N   UNL     1     -42.120  56.988 -57.676  1.00  0.00    -0.353 N 
HETATM    3  O   UNL     1     -43.077  58.295 -56.070  1.00  0.00    -0.266 OA
HETATM    4  H   UNL     1     -41.716  56.093 -57.906  1.00  0.00     0.162 HD
ENDROOT
BRANCH   1   5
HETATM    5  C   UNL     1     -42.397  56.140 -55.477  1.00  0.00     0.120 A 
HETATM    6  N   UNL     1     -43.417  55.695 -54.682  1.00  0.00    -0.272 N 
HETATM    7  N   UNL     1     -43.073  54.707 -53.844  1.00  0.00    -0.174 NA
HETATM    8  H   UNL     1     -44.369  56.049 -54.660  1.00  0.00     0.189 HD
HETATM    9  C   UNL     1     -41.787  54.454 -54.128  1.00  0.00     0.089 A 
HETATM   10  C   UNL     1     -41.324  55.336 -55.145  1.00  0.00     0.071 A 
BRANCH   9  11
HETATM   11  C   UNL     1     -41.035  53.405 -53.433  1.00  0.00    -0.005 A 
HETATM   12  C   UNL     1     -40.479  52.326 -54.137  1.00  0.00     0.017 A 
HETATM   13  C   UNL     1     -39.759  51.335 -53.463  1.00  0.00     0.043 A 
HETATM   14  C   UNL     1     -39.591  51.421 -52.087  1.00  0.00     0.116 A 
HETATM   15  C   UNL     1     -40.134  52.478 -51.368  1.00  0.00     0.043 A 
HETATM   16  F   UNL     1     -38.899  50.472 -51.445  1.00  0.00    -0.206 F 
HETATM   17  C   UNL     1     -40.858  53.467 -52.040  1.00  0.00     0.017 A 
ENDBRANCH   9  11
ENDBRANCH   1   5
BRANCH   2  18
HETATM   18  C   UNL     1     -42.243  57.970 -58.747  1.00  0.00     0.156 C 
BRANCH  18  19
HETATM   19  C   UNL     1     -42.350  57.320 -60.137  1.00  0.00     0.159 C 
BRANCH  19  20
HETATM   20  O   UNL     1     -41.250  56.419 -60.333  1.00  0.00    -0.392 OA
HETATM   21  H   UNL     1     -40.981  56.530 -61.264  1.00  0.00     0.210 HD
ENDBRANCH  19  20
BRANCH  19  22
HETATM   22  C   UNL     1     -43.657  56.532 -60.290  1.00  0.00     0.201 C 
BRANCH  22  23
HETATM   23  O   UNL     1     -44.548  56.637 -59.184  1.00  0.00    -0.383 OA
BRANCH  23  24
HETATM   24  C   UNL     1     -45.892  57.038 -59.477  1.00  0.00     0.121 C 
HETATM   25  C   UNL     1     -46.342  56.174 -60.662  1.00  0.00     0.032 C 
HETATM   26  C   UNL     1     -47.728  56.552 -61.167  1.00  0.00     0.002 C 
HETATM   27  C   UNL     1     -47.810  58.034 -61.513  1.00  0.00     0.000 C 
HETATM   28  C   UNL     1     -47.385  58.903 -60.334  1.00  0.00     0.002 C 
HETATM   29  C   UNL     1     -45.996  58.527 -59.825  1.00  0.00     0.032 C 
ENDBRANCH  23  24
ENDBRANCH  22  23
ENDBRANCH  19  22
ENDBRANCH  18  19
ENDBRANCH   2  18
TORSDOF 8
ENDMDL
MODEL 5
REMARK VINA RESULT:      -7.4      2.234      3.131
REMARK  8 active torsions:
REMARK  status: ('A' for Active; 'I' for Inactive)
REMARK    1  A    between atoms: C_2  and  C_3 
REMARK    2  A    between atoms: C_7  and  C_8 
REMARK       I    between atoms: C_8  and  N_9 
REMARK    3  A    between atoms: N_9  and  C_10 
REMARK    4  A    between atoms: C_10  and  C_11 
REMARK    5  A    between atoms: C_11  and  O_12 
REMARK    6  A    between atoms: C_11  and  C_13 
REMARK    7  A    between atoms: C_13  and  O_14 
REMARK    8  A    between atoms: O_14  and  C_15 
ROOT
HETATM    1  C   UNL     1     -42.833  56.376 -57.170  1.00  0.00     0.269 C 
HETATM    2  N   UNL     1     -42.049  57.504 -57.112  1.00  0.00    -0.353 N 
HETATM    3  O   UNL     1     -43.685  56.212 -58.036  1.00  0.00    -0.266 OA
HETATM    4  H   UNL     1     -41.359  57.599 -56.382  1.00  0.00     0.162 HD
ENDROOT
BRANCH   1   5
HETATM    5  C   UNL     1     -42.609  55.423 -56.118  1.00  0.00     0.120 A 
HETATM    6  N   UNL     1     -43.636  54.948 -55.350  1.00  0.00    -0.272 N 
HETATM    7  N   UNL     1     -43.255  54.099 -54.385  1.00  0.00    -0.174 NA
HETATM    8  H   UNL     1     -44.619  55.189 -55.433  1.00  0.00     0.189 HD
HETATM    9  C   UNL     1     -41.930  53.969 -54.550  1.00  0.00     0.089 A 
HETATM   10  C   UNL     1     -41.486  54.788 -55.626  1.00  0.00     0.071 A 
BRANCH   9  11
HETATM   11  C   UNL     1     -41.128  53.093 -53.691  1.00  0.00    -0.005 A 
HETATM   12  C   UNL     1     -40.479  51.964 -54.215  1.00  0.00     0.017 A 
HETATM   13  C   UNL     1     -39.711  51.139 -53.387  1.00  0.00     0.043 A 
HETATM   14  C   UNL     1     -39.589  51.442 -52.037  1.00  0.00     0.116 A 
HETATM   15  C   UNL     1     -40.224  52.552 -51.495  1.00  0.00     0.043 A 
HETATM   16  F   UNL     1     -38.852  50.652 -51.247  1.00  0.00    -0.206 F 
HETATM   17  C   UNL     1     -40.995  53.375 -52.321  1.00  0.00     0.017 A 
ENDBRANCH   9  11
ENDBRANCH   1   5
BRANCH   2  18
HETATM   18  C   UNL     1     -42.128  58.564 -58.111  1.00  0.00     0.156 C 
BRANCH  18  19
HETATM   19  C   UNL     1     -41.949  59.965 -57.502  1.00  0.00     0.159 C 
BRANCH  19  20
HETATM   20  O   UNL     1     -42.749  60.911 -58.226  1.00  0.00    -0.392 OA
HETATM   21  H   UNL     1     -42.183  61.695 -58.351  1.00  0.00     0.210 HD
ENDBRANCH  19  20
BRANCH  19  22
HETATM   22  C   UNL     1     -42.373  59.996 -56.028  1.00  0.00     0.201 C 
BRANCH  22  23
HETATM   23  O   UNL     1     -41.360  59.599 -55.108  1.00  0.00    -0.383 OA
BRANCH  23  24
HETATM   24  C   UNL     1     -41.804  59.099 -53.841  1.00  0.00     0.121 C 
HETATM   25  C   UNL     1     -40.924  57.879 -53.536  1.00  0.00     0.032 C 
HETATM   26  C   UNL     1     -41.340  57.165 -52.257  1.00  0.00     0.002 C 
HETATM   27  C   UNL     1     -42.814  56.778 -52.290  1.00  0.00     0.000 C 
HETATM   28  C   UNL     1     -43.699  57.987 -52.570  1.00  0.00     0.002 C 
HETATM   29  C   UNL     1     -43.285  58.707 -53.852  1.00  0.00     0.032 C 
ENDBRANCH  23  24
ENDBRANCH  22  23
ENDBRANCH  19  22
ENDBRANCH  18  19
ENDBRANCH   2  18
TORSDOF 8
ENDMDL
MODEL 6
REMARK VINA RESULT:      -7.4      1.475      2.028
REMARK  8 active torsions:
REMARK  status: ('A' for Active; 'I' for Inactive)
REMARK    1  A    between atoms: C_2  and  C_3 
REMARK    2  A    between atoms: C_7  and  C_8 
REMARK       I    between atoms: C_8  and  N_9 
REMARK    3  A    between atoms: N_9  and  C_10 
REMARK    4  A    between atoms: C_10  and  C_11 
REMARK    5  A    between atoms: C_11  and  O_12 
REMARK    6  A    between atoms: C_11  and  C_13 
REMARK    7  A    between atoms: C_13  and  O_14 
REMARK    8  A    between atoms: O_14  and  C_15 
ROOT
HETATM    1  C   UNL     1     -41.986  56.960 -55.206  1.00  0.00     0.269 C 
HETATM    2  N   UNL     1     -41.552  57.997 -54.415  1.00  0.00    -0.353 N 
HETATM    3  O   UNL     1     -42.814  57.114 -56.096  1.00  0.00    -0.266 OA
HETATM    4  H   UNL     1     -40.869  57.825 -53.692  1.00  0.00     0.162 HD
ENDROOT
BRANCH   1   5
HETATM    5  C   UNL     1     -41.429  55.674 -54.887  1.00  0.00     0.120 A 
HETATM    6  N   UNL     1     -40.931  54.847 -55.855  1.00  0.00    -0.272 N 
HETATM    7  N   UNL     1     -40.487  53.667 -55.399  1.00  0.00    -0.174 NA
HETATM    8  H   UNL     1     -40.887  55.036 -56.853  1.00  0.00     0.189 HD
HETATM    9  C   UNL     1     -40.653  53.734 -54.070  1.00  0.00     0.089 A 
HETATM   10  C   UNL     1     -41.247  54.976 -53.709  1.00  0.00     0.071 A 
BRANCH   9  11
HETATM   11  C   UNL     1     -40.262  52.630 -53.187  1.00  0.00    -0.005 A 
HETATM   12  C   UNL     1     -40.182  52.810 -51.797  1.00  0.00     0.017 A 
HETATM   13  C   UNL     1     -39.814  51.749 -50.965  1.00  0.00     0.043 A 
HETATM   14  C   UNL     1     -39.528  50.507 -51.519  1.00  0.00     0.116 A 
HETATM   15  C   UNL     1     -39.597  50.306 -52.891  1.00  0.00     0.043 A 
HETATM   16  F   UNL     1     -39.178  49.492 -50.719  1.00  0.00    -0.206 F 
HETATM   17  C   UNL     1     -39.961  51.367 -53.725  1.00  0.00     0.017 A 
ENDBRANCH   9  11
ENDBRANCH   1   5
BRANCH   2  18
HETATM   18  C   UNL     1     -41.998  59.371 -54.612  1.00  0.00     0.156 C 
BRANCH  18  19
HETATM   19  C   UNL     1     -41.924  60.208 -53.324  1.00  0.00     0.159 C 
BRANCH  19  20
HETATM   20  O   UNL     1     -42.663  61.426 -53.498  1.00  0.00    -0.392 OA
HETATM   21  H   UNL     1     -43.528  61.273 -53.073  1.00  0.00     0.210 HD
ENDBRANCH  19  20
BRANCH  19  22
HETATM   22  C   UNL     1     -42.511  59.450 -52.127  1.00  0.00     0.201 C 
BRANCH  22  23
HETATM   23  O   UNL     1     -41.634  58.493 -51.540  1.00  0.00    -0.383 OA
BRANCH  23  24
HETATM   24  C   UNL     1     -42.239  57.485 -50.722  1.00  0.00     0.121 C 
HETATM   25  C   UNL     1     -41.119  56.494 -50.375  1.00  0.00     0.032 C 
HETATM   26  C   UNL     1     -41.625  55.295 -49.585  1.00  0.00     0.002 C 
HETATM   27  C   UNL     1     -42.768  54.592 -50.310  1.00  0.00     0.000 C 
HETATM   28  C   UNL     1     -43.896  55.563 -50.641  1.00  0.00     0.002 C 
HETATM   29  C   UNL     1     -43.392  56.768 -51.432  1.00  0.00     0.032 C 
ENDBRANCH  23  24
ENDBRANCH  22  23
ENDBRANCH  19  22
ENDBRANCH  18  19
ENDBRANCH   2  18
TORSDOF 8
ENDMDL
MODEL 7
REMARK VINA RESULT:      -7.3      2.599      5.009
REMARK  8 active torsions:
REMARK  status: ('A' for Active; 'I' for Inactive)
REMARK    1  A    between atoms: C_2  and  C_3 
REMARK    2  A    between atoms: C_7  and  C_8 
REMARK       I    between atoms: C_8  and  N_9 
REMARK    3  A    between atoms: N_9  and  C_10 
REMARK    4  A    between atoms: C_10  and  C_11 
REMARK    5  A    between atoms: C_11  and  O_12 
REMARK    6  A    between atoms: C_11  and  C_13 
REMARK    7  A    between atoms: C_13  and  O_14 
REMARK    8  A    between atoms: O_14  and  C_15 
ROOT
HETATM    1  C   UNL     1     -42.025  57.286 -53.681  1.00  0.00     0.269 C 
HETATM    2  N   UNL     1     -41.709  58.216 -54.643  1.00  0.00    -0.353 N 
HETATM    3  O   UNL     1     -42.714  57.557 -52.704  1.00  0.00    -0.266 OA
HETATM    4  H   UNL     1     -41.138  57.950 -55.431  1.00  0.00     0.162 HD
ENDROOT
BRANCH   1   5
HETATM    5  C   UNL     1     -41.455  55.982 -53.883  1.00  0.00     0.120 A 
HETATM    6  N   UNL     1     -40.907  55.616 -55.082  1.00  0.00    -0.272 N 
HETATM    7  N   UNL     1     -40.458  54.354 -55.121  1.00  0.00    -0.174 NA
HETATM    8  H   UNL     1     -40.833  56.190 -55.917  1.00  0.00     0.189 HD
HETATM    9  C   UNL     1     -40.672  53.879 -53.885  1.00  0.00     0.089 A 
HETATM   10  C   UNL     1     -41.301  54.870 -53.079  1.00  0.00     0.071 A 
BRANCH   9  11
HETATM   11  C   UNL     1     -40.292  52.516 -53.505  1.00  0.00    -0.005 A 
HETATM   12  C   UNL     1     -39.852  52.223 -52.205  1.00  0.00     0.017 A 
HETATM   13  C   UNL     1     -39.497  50.917 -51.853  1.00  0.00     0.043 A 
HETATM   14  C   UNL     1     -39.585  49.902 -52.797  1.00  0.00     0.116 A 
HETATM   15  C   UNL     1     -40.015  50.167 -54.091  1.00  0.00     0.043 A 
HETATM   16  F   UNL     1     -39.247  48.652 -52.457  1.00  0.00    -0.206 F 
HETATM   17  C   UNL     1     -40.365  51.473 -54.445  1.00  0.00     0.017 A 
ENDBRANCH   9  11
ENDBRANCH   1   5
BRANCH   2  18
HETATM   18  C   UNL     1     -42.219  59.582 -54.607  1.00  0.00     0.156 C 
BRANCH  18  19
HETATM   19  C   UNL     1     -42.543  60.130 -56.007  1.00  0.00     0.159 C 
BRANCH  19  20
HETATM   20  O   UNL     1     -41.334  60.569 -56.645  1.00  0.00    -0.392 OA
HETATM   21  H   UNL     1     -41.567  61.392 -57.113  1.00  0.00     0.210 HD
ENDBRANCH  19  20
BRANCH  19  22
HETATM   22  C   UNL     1     -43.198  59.061 -56.891  1.00  0.00     0.201 C 
BRANCH  22  23
HETATM   23  O   UNL     1     -42.300  58.084 -57.408  1.00  0.00    -0.383 OA
BRANCH  23  24
HETATM   24  C   UNL     1     -42.761  57.317 -58.527  1.00  0.00     0.121 C 
HETATM   25  C   UNL     1     -43.995  58.053 -59.065  1.00  0.00     0.032 C 
HETATM   26  C   UNL     1     -44.670  57.303 -60.206  1.00  0.00     0.002 C 
HETATM   27  C   UNL     1     -45.021  55.875 -59.803  1.00  0.00     0.000 C 
HETATM   28  C   UNL     1     -43.796  55.127 -59.287  1.00  0.00     0.002 C 
HETATM   29  C   UNL     1     -43.116  55.876 -58.144  1.00  0.00     0.032 C 
ENDBRANCH  23  24
ENDBRANCH  22  23
ENDBRANCH  19  22
ENDBRANCH  18  19
ENDBRANCH   2  18
TORSDOF 8
ENDMDL
MODEL 8
REMARK VINA RESULT:      -7.3      2.273      3.939
REMARK  8 active torsions:
REMARK  status: ('A' for Active; 'I' for Inactive)
REMARK    1  A    between atoms: C_2  and  C_3 
REMARK    2  A    between atoms: C_7  and  C_8 
REMARK       I    between atoms: C_8  and  N_9 
REMARK    3  A    between atoms: N_9  and  C_10 
REMARK    4  A    between atoms: C_10  and  C_11 
REMARK    5  A    between atoms: C_11  and  O_12 
REMARK    6  A    between atoms: C_11  and  C_13 
REMARK    7  A    between atoms: C_13  and  O_14 
REMARK    8  A    between atoms: O_14  and  C_15 
ROOT
HETATM    1  C   UNL     1     -41.686  57.394 -50.740  1.00  0.00     0.269 C 
HETATM    2  N   UNL     1     -42.939  57.698 -51.218  1.00  0.00    -0.353 N 
HETATM    3  O   UNL     1     -40.931  58.246 -50.286  1.00  0.00    -0.266 OA
HETATM    4  H   UNL     1     -43.528  56.965 -51.584  1.00  0.00     0.162 HD
ENDROOT
BRANCH   1   5
HETATM    5  C   UNL     1     -41.310  56.011 -50.850  1.00  0.00     0.120 A 
HETATM    6  N   UNL     1     -41.171  55.216 -49.746  1.00  0.00    -0.272 N 
HETATM    7  N   UNL     1     -40.774  53.964 -50.015  1.00  0.00    -0.174 NA
HETATM    8  H   UNL     1     -41.319  55.487 -48.778  1.00  0.00     0.189 HD
HETATM    9  C   UNL     1     -40.694  53.913 -51.353  1.00  0.00     0.089 A 
HETATM   10  C   UNL     1     -41.018  55.181 -51.914  1.00  0.00     0.071 A 
BRANCH   9  11
HETATM   11  C   UNL     1     -40.306  52.687 -52.057  1.00  0.00    -0.005 A 
HETATM   12  C   UNL     1     -39.823  51.572 -51.354  1.00  0.00     0.017 A 
HETATM   13  C   UNL     1     -39.462  50.406 -52.035  1.00  0.00     0.043 A 
HETATM   14  C   UNL     1     -39.585  50.351 -53.418  1.00  0.00     0.116 A 
HETATM   15  C   UNL     1     -40.057  51.442 -54.136  1.00  0.00     0.043 A 
HETATM   16  F   UNL     1     -39.240  49.232 -54.068  1.00  0.00    -0.206 F 
HETATM   17  C   UNL     1     -40.414  52.610 -53.455  1.00  0.00     0.017 A 
ENDBRANCH   9  11
ENDBRANCH   1   5
BRANCH   2  18
HETATM   18  C   UNL     1     -43.491  59.047 -51.166  1.00  0.00     0.156 C 
BRANCH  18  19
HETATM   19  C   UNL     1     -43.164  59.869 -52.424  1.00  0.00     0.159 C 
BRANCH  19  20
HETATM   20  O   UNL     1     -41.862  60.457 -52.291  1.00  0.00    -0.392 OA
HETATM   21  H   UNL     1     -41.389  60.240 -53.115  1.00  0.00     0.210 HD
ENDBRANCH  19  20
BRANCH  19  22
HETATM   22  C   UNL     1     -43.177  58.995 -53.684  1.00  0.00     0.201 C 
BRANCH  22  23
HETATM   23  O   UNL     1     -44.241  58.050 -53.743  1.00  0.00    -0.383 OA
BRANCH  23  24
HETATM   24  C   UNL     1     -44.107  56.990 -54.698  1.00  0.00     0.121 C 
HETATM   25  C   UNL     1     -43.817  55.722 -53.885  1.00  0.00     0.032 C 
HETATM   26  C   UNL     1     -43.545  54.512 -54.768  1.00  0.00     0.002 C 
HETATM   27  C   UNL     1     -42.422  54.789 -55.762  1.00  0.00     0.000 C 
HETATM   28  C   UNL     1     -42.711  56.036 -56.591  1.00  0.00     0.002 C 
HETATM   29  C   UNL     1     -42.985  57.251 -55.709  1.00  0.00     0.032 C 
ENDBRANCH  23  24
ENDBRANCH  22  23
ENDBRANCH  19  22
ENDBRANCH  18  19
ENDBRANCH   2  18
TORSDOF 8
ENDMDL
MODEL 9
REMARK VINA RESULT:      -7.2      4.199      6.469
REMARK  8 active torsions:
REMARK  status: ('A' for Active; 'I' for Inactive)
REMARK    1  A    between atoms: C_2  and  C_3 
REMARK    2  A    between atoms: C_7  and  C_8 
REMARK       I    between atoms: C_8  and  N_9 
REMARK    3  A    between atoms: N_9  and  C_10 
REMARK    4  A    between atoms: C_10  and  C_11 
REMARK    5  A    between atoms: C_11  and  O_12 
REMARK    6  A    between atoms: C_11  and  C_13 
REMARK    7  A    between atoms: C_13  and  O_14 
REMARK    8  A    between atoms: O_14  and  C_15 
ROOT
HETATM    1  C   UNL     1     -42.224  56.645 -56.226  1.00  0.00     0.269 C 
HETATM    2  N   UNL     1     -42.380  56.178 -57.509  1.00  0.00    -0.353 N 
HETATM    3  O   UNL     1     -42.455  57.808 -55.917  1.00  0.00    -0.266 OA
HETATM    4  H   UNL     1     -42.178  55.212 -57.720  1.00  0.00     0.162 HD
ENDROOT
BRANCH   1   5
HETATM    5  C   UNL     1     -41.730  55.681 -55.281  1.00  0.00     0.120 A 
HETATM    6  N   UNL     1     -41.486  56.013 -53.978  1.00  0.00    -0.272 N 
HETATM    7  N   UNL     1     -40.988  55.013 -53.237  1.00  0.00    -0.174 NA
HETATM    8  H   UNL     1     -41.625  56.922 -53.545  1.00  0.00     0.189 HD
HETATM    9  C   UNL     1     -40.946  53.962 -54.071  1.00  0.00     0.089 A 
HETATM   10  C   UNL     1     -41.400  54.343 -55.365  1.00  0.00     0.071 A 
BRANCH   9  11
HETATM   11  C   UNL     1     -40.474  52.647 -53.630  1.00  0.00    -0.005 A 
HETATM   12  C   UNL     1     -39.968  52.457 -52.334  1.00  0.00     0.017 A 
HETATM   13  C   UNL     1     -39.526  51.195 -51.923  1.00  0.00     0.043 A 
HETATM   14  C   UNL     1     -39.591  50.123 -52.804  1.00  0.00     0.116 A 
HETATM   15  C   UNL     1     -40.085  50.286 -54.091  1.00  0.00     0.043 A 
HETATM   16  F   UNL     1     -39.169  48.916 -52.407  1.00  0.00    -0.206 F 
HETATM   17  C   UNL     1     -40.523  51.548 -54.505  1.00  0.00     0.017 A 
ENDBRANCH   9  11
ENDBRANCH   1   5
BRANCH   2  18
HETATM   18  C   UNL     1     -42.891  57.013 -58.590  1.00  0.00     0.156 C 
BRANCH  18  19
HETATM   19  C   UNL     1     -41.769  57.644 -59.432  1.00  0.00     0.159 C 
BRANCH  19  20
HETATM   20  O   UNL     1     -41.313  56.699 -60.411  1.00  0.00    -0.392 OA
HETATM   21  H   UNL     1     -40.672  56.128 -59.949  1.00  0.00     0.210 HD
ENDBRANCH  19  20
BRANCH  19  22
HETATM   22  C   UNL     1     -42.254  58.904 -60.160  1.00  0.00     0.201 C 
BRANCH  22  23
HETATM   23  O   UNL     1     -42.752  59.930 -59.307  1.00  0.00    -0.383 OA
BRANCH  23  24
HETATM   24  C   UNL     1     -42.163  61.228 -59.452  1.00  0.00     0.121 C 
HETATM   25  C   UNL     1     -41.565  61.266 -60.865  1.00  0.00     0.032 C 
HETATM   26  C   UNL     1     -40.805  62.556 -61.143  1.00  0.00     0.002 C 
HETATM   27  C   UNL     1     -39.730  62.806 -60.091  1.00  0.00     0.000 C 
HETATM   28  C   UNL     1     -40.317  62.793 -58.684  1.00  0.00     0.002 C 
HETATM   29  C   UNL     1     -41.081  61.501 -58.401  1.00  0.00     0.032 C 
ENDBRANCH  23  24
ENDBRANCH  22  23
ENDBRANCH  19  22
ENDBRANCH  18  19
ENDBRANCH   2  18
TORSDOF 8
ENDMDL
MODEL 10
REMARK VINA RESULT:      -7.1      1.931      2.888
REMARK  8 active torsions:
REMARK  status: ('A' for Active; 'I' for Inactive)
REMARK    1  A    between atoms: C_2  and  C_3 
REMARK    2  A    between atoms: C_7  and  C_8 
REMARK       I    between atoms: C_8  and  N_9 
REMARK    3  A    between atoms: N_9  and  C_10 
REMARK    4  A    between atoms: C_10  and  C_11 
REMARK    5  A    between atoms: C_11  and  O_12 
REMARK    6  A    between atoms: C_11  and  C_13 
REMARK    7  A    between atoms: C_13  and  O_14 
REMARK    8  A    between atoms: O_14  and  C_15 
ROOT
HETATM    1  C   UNL     1     -43.210  56.769 -56.701  1.00  0.00     0.269 C 
HETATM    2  N   UNL     1     -44.418  57.401 -56.525  1.00  0.00    -0.353 N 
HETATM    3  O   UNL     1     -42.465  57.025 -57.640  1.00  0.00    -0.266 OA
HETATM    4  H   UNL     1     -45.002  57.160 -55.738  1.00  0.00     0.162 HD
ENDROOT
BRANCH   1   5
HETATM    5  C   UNL     1     -42.904  55.757 -55.727  1.00  0.00     0.120 A 
HETATM    6  N   UNL     1     -43.869  55.223 -54.919  1.00  0.00    -0.272 N 
HETATM    7  N   UNL     1     -43.413  54.323 -54.036  1.00  0.00    -0.174 NA
HETATM    8  H   UNL     1     -44.858  55.455 -54.918  1.00  0.00     0.189 HD
HETATM    9  C   UNL     1     -42.103  54.221 -54.302  1.00  0.00     0.089 A 
HETATM   10  C   UNL     1     -41.743  55.109 -55.355  1.00  0.00     0.071 A 
BRANCH   9  11
HETATM   11  C   UNL     1     -41.233  53.306 -53.557  1.00  0.00    -0.005 A 
HETATM   12  C   UNL     1     -40.965  53.514 -52.194  1.00  0.00     0.017 A 
HETATM   13  C   UNL     1     -40.139  52.631 -51.492  1.00  0.00     0.043 A 
HETATM   14  C   UNL     1     -39.582  51.539 -52.147  1.00  0.00     0.116 A 
HETATM   15  C   UNL     1     -39.831  51.315 -53.495  1.00  0.00     0.043 A 
HETATM   16  F   UNL     1     -38.794  50.695 -51.471  1.00  0.00    -0.206 F 
HETATM   17  C   UNL     1     -40.653  52.199 -54.199  1.00  0.00     0.017 A 
ENDBRANCH   9  11
ENDBRANCH   1   5
BRANCH   2  18
HETATM   18  C   UNL     1     -44.879  58.468 -57.406  1.00  0.00     0.156 C 
BRANCH  18  19
HETATM   19  C   UNL     1     -45.253  59.749 -56.641  1.00  0.00     0.159 C 
BRANCH  19  20
HETATM   20  O   UNL     1     -46.679  59.913 -56.643  1.00  0.00    -0.392 OA
HETATM   21  H   UNL     1     -46.834  60.875 -56.621  1.00  0.00     0.210 HD
ENDBRANCH  19  20
BRANCH  19  22
HETATM   22  C   UNL     1     -44.772  59.694 -55.186  1.00  0.00     0.201 C 
BRANCH  22  23
HETATM   23  O   UNL     1     -43.371  59.885 -55.014  1.00  0.00    -0.383 OA
BRANCH  23  24
HETATM   24  C   UNL     1     -42.808  59.437 -53.775  1.00  0.00     0.121 C 
HETATM   25  C   UNL     1     -41.394  58.943 -54.107  1.00  0.00     0.032 C 
HETATM   26  C   UNL     1     -40.690  58.333 -52.902  1.00  0.00     0.002 C 
HETATM   27  C   UNL     1     -41.522  57.219 -52.278  1.00  0.00     0.000 C 
HETATM   28  C   UNL     1     -42.924  57.704 -51.923  1.00  0.00     0.002 C 
HETATM   29  C   UNL     1     -43.632  58.317 -53.129  1.00  0.00     0.032 C 
ENDBRANCH  23  24
ENDBRANCH  22  23
ENDBRANCH  19  22
ENDBRANCH  18  19
ENDBRANCH   2  18
TORSDOF 8
ENDMDL
