MODEL 1
REMARK VINA RESULT:      -9.2      0.000      0.000
REMARK  7 active torsions:
REMARK  status: ('A' for Active; 'I' for Inactive)
REMARK    1  A    between atoms: C_3  and  C_4 
REMARK    2  A    between atoms: C_11  and  N_12 
REMARK       I    between atoms: N_12  and  C_13 
REMARK    3  A    between atoms: C_13  and  C_14 
REMARK    4  A    between atoms: C_21  and  C_22 
REMARK       I    between atoms: C_22  and  N_23 
REMARK    5  A    between atoms: N_23  and  C_24 
REMARK    6  A    between atoms: C_24  and  C_25 
REMARK    7  A    between atoms: C_25  and  C_26 
ROOT
HETATM    1  C   UNL     1     -39.989  54.052 -55.453  1.00  0.00     0.158 C 
HETATM    2  N   UNL     1     -40.855  53.897 -54.310  1.00  0.00    -0.335 N 
HETATM    3  C   UNL     1     -40.670  52.927 -53.348  1.00  0.00     0.111 A 
HETATM    4  N   UNL     1     -41.384  53.182 -52.275  1.00  0.00    -0.233 NA
HETATM    5  C   UNL     1     -42.084  54.320 -52.567  1.00  0.00     0.089 A 
HETATM    6  C   UNL     1     -41.839  54.764 -53.872  1.00  0.00     0.091 A 
HETATM    7  C   UNL     1     -42.479  55.908 -54.385  1.00  0.00     0.065 A 
HETATM    8  C   UNL     1     -43.289  56.632 -53.490  1.00  0.00     0.049 A 
HETATM    9  C   UNL     1     -43.542  56.198 -52.185  1.00  0.00     0.036 A 
HETATM   10  C   UNL     1     -42.945  55.028 -51.714  1.00  0.00     0.051 A 
ENDROOT
BRANCH   9  11
HETATM   11  C   UNL     1     -44.446  57.028 -51.339  1.00  0.00     0.251 C 
HETATM   12  N   UNL     1     -44.668  58.330 -51.736  1.00  0.00    -0.357 N 
HETATM   13  H   UNL     1     -44.116  58.736 -52.480  1.00  0.00     0.162 HD
HETATM   14  O   UNL     1     -44.931  56.548 -50.319  1.00  0.00    -0.268 OA
BRANCH  12  15
HETATM   15  C   UNL     1     -45.492  59.220 -50.936  1.00  0.00     0.127 C 
BRANCH  15  16
HETATM   16  C   UNL     1     -44.710  60.432 -50.420  1.00  0.00     0.060 C 
BRANCH  16  17
HETATM   17  C   UNL     1     -45.589  61.420 -49.724  1.00  0.00    -0.029 A 
HETATM   18  C   UNL     1     -45.615  61.679 -48.315  1.00  0.00    -0.002 A 
HETATM   19  C   UNL     1     -46.568  62.671 -48.088  1.00  0.00     0.042 A 
HETATM   20  C   UNL     1     -44.912  61.154 -47.212  1.00  0.00     0.014 A 
HETATM   21  C   UNL     1     -46.852  63.170 -46.811  1.00  0.00     0.030 A 
HETATM   22  N   UNL     1     -47.103  63.003 -49.311  1.00  0.00    -0.365 N 
HETATM   23  C   UNL     1     -46.139  62.636 -45.733  1.00  0.00     0.002 A 
HETATM   24  C   UNL     1     -45.183  61.641 -45.928  1.00  0.00     0.001 A 
HETATM   25  H   UNL     1     -47.822  63.699 -49.449  1.00  0.00     0.165 HD
HETATM   26  C   UNL     1     -46.523  62.257 -50.302  1.00  0.00     0.096 A 
ENDBRANCH  16  17
ENDBRANCH  15  16
ENDBRANCH  12  15
ENDBRANCH   9  11
BRANCH   7  27
HETATM   27  N   UNL     1     -42.396  56.419 -55.690  1.00  0.00    -0.323 N 
HETATM   28  C   UNL     1     -42.887  55.812 -56.836  1.00  0.00     0.251 C 
HETATM   29  O   UNL     1     -43.329  54.671 -56.923  1.00  0.00    -0.270 OA
HETATM   30  H   UNL     1     -42.375  57.435 -55.785  1.00  0.00     0.169 HD
BRANCH  28  31
HETATM   31  C   UNL     1     -42.804  56.767 -58.044  1.00  0.00     0.213 C 
HETATM   32  O   UNL     1     -43.924  57.680 -58.019  1.00  0.00    -0.376 OA
HETATM   33  C   UNL     1     -44.807  57.306 -59.082  1.00  0.00     0.168 C 
HETATM   34  C   UNL     1     -43.910  56.763 -60.165  1.00  0.00     0.029 C 
HETATM   35  C   UNL     1     -42.845  56.033 -59.379  1.00  0.00     0.044 C 
ENDBRANCH  28  31
ENDBRANCH   7  27
BRANCH   3  36
HETATM   36  C   UNL     1     -39.711  51.746 -53.451  1.00  0.00     0.056 C 
HETATM   37  C   UNL     1     -39.700  50.861 -52.165  1.00  0.00     0.012 C 
HETATM   38  C   UNL     1     -39.568  49.639 -53.091  1.00  0.00     0.002 C 
HETATM   39  C   UNL     1     -40.282  50.484 -54.163  1.00  0.00     0.012 C 
ENDBRANCH   3  36
TORSDOF 7
ENDMDL
MODEL 2
REMARK VINA RESULT:      -9.2      2.475      8.856
REMARK  7 active torsions:
REMARK  status: ('A' for Active; 'I' for Inactive)
REMARK    1  A    between atoms: C_3  and  C_4 
REMARK    2  A    between atoms: C_11  and  N_12 
REMARK       I    between atoms: N_12  and  C_13 
REMARK    3  A    between atoms: C_13  and  C_14 
REMARK    4  A    between atoms: C_21  and  C_22 
REMARK       I    between atoms: C_22  and  N_23 
REMARK    5  A    between atoms: N_23  and  C_24 
REMARK    6  A    between atoms: C_24  and  C_25 
REMARK    7  A    between atoms: C_25  and  C_26 
ROOT
HETATM    1  C   UNL     1     -43.556  56.366 -51.026  1.00  0.00     0.158 C 
HETATM    2  N   UNL     1     -43.488  56.475 -52.463  1.00  0.00    -0.335 N 
HETATM    3  C   UNL     1     -43.054  55.452 -53.278  1.00  0.00     0.111 A 
HETATM    4  N   UNL     1     -43.372  55.678 -54.532  1.00  0.00    -0.233 NA
HETATM    5  C   UNL     1     -43.987  56.900 -54.536  1.00  0.00     0.089 A 
HETATM    6  C   UNL     1     -44.014  57.475 -53.260  1.00  0.00     0.091 A 
HETATM    7  C   UNL     1     -44.581  58.745 -53.045  1.00  0.00     0.065 A 
HETATM    8  C   UNL     1     -45.205  59.353 -54.150  1.00  0.00     0.049 A 
HETATM    9  C   UNL     1     -45.184  58.788 -55.430  1.00  0.00     0.036 A 
HETATM   10  C   UNL     1     -44.564  57.556 -55.635  1.00  0.00     0.051 A 
ENDROOT
BRANCH   9  11
HETATM   11  C   UNL     1     -45.847  59.540 -56.533  1.00  0.00     0.251 C 
HETATM   12  N   UNL     1     -46.887  58.916 -57.190  1.00  0.00    -0.357 N 
HETATM   13  H   UNL     1     -47.078  57.937 -57.026  1.00  0.00     0.162 HD
HETATM   14  O   UNL     1     -45.436  60.655 -56.838  1.00  0.00    -0.268 OA
BRANCH  12  15
HETATM   15  C   UNL     1     -47.548  59.560 -58.313  1.00  0.00     0.127 C 
BRANCH  15  16
HETATM   16  C   UNL     1     -46.862  59.254 -59.647  1.00  0.00     0.060 C 
BRANCH  16  17
HETATM   17  C   UNL     1     -46.374  57.843 -59.723  1.00  0.00    -0.029 A 
HETATM   18  C   UNL     1     -45.007  57.419 -59.648  1.00  0.00    -0.002 A 
HETATM   19  C   UNL     1     -44.992  56.029 -59.755  1.00  0.00     0.042 A 
HETATM   20  C   UNL     1     -43.780  58.097 -59.500  1.00  0.00     0.014 A 
HETATM   21  C   UNL     1     -43.811  55.279 -59.717  1.00  0.00     0.030 A 
HETATM   22  N   UNL     1     -46.300  55.622 -59.892  1.00  0.00    -0.365 N 
HETATM   23  C   UNL     1     -42.607  55.974 -59.566  1.00  0.00     0.002 A 
HETATM   24  C   UNL     1     -42.589  57.363 -59.460  1.00  0.00     0.001 A 
HETATM   25  H   UNL     1     -46.590  54.659 -59.991  1.00  0.00     0.165 HD
HETATM   26  C   UNL     1     -47.139  56.704 -59.876  1.00  0.00     0.096 A 
ENDBRANCH  16  17
ENDBRANCH  15  16
ENDBRANCH  12  15
ENDBRANCH   9  11
BRANCH   7  27
HETATM   27  N   UNL     1     -44.604  59.478 -51.847  1.00  0.00    -0.323 N 
HETATM   28  C   UNL     1     -45.536  59.346 -50.829  1.00  0.00     0.251 C 
HETATM   29  O   UNL     1     -46.571  58.690 -50.870  1.00  0.00    -0.270 OA
HETATM   30  H   UNL     1     -43.705  59.805 -51.492  1.00  0.00     0.169 HD
BRANCH  28  31
HETATM   31  C   UNL     1     -45.114  60.158 -49.588  1.00  0.00     0.213 C 
HETATM   32  O   UNL     1     -46.218  60.980 -49.146  1.00  0.00    -0.376 OA
HETATM   33  C   UNL     1     -45.895  62.339 -49.458  1.00  0.00     0.168 C 
HETATM   34  C   UNL     1     -44.395  62.425 -49.328  1.00  0.00     0.029 C 
HETATM   35  C   UNL     1     -43.938  61.088 -49.863  1.00  0.00     0.044 C 
ENDBRANCH  28  31
ENDBRANCH   7  27
BRANCH   3  36
HETATM   36  C   UNL     1     -42.364  54.175 -52.810  1.00  0.00     0.056 C 
HETATM   37  C   UNL     1     -41.753  53.350 -53.985  1.00  0.00     0.012 C 
HETATM   38  C   UNL     1     -40.573  53.026 -53.054  1.00  0.00     0.002 C 
HETATM   39  C   UNL     1     -40.892  54.350 -52.334  1.00  0.00     0.012 C 
ENDBRANCH   3  36
TORSDOF 7
ENDMDL
MODEL 3
REMARK VINA RESULT:      -9.0      2.715      9.744
REMARK  7 active torsions:
REMARK  status: ('A' for Active; 'I' for Inactive)
REMARK    1  A    between atoms: C_3  and  C_4 
REMARK    2  A    between atoms: C_11  and  N_12 
REMARK       I    between atoms: N_12  and  C_13 
REMARK    3  A    between atoms: C_13  and  C_14 
REMARK    4  A    between atoms: C_21  and  C_22 
REMARK       I    between atoms: C_22  and  N_23 
REMARK    5  A    between atoms: N_23  and  C_24 
REMARK    6  A    between atoms: C_24  and  C_25 
REMARK    7  A    between atoms: C_25  and  C_26 
ROOT
HETATM    1  C   UNL     1     -45.105  60.607 -54.280  1.00  0.00     0.158 C 
HETATM    2  N   UNL     1     -45.031  59.171 -54.397  1.00  0.00    -0.335 N 
HETATM    3  C   UNL     1     -45.183  58.501 -55.593  1.00  0.00     0.111 A 
HETATM    4  N   UNL     1     -44.773  57.257 -55.495  1.00  0.00    -0.233 NA
HETATM    5  C   UNL     1     -44.388  57.104 -54.191  1.00  0.00     0.089 A 
HETATM    6  C   UNL     1     -44.606  58.266 -53.442  1.00  0.00     0.091 A 
HETATM    7  C   UNL     1     -44.302  58.315 -52.068  1.00  0.00     0.065 A 
HETATM    8  C   UNL     1     -43.677  57.180 -51.520  1.00  0.00     0.049 A 
HETATM    9  C   UNL     1     -43.454  56.013 -52.258  1.00  0.00     0.036 A 
HETATM   10  C   UNL     1     -43.819  55.963 -53.604  1.00  0.00     0.051 A 
ENDROOT
BRANCH   9  11
HETATM   11  C   UNL     1     -42.817  54.860 -51.561  1.00  0.00     0.251 C 
HETATM   12  N   UNL     1     -42.083  55.132 -50.426  1.00  0.00    -0.357 N 
HETATM   13  H   UNL     1     -41.867  56.088 -50.177  1.00  0.00     0.162 HD
HETATM   14  O   UNL     1     -42.936  53.731 -52.027  1.00  0.00    -0.268 OA
BRANCH  12  15
HETATM   15  C   UNL     1     -41.385  54.070 -49.721  1.00  0.00     0.127 C 
BRANCH  15  16
HETATM   16  C   UNL     1     -40.051  53.711 -50.382  1.00  0.00     0.060 C 
BRANCH  16  17
HETATM   17  C   UNL     1     -39.984  52.272 -50.781  1.00  0.00    -0.029 A 
HETATM   18  C   UNL     1     -39.918  51.771 -52.122  1.00  0.00    -0.002 A 
HETATM   19  C   UNL     1     -39.865  50.380 -52.048  1.00  0.00     0.042 A 
HETATM   20  C   UNL     1     -39.901  52.380 -53.393  1.00  0.00     0.014 A 
HETATM   21  C   UNL     1     -39.790  49.564 -53.183  1.00  0.00     0.030 A 
HETATM   22  N   UNL     1     -39.899  50.046 -50.714  1.00  0.00    -0.365 N 
HETATM   23  C   UNL     1     -39.771  50.192 -54.433  1.00  0.00     0.002 A 
HETATM   24  C   UNL     1     -39.827  51.580 -54.539  1.00  0.00     0.001 A 
HETATM   25  H   UNL     1     -39.874  49.099 -50.362  1.00  0.00     0.165 HD
HETATM   26  C   UNL     1     -39.972  51.175 -49.942  1.00  0.00     0.096 A 
ENDBRANCH  16  17
ENDBRANCH  15  16
ENDBRANCH  12  15
ENDBRANCH   9  11
BRANCH   7  27
HETATM   27  N   UNL     1     -44.543  59.375 -51.178  1.00  0.00    -0.323 N 
HETATM   28  C   UNL     1     -45.619  59.481 -50.311  1.00  0.00     0.251 C 
HETATM   29  O   UNL     1     -46.610  58.759 -50.287  1.00  0.00    -0.270 OA
HETATM   30  H   UNL     1     -43.725  59.870 -50.823  1.00  0.00     0.169 HD
BRANCH  28  31
HETATM   31  C   UNL     1     -45.431  60.667 -49.343  1.00  0.00     0.213 C 
HETATM   32  O   UNL     1     -46.410  61.691 -49.633  1.00  0.00    -0.376 OA
HETATM   33  C   UNL     1     -45.717  62.790 -50.233  1.00  0.00     0.168 C 
HETATM   34  C   UNL     1     -44.349  62.785 -49.600  1.00  0.00     0.029 C 
HETATM   35  C   UNL     1     -44.054  61.310 -49.459  1.00  0.00     0.044 C 
ENDBRANCH  28  31
ENDBRANCH   7  27
BRANCH   3  36
HETATM   36  C   UNL     1     -45.683  59.115 -56.896  1.00  0.00     0.056 C 
HETATM   37  C   UNL     1     -44.780  58.759 -58.118  1.00  0.00     0.012 C 
HETATM   38  C   UNL     1     -46.069  58.653 -58.952  1.00  0.00     0.002 C 
HETATM   39  C   UNL     1     -46.787  58.303 -57.635  1.00  0.00     0.012 C 
ENDBRANCH   3  36
TORSDOF 7
ENDMDL
MODEL 4
REMARK VINA RESULT:      -8.9      3.827      8.932
REMARK  7 active torsions:
REMARK  status: ('A' for Active; 'I' for Inactive)
REMARK    1  A    between atoms: C_3  and  C_4 
REMARK    2  A    between atoms: C_11  and  N_12 
REMARK       I    between atoms: N_12  and  C_13 
REMARK    3  A    between atoms: C_13  and  C_14 
REMARK    4  A    between atoms: C_21  and  C_22 
REMARK       I    between atoms: C_22  and  N_23 
REMARK    5  A    between atoms: N_23  and  C_24 
REMARK    6  A    between atoms: C_24  and  C_25 
REMARK    7  A    between atoms: C_25  and  C_26 
ROOT
HETATM    1  C   UNL     1     -42.446  58.803 -58.248  1.00  0.00     0.158 C 
HETATM    2  N   UNL     1     -42.719  57.633 -57.449  1.00  0.00    -0.335 N 
HETATM    3  C   UNL     1     -42.996  56.396 -57.991  1.00  0.00     0.111 A 
HETATM    4  N   UNL     1     -42.903  55.450 -57.085  1.00  0.00    -0.233 NA
HETATM    5  C   UNL     1     -42.604  56.095 -55.917  1.00  0.00     0.089 A 
HETATM    6  C   UNL     1     -42.554  57.484 -56.085  1.00  0.00     0.091 A 
HETATM    7  C   UNL     1     -42.285  58.340 -55.001  1.00  0.00     0.065 A 
HETATM    8  C   UNL     1     -41.970  57.726 -53.775  1.00  0.00     0.049 A 
HETATM    9  C   UNL     1     -42.017  56.339 -53.594  1.00  0.00     0.036 A 
HETATM   10  C   UNL     1     -42.345  55.510 -54.667  1.00  0.00     0.051 A 
ENDROOT
BRANCH   9  11
HETATM   11  C   UNL     1     -41.699  55.803 -52.241  1.00  0.00     0.251 C 
HETATM   12  N   UNL     1     -42.114  54.519 -51.954  1.00  0.00    -0.357 N 
HETATM   13  H   UNL     1     -42.738  54.033 -52.583  1.00  0.00     0.162 HD
HETATM   14  O   UNL     1     -41.117  56.516 -51.428  1.00  0.00    -0.268 OA
BRANCH  12  15
HETATM   15  C   UNL     1     -41.891  53.944 -50.637  1.00  0.00     0.127 C 
BRANCH  15  16
HETATM   16  C   UNL     1     -40.433  53.527 -50.424  1.00  0.00     0.060 C 
BRANCH  16  17
HETATM   17  C   UNL     1     -40.190  52.101 -50.799  1.00  0.00    -0.029 A 
HETATM   18  C   UNL     1     -40.013  51.598 -52.130  1.00  0.00    -0.002 A 
HETATM   19  C   UNL     1     -39.808  50.222 -52.035  1.00  0.00     0.042 A 
HETATM   20  C   UNL     1     -40.011  52.193 -53.407  1.00  0.00     0.014 A 
HETATM   21  C   UNL     1     -39.596  49.409 -53.155  1.00  0.00     0.030 A 
HETATM   22  N   UNL     1     -39.859  49.899 -50.698  1.00  0.00    -0.365 N 
HETATM   23  C   UNL     1     -39.595  50.024 -54.411  1.00  0.00     0.002 A 
HETATM   24  C   UNL     1     -39.801  51.396 -54.538  1.00  0.00     0.001 A 
HETATM   25  H   UNL     1     -39.743  48.964 -50.333  1.00  0.00     0.165 HD
HETATM   26  C   UNL     1     -40.090  51.019 -49.946  1.00  0.00     0.096 A 
ENDBRANCH  16  17
ENDBRANCH  15  16
ENDBRANCH  12  15
ENDBRANCH   9  11
BRANCH   7  27
HETATM   27  N   UNL     1     -42.286  59.745 -55.002  1.00  0.00    -0.323 N 
HETATM   28  C   UNL     1     -43.409  60.559 -54.988  1.00  0.00     0.251 C 
HETATM   29  O   UNL     1     -44.572  60.197 -55.130  1.00  0.00    -0.270 OA
HETATM   30  H   UNL     1     -41.485  60.204 -54.568  1.00  0.00     0.169 HD
BRANCH  28  31
HETATM   31  C   UNL     1     -43.015  62.035 -54.774  1.00  0.00     0.213 C 
HETATM   32  O   UNL     1     -43.041  62.345 -53.363  1.00  0.00    -0.376 OA
HETATM   33  C   UNL     1     -44.171  63.191 -53.129  1.00  0.00     0.168 C 
HETATM   34  C   UNL     1     -44.324  64.000 -54.392  1.00  0.00     0.029 C 
HETATM   35  C   UNL     1     -43.964  63.004 -55.470  1.00  0.00     0.044 C 
ENDBRANCH  28  31
ENDBRANCH   7  27
BRANCH   3  36
HETATM   36  C   UNL     1     -43.295  56.117 -59.461  1.00  0.00     0.056 C 
HETATM   37  C   UNL     1     -44.056  54.772 -59.679  1.00  0.00     0.012 C 
HETATM   38  C   UNL     1     -44.855  55.483 -60.785  1.00  0.00     0.002 C 
HETATM   39  C   UNL     1     -44.583  56.791 -60.018  1.00  0.00     0.012 C 
ENDBRANCH   3  36
TORSDOF 7
ENDMDL
MODEL 5
REMARK VINA RESULT:      -8.9      2.627      9.140
REMARK  7 active torsions:
REMARK  status: ('A' for Active; 'I' for Inactive)
REMARK    1  A    between atoms: C_3  and  C_4 
REMARK    2  A    between atoms: C_11  and  N_12 
REMARK       I    between atoms: N_12  and  C_13 
REMARK    3  A    between atoms: C_13  and  C_14 
REMARK    4  A    between atoms: C_21  and  C_22 
REMARK       I    between atoms: C_22  and  N_23 
REMARK    5  A    between atoms: N_23  and  C_24 
REMARK    6  A    between atoms: C_24  and  C_25 
REMARK    7  A    between atoms: C_25  and  C_26 
ROOT
HETATM    1  C   UNL     1     -43.843  59.642 -56.296  1.00  0.00     0.158 C 
HETATM    2  N   UNL     1     -43.767  58.217 -56.082  1.00  0.00    -0.335 N 
HETATM    3  C   UNL     1     -43.412  57.323 -57.070  1.00  0.00     0.111 A 
HETATM    4  N   UNL     1     -43.118  56.148 -56.563  1.00  0.00    -0.233 NA
HETATM    5  C   UNL     1     -43.333  56.270 -55.218  1.00  0.00     0.089 A 
HETATM    6  C   UNL     1     -43.817  57.539 -54.879  1.00  0.00     0.091 A 
HETATM    7  C   UNL     1     -44.128  57.869 -53.546  1.00  0.00     0.065 A 
HETATM    8  C   UNL     1     -43.830  56.900 -52.571  1.00  0.00     0.049 A 
HETATM    9  C   UNL     1     -43.347  55.627 -52.897  1.00  0.00     0.036 A 
HETATM   10  C   UNL     1     -43.102  55.299 -54.230  1.00  0.00     0.051 A 
ENDROOT
BRANCH   9  11
HETATM   11  C   UNL     1     -43.102  54.670 -51.782  1.00  0.00     0.251 C 
HETATM   12  N   UNL     1     -41.959  54.850 -51.031  1.00  0.00    -0.357 N 
HETATM   13  H   UNL     1     -41.252  55.508 -51.329  1.00  0.00     0.162 HD
HETATM   14  O   UNL     1     -43.891  53.750 -51.590  1.00  0.00    -0.268 OA
BRANCH  12  15
HETATM   15  C   UNL     1     -41.620  53.925 -49.962  1.00  0.00     0.127 C 
BRANCH  15  16
HETATM   16  C   UNL     1     -40.169  53.443 -50.047  1.00  0.00     0.060 C 
BRANCH  16  17
HETATM   17  C   UNL     1     -40.061  52.065 -50.615  1.00  0.00    -0.029 A 
HETATM   18  C   UNL     1     -39.995  51.731 -52.007  1.00  0.00    -0.002 A 
HETATM   19  C   UNL     1     -39.896  50.343 -52.101  1.00  0.00     0.042 A 
HETATM   20  C   UNL     1     -40.014  52.487 -53.196  1.00  0.00     0.014 A 
HETATM   21  C   UNL     1     -39.810  49.671 -53.327  1.00  0.00     0.030 A 
HETATM   22  N   UNL     1     -39.903  49.851 -50.816  1.00  0.00    -0.365 N 
HETATM   23  C   UNL     1     -39.826  50.445 -54.492  1.00  0.00     0.002 A 
HETATM   24  C   UNL     1     -39.928  51.833 -54.430  1.00  0.00     0.001 A 
HETATM   25  H   UNL     1     -39.843  48.871 -50.581  1.00  0.00     0.165 HD
HETATM   26  C   UNL     1     -40.003  50.877 -49.914  1.00  0.00     0.096 A 
ENDBRANCH  16  17
ENDBRANCH  15  16
ENDBRANCH  12  15
ENDBRANCH   9  11
BRANCH   7  27
HETATM   27  N   UNL     1     -44.696  59.063 -53.073  1.00  0.00    -0.323 N 
HETATM   28  C   UNL     1     -44.003  60.144 -52.550  1.00  0.00     0.251 C 
HETATM   29  O   UNL     1     -42.809  60.178 -52.272  1.00  0.00    -0.270 OA
HETATM   30  H   UNL     1     -45.577  59.353 -53.499  1.00  0.00     0.169 HD
BRANCH  28  31
HETATM   31  C   UNL     1     -44.942  61.349 -52.340  1.00  0.00     0.213 C 
HETATM   32  O   UNL     1     -44.312  62.308 -51.460  1.00  0.00    -0.376 OA
HETATM   33  C   UNL     1     -45.001  62.259 -50.207  1.00  0.00     0.168 C 
HETATM   34  C   UNL     1     -46.429  61.926 -50.557  1.00  0.00     0.029 C 
HETATM   35  C   UNL     1     -46.271  60.957 -51.706  1.00  0.00     0.044 C 
ENDBRANCH  28  31
ENDBRANCH   7  27
BRANCH   3  36
HETATM   36  C   UNL     1     -43.289  57.645 -58.556  1.00  0.00     0.056 C 
HETATM   37  C   UNL     1     -41.873  58.171 -58.946  1.00  0.00     0.012 C 
HETATM   38  C   UNL     1     -42.011  57.370 -60.253  1.00  0.00     0.002 C 
HETATM   39  C   UNL     1     -42.954  56.433 -59.475  1.00  0.00     0.012 C 
ENDBRANCH   3  36
TORSDOF 7
ENDMDL
MODEL 6
REMARK VINA RESULT:      -8.5      2.792      9.559
REMARK  7 active torsions:
REMARK  status: ('A' for Active; 'I' for Inactive)
REMARK    1  A    between atoms: C_3  and  C_4 
REMARK    2  A    between atoms: C_11  and  N_12 
REMARK       I    between atoms: N_12  and  C_13 
REMARK    3  A    between atoms: C_13  and  C_14 
REMARK    4  A    between atoms: C_21  and  C_22 
REMARK       I    between atoms: C_22  and  N_23 
REMARK    5  A    between atoms: N_23  and  C_24 
REMARK    6  A    between atoms: C_24  and  C_25 
REMARK    7  A    between atoms: C_25  and  C_26 
ROOT
HETATM    1  C   UNL     1     -42.193  57.962 -51.413  1.00  0.00     0.158 C 
HETATM    2  N   UNL     1     -42.617  59.049 -52.262  1.00  0.00    -0.335 N 
HETATM    3  C   UNL     1     -43.011  60.277 -51.775  1.00  0.00     0.111 A 
HETATM    4  N   UNL     1     -43.050  61.176 -52.732  1.00  0.00    -0.233 NA
HETATM    5  C   UNL     1     -42.718  60.503 -53.875  1.00  0.00     0.089 A 
HETATM    6  C   UNL     1     -42.511  59.139 -53.637  1.00  0.00     0.091 A 
HETATM    7  C   UNL     1     -42.183  58.258 -54.684  1.00  0.00     0.065 A 
HETATM    8  C   UNL     1     -41.975  58.833 -55.951  1.00  0.00     0.049 A 
HETATM    9  C   UNL     1     -42.180  60.195 -56.202  1.00  0.00     0.036 A 
HETATM   10  C   UNL     1     -42.563  61.042 -55.162  1.00  0.00     0.051 A 
ENDROOT
BRANCH   9  11
HETATM   11  C   UNL     1     -41.964  60.686 -57.592  1.00  0.00     0.251 C 
HETATM   12  N   UNL     1     -43.045  60.662 -58.448  1.00  0.00    -0.357 N 
HETATM   13  H   UNL     1     -43.896  60.187 -58.180  1.00  0.00     0.162 HD
HETATM   14  O   UNL     1     -40.847  61.060 -57.935  1.00  0.00    -0.268 OA
BRANCH  12  15
HETATM   15  C   UNL     1     -42.902  61.072 -59.836  1.00  0.00     0.127 C 
BRANCH  15  16
HETATM   16  C   UNL     1     -43.497  60.050 -60.809  1.00  0.00     0.060 C 
BRANCH  16  17
HETATM   17  C   UNL     1     -43.048  58.656 -60.513  1.00  0.00    -0.029 A 
HETATM   18  C   UNL     1     -43.901  57.525 -60.295  1.00  0.00    -0.002 A 
HETATM   19  C   UNL     1     -43.082  56.421 -60.057  1.00  0.00     0.042 A 
HETATM   20  C   UNL     1     -45.298  57.344 -60.276  1.00  0.00     0.014 A 
HETATM   21  C   UNL     1     -43.590  55.141 -59.805  1.00  0.00     0.030 A 
HETATM   22  N   UNL     1     -41.781  56.863 -60.126  1.00  0.00    -0.365 N 
HETATM   23  C   UNL     1     -44.980  54.986 -59.796  1.00  0.00     0.002 A 
HETATM   24  C   UNL     1     -45.824  56.071 -60.026  1.00  0.00     0.001 A 
HETATM   25  H   UNL     1     -40.971  56.275 -59.993  1.00  0.00     0.165 HD
HETATM   26  C   UNL     1     -41.748  58.205 -60.398  1.00  0.00     0.096 A 
ENDBRANCH  16  17
ENDBRANCH  15  16
ENDBRANCH  12  15
ENDBRANCH   9  11
BRANCH   7  27
HETATM   27  N   UNL     1     -42.030  56.863 -54.611  1.00  0.00    -0.323 N 
HETATM   28  C   UNL     1     -43.046  55.941 -54.411  1.00  0.00     0.251 C 
HETATM   29  O   UNL     1     -44.209  56.193 -54.112  1.00  0.00    -0.270 OA
HETATM   30  H   UNL     1     -41.255  56.459 -55.137  1.00  0.00     0.169 HD
BRANCH  28  31
HETATM   31  C   UNL     1     -42.529  54.502 -54.605  1.00  0.00     0.213 C 
HETATM   32  O   UNL     1     -42.401  53.854 -53.319  1.00  0.00    -0.376 OA
HETATM   33  C   UNL     1     -41.004  53.725 -53.040  1.00  0.00     0.168 C 
HETATM   34  C   UNL     1     -40.349  53.541 -54.385  1.00  0.00     0.029 C 
HETATM   35  C   UNL     1     -41.162  54.452 -55.277  1.00  0.00     0.044 C 
ENDBRANCH  28  31
ENDBRANCH   7  27
BRANCH   3  36
HETATM   36  C   UNL     1     -43.294  60.603 -50.312  1.00  0.00     0.056 C 
HETATM   37  C   UNL     1     -43.312  62.137 -50.026  1.00  0.00     0.012 C 
HETATM   38  C   UNL     1     -44.474  61.872 -49.053  1.00  0.00     0.002 C 
HETATM   39  C   UNL     1     -44.799  60.639 -49.916  1.00  0.00     0.012 C 
ENDBRANCH   3  36
TORSDOF 7
ENDMDL
MODEL 7
REMARK VINA RESULT:      -8.5      2.885     10.673
REMARK  7 active torsions:
REMARK  status: ('A' for Active; 'I' for Inactive)
REMARK    1  A    between atoms: C_3  and  C_4 
REMARK    2  A    between atoms: C_11  and  N_12 
REMARK       I    between atoms: N_12  and  C_13 
REMARK    3  A    between atoms: C_13  and  C_14 
REMARK    4  A    between atoms: C_21  and  C_22 
REMARK       I    between atoms: C_22  and  N_23 
REMARK    5  A    between atoms: N_23  and  C_24 
REMARK    6  A    between atoms: C_24  and  C_25 
REMARK    7  A    between atoms: C_25  and  C_26 
ROOT
HETATM    1  C   UNL     1     -46.030  62.466 -52.427  1.00  0.00     0.158 C 
HETATM    2  N   UNL     1     -45.860  61.331 -53.301  1.00  0.00    -0.335 N 
HETATM    3  C   UNL     1     -45.896  61.426 -54.677  1.00  0.00     0.111 A 
HETATM    4  N   UNL     1     -45.417  60.340 -55.239  1.00  0.00    -0.233 NA
HETATM    5  C   UNL     1     -45.105  59.502 -54.204  1.00  0.00     0.089 A 
HETATM    6  C   UNL     1     -45.440  60.058 -52.963  1.00  0.00     0.091 A 
HETATM    7  C   UNL     1     -45.225  59.351 -51.765  1.00  0.00     0.065 A 
HETATM    8  C   UNL     1     -44.567  58.112 -51.874  1.00  0.00     0.049 A 
HETATM    9  C   UNL     1     -44.228  57.546 -53.108  1.00  0.00     0.036 A 
HETATM   10  C   UNL     1     -44.504  58.236 -54.288  1.00  0.00     0.051 A 
ENDROOT
BRANCH   9  11
HETATM   11  C   UNL     1     -43.565  56.211 -53.102  1.00  0.00     0.251 C 
HETATM   12  N   UNL     1     -43.153  55.702 -54.316  1.00  0.00    -0.357 N 
HETATM   13  H   UNL     1     -43.432  56.152 -55.177  1.00  0.00     0.162 HD
HETATM   14  O   UNL     1     -43.437  55.603 -52.044  1.00  0.00    -0.268 OA
BRANCH  12  15
HETATM   15  C   UNL     1     -42.549  54.383 -54.401  1.00  0.00     0.127 C 
BRANCH  15  16
HETATM   16  C   UNL     1     -41.028  54.426 -54.226  1.00  0.00     0.060 C 
BRANCH  16  17
HETATM   17  C   UNL     1     -40.557  53.527 -53.129  1.00  0.00    -0.029 A 
HETATM   18  C   UNL     1     -40.257  52.131 -53.255  1.00  0.00    -0.002 A 
HETATM   19  C   UNL     1     -39.849  51.675 -52.002  1.00  0.00     0.042 A 
HETATM   20  C   UNL     1     -40.300  51.214 -54.325  1.00  0.00     0.014 A 
HETATM   21  C   UNL     1     -39.475  50.347 -51.764  1.00  0.00     0.030 A 
HETATM   22  N   UNL     1     -39.899  52.752 -51.146  1.00  0.00    -0.365 N 
HETATM   23  C   UNL     1     -39.522  49.458 -52.842  1.00  0.00     0.002 A 
HETATM   24  C   UNL     1     -39.930  49.882 -54.105  1.00  0.00     0.001 A 
HETATM   25  H   UNL     1     -39.656  52.713 -50.167  1.00  0.00     0.165 HD
HETATM   26  C   UNL     1     -40.325  53.870 -51.812  1.00  0.00     0.096 A 
ENDBRANCH  16  17
ENDBRANCH  15  16
ENDBRANCH  12  15
ENDBRANCH   9  11
BRANCH   7  27
HETATM   27  N   UNL     1     -45.586  59.743 -50.466  1.00  0.00    -0.323 N 
HETATM   28  C   UNL     1     -44.846  60.562 -49.627  1.00  0.00     0.251 C 
HETATM   29  O   UNL     1     -43.697  60.947 -49.814  1.00  0.00    -0.270 OA
HETATM   30  H   UNL     1     -46.585  59.807 -50.267  1.00  0.00     0.169 HD
BRANCH  28  31
HETATM   31  C   UNL     1     -45.658  60.943 -48.373  1.00  0.00     0.213 C 
HETATM   32  O   UNL     1     -46.728  61.842 -48.742  1.00  0.00    -0.376 OA
HETATM   33  C   UNL     1     -46.393  63.139 -48.238  1.00  0.00     0.168 C 
HETATM   34  C   UNL     1     -45.621  62.880 -46.970  1.00  0.00     0.029 C 
HETATM   35  C   UNL     1     -44.816  61.649 -47.317  1.00  0.00     0.044 C 
ENDBRANCH  28  31
ENDBRANCH   7  27
BRANCH   3  36
HETATM   36  C   UNL     1     -46.351  62.645 -55.471  1.00  0.00     0.056 C 
HETATM   37  C   UNL     1     -46.413  62.379 -57.007  1.00  0.00     0.012 C 
HETATM   38  C   UNL     1     -47.679  63.252 -57.038  1.00  0.00     0.002 C 
HETATM   39  C   UNL     1     -47.893  62.840 -55.570  1.00  0.00     0.012 C 
ENDBRANCH   3  36
TORSDOF 7
ENDMDL
MODEL 8
REMARK VINA RESULT:      -8.5      4.451      8.807
REMARK  7 active torsions:
REMARK  status: ('A' for Active; 'I' for Inactive)
REMARK    1  A    between atoms: C_3  and  C_4 
REMARK    2  A    between atoms: C_11  and  N_12 
REMARK       I    between atoms: N_12  and  C_13 
REMARK    3  A    between atoms: C_13  and  C_14 
REMARK    4  A    between atoms: C_21  and  C_22 
REMARK       I    between atoms: C_22  and  N_23 
REMARK    5  A    between atoms: N_23  and  C_24 
REMARK    6  A    between atoms: C_24  and  C_25 
REMARK    7  A    between atoms: C_25  and  C_26 
ROOT
HETATM    1  C   UNL     1     -42.333  60.107 -60.150  1.00  0.00     0.158 C 
HETATM    2  N   UNL     1     -41.910  60.354 -58.793  1.00  0.00    -0.335 N 
HETATM    3  C   UNL     1     -41.477  61.586 -58.350  1.00  0.00     0.111 A 
HETATM    4  N   UNL     1     -41.446  61.633 -57.038  1.00  0.00    -0.233 NA
HETATM    5  C   UNL     1     -41.823  60.386 -56.621  1.00  0.00     0.089 A 
HETATM    6  C   UNL     1     -42.053  59.522 -57.699  1.00  0.00     0.091 A 
HETATM    7  C   UNL     1     -42.428  58.182 -57.491  1.00  0.00     0.065 A 
HETATM    8  C   UNL     1     -42.660  57.790 -56.159  1.00  0.00     0.049 A 
HETATM    9  C   UNL     1     -42.433  58.644 -55.074  1.00  0.00     0.036 A 
HETATM   10  C   UNL     1     -42.003  59.952 -55.298  1.00  0.00     0.051 A 
ENDROOT
BRANCH   9  11
HETATM   11  C   UNL     1     -42.678  58.109 -53.705  1.00  0.00     0.251 C 
HETATM   12  N   UNL     1     -41.687  57.331 -53.142  1.00  0.00    -0.357 N 
HETATM   13  H   UNL     1     -40.906  57.019 -53.702  1.00  0.00     0.162 HD
HETATM   14  O   UNL     1     -43.743  58.344 -53.144  1.00  0.00    -0.268 OA
BRANCH  12  15
HETATM   15  C   UNL     1     -41.872  56.726 -51.833  1.00  0.00     0.127 C 
BRANCH  15  16
HETATM   16  C   UNL     1     -42.502  55.332 -51.920  1.00  0.00     0.060 C 
BRANCH  16  17
HETATM   17  C   UNL     1     -41.546  54.252 -51.530  1.00  0.00    -0.029 A 
HETATM   18  C   UNL     1     -40.951  53.294 -52.414  1.00  0.00    -0.002 A 
HETATM   19  C   UNL     1     -40.122  52.474 -51.649  1.00  0.00     0.042 A 
HETATM   20  C   UNL     1     -41.048  53.050 -53.799  1.00  0.00     0.014 A 
HETATM   21  C   UNL     1     -39.378  51.424 -52.200  1.00  0.00     0.030 A 
HETATM   22  N   UNL     1     -40.209  52.916 -50.349  1.00  0.00    -0.365 N 
HETATM   23  C   UNL     1     -39.488  51.204 -53.577  1.00  0.00     0.002 A 
HETATM   24  C   UNL     1     -40.311  52.004 -54.367  1.00  0.00     0.001 A 
HETATM   25  H   UNL     1     -39.711  52.504 -49.572  1.00  0.00     0.165 HD
HETATM   26  C   UNL     1     -41.063  53.983 -50.265  1.00  0.00     0.096 A 
ENDBRANCH  16  17
ENDBRANCH  15  16
ENDBRANCH  12  15
ENDBRANCH   9  11
BRANCH   7  27
HETATM   27  N   UNL     1     -42.608  57.185 -58.464  1.00  0.00    -0.323 N 
HETATM   28  C   UNL     1     -42.978  55.870 -58.226  1.00  0.00     0.251 C 
HETATM   29  O   UNL     1     -43.055  55.323 -57.131  1.00  0.00    -0.270 OA
HETATM   30  H   UNL     1     -42.906  57.496 -59.390  1.00  0.00     0.169 HD
BRANCH  28  31
HETATM   31  C   UNL     1     -43.285  55.137 -59.547  1.00  0.00     0.213 C 
HETATM   32  O   UNL     1     -43.539  56.103 -60.592  1.00  0.00    -0.376 OA
HETATM   33  C   UNL     1     -44.938  56.059 -60.888  1.00  0.00     0.168 C 
HETATM   34  C   UNL     1     -45.345  54.627 -60.652  1.00  0.00     0.029 C 
HETATM   35  C   UNL     1     -44.513  54.239 -59.451  1.00  0.00     0.044 C 
ENDBRANCH  28  31
ENDBRANCH   7  27
BRANCH   3  36
HETATM   36  C   UNL     1     -41.146  62.782 -59.236  1.00  0.00     0.056 C 
HETATM   37  C   UNL     1     -40.799  64.064 -58.417  1.00  0.00     0.012 C 
HETATM   38  C   UNL     1     -39.733  64.373 -59.483  1.00  0.00     0.002 C 
HETATM   39  C   UNL     1     -39.674  62.855 -59.736  1.00  0.00     0.012 C 
ENDBRANCH   3  36
TORSDOF 7
ENDMDL
MODEL 9
REMARK VINA RESULT:      -8.4      4.891      9.321
REMARK  7 active torsions:
REMARK  status: ('A' for Active; 'I' for Inactive)
REMARK    1  A    between atoms: C_3  and  C_4 
REMARK    2  A    between atoms: C_11  and  N_12 
REMARK       I    between atoms: N_12  and  C_13 
REMARK    3  A    between atoms: C_13  and  C_14 
REMARK    4  A    between atoms: C_21  and  C_22 
REMARK       I    between atoms: C_22  and  N_23 
REMARK    5  A    between atoms: N_23  and  C_24 
REMARK    6  A    between atoms: C_24  and  C_25 
REMARK    7  A    between atoms: C_25  and  C_26 
ROOT
HETATM    1  C   UNL     1     -44.168  61.656 -59.579  1.00  0.00     0.158 C 
HETATM    2  N   UNL     1     -43.133  61.113 -58.734  1.00  0.00    -0.335 N 
HETATM    3  C   UNL     1     -41.877  61.672 -58.624  1.00  0.00     0.111 A 
HETATM    4  N   UNL     1     -41.234  61.192 -57.584  1.00  0.00    -0.233 NA
HETATM    5  C   UNL     1     -42.075  60.264 -57.035  1.00  0.00     0.089 A 
HETATM    6  C   UNL     1     -43.256  60.126 -57.775  1.00  0.00     0.091 A 
HETATM    7  C   UNL     1     -44.250  59.204 -57.396  1.00  0.00     0.065 A 
HETATM    8  C   UNL     1     -44.041  58.512 -56.189  1.00  0.00     0.049 A 
HETATM    9  C   UNL     1     -42.865  58.640 -55.441  1.00  0.00     0.036 A 
HETATM   10  C   UNL     1     -41.865  59.515 -55.866  1.00  0.00     0.051 A 
ENDROOT
BRANCH   9  11
HETATM   11  C   UNL     1     -42.739  57.829 -54.198  1.00  0.00     0.251 C 
HETATM   12  N   UNL     1     -41.525  57.220 -53.958  1.00  0.00    -0.357 N 
HETATM   13  H   UNL     1     -40.813  57.206 -54.675  1.00  0.00     0.162 HD
HETATM   14  O   UNL     1     -43.709  57.703 -53.456  1.00  0.00    -0.268 OA
BRANCH  12  15
HETATM   15  C   UNL     1     -41.339  56.367 -52.795  1.00  0.00     0.127 C 
BRANCH  15  16
HETATM   16  C   UNL     1     -41.872  54.949 -53.023  1.00  0.00     0.060 C 
BRANCH  16  17
HETATM   17  C   UNL     1     -41.053  53.916 -52.319  1.00  0.00    -0.029 A 
HETATM   18  C   UNL     1     -40.620  52.666 -52.870  1.00  0.00    -0.002 A 
HETATM   19  C   UNL     1     -39.880  52.008 -51.888  1.00  0.00     0.042 A 
HETATM   20  C   UNL     1     -40.796  52.034 -54.117  1.00  0.00     0.014 A 
HETATM   21  C   UNL     1     -39.301  50.750 -52.091  1.00  0.00     0.030 A 
HETATM   22  N   UNL     1     -39.864  52.826 -50.781  1.00  0.00    -0.365 N 
HETATM   23  C   UNL     1     -39.486  50.146 -53.339  1.00  0.00     0.002 A 
HETATM   24  C   UNL     1     -40.224  50.776 -54.339  1.00  0.00     0.001 A 
HETATM   25  H   UNL     1     -39.398  52.602 -49.914  1.00  0.00     0.165 HD
HETATM   26  C   UNL     1     -40.567  53.975 -51.028  1.00  0.00     0.096 A 
ENDBRANCH  16  17
ENDBRANCH  15  16
ENDBRANCH  12  15
ENDBRANCH   9  11
BRANCH   7  27
HETATM   27  N   UNL     1     -45.437  58.899 -58.081  1.00  0.00    -0.323 N 
HETATM   28  C   UNL     1     -45.530  58.224 -59.289  1.00  0.00     0.251 C 
HETATM   29  O   UNL     1     -44.600  57.923 -60.028  1.00  0.00    -0.270 OA
HETATM   30  H   UNL     1     -46.274  58.767 -57.513  1.00  0.00     0.169 HD
BRANCH  28  31
HETATM   31  C   UNL     1     -46.999  57.887 -59.619  1.00  0.00     0.213 C 
HETATM   32  O   UNL     1     -47.134  56.464 -59.833  1.00  0.00    -0.376 OA
HETATM   33  C   UNL     1     -47.354  56.259 -61.233  1.00  0.00     0.168 C 
HETATM   34  C   UNL     1     -48.118  57.474 -61.692  1.00  0.00     0.029 C 
HETATM   35  C   UNL     1     -47.495  58.585 -60.879  1.00  0.00     0.044 C 
ENDBRANCH  28  31
ENDBRANCH   7  27
BRANCH   3  36
HETATM   36  C   UNL     1     -41.310  62.765 -59.524  1.00  0.00     0.056 C 
HETATM   37  C   UNL     1     -39.820  63.101 -59.203  1.00  0.00     0.012 C 
HETATM   38  C   UNL     1     -39.603  63.266 -60.717  1.00  0.00     0.002 C 
HETATM   39  C   UNL     1     -40.773  62.281 -60.902  1.00  0.00     0.012 C 
ENDBRANCH   3  36
TORSDOF 7
ENDMDL
MODEL 10
REMARK VINA RESULT:      -8.2      2.565      8.869
REMARK  7 active torsions:
REMARK  status: ('A' for Active; 'I' for Inactive)
REMARK    1  A    between atoms: C_3  and  C_4 
REMARK    2  A    between atoms: C_11  and  N_12 
REMARK       I    between atoms: N_12  and  C_13 
REMARK    3  A    between atoms: C_13  and  C_14 
REMARK    4  A    between atoms: C_21  and  C_22 
REMARK       I    between atoms: C_22  and  N_23 
REMARK    5  A    between atoms: N_23  and  C_24 
REMARK    6  A    between atoms: C_24  and  C_25 
REMARK    7  A    between atoms: C_25  and  C_26 
ROOT
HETATM    1  C   UNL     1     -42.743  56.362 -51.593  1.00  0.00     0.158 C 
HETATM    2  N   UNL     1     -42.279  56.443 -52.956  1.00  0.00    -0.335 N 
HETATM    3  C   UNL     1     -41.904  55.340 -53.693  1.00  0.00     0.111 A 
HETATM    4  N   UNL     1     -41.820  55.630 -54.972  1.00  0.00    -0.233 NA
HETATM    5  C   UNL     1     -42.102  56.966 -55.059  1.00  0.00     0.089 A 
HETATM    6  C   UNL     1     -42.323  57.537 -53.800  1.00  0.00     0.091 A 
HETATM    7  C   UNL     1     -42.606  58.909 -53.662  1.00  0.00     0.065 A 
HETATM    8  C   UNL     1     -42.756  59.645 -54.852  1.00  0.00     0.049 A 
HETATM    9  C   UNL     1     -42.537  59.086 -56.116  1.00  0.00     0.036 A 
HETATM   10  C   UNL     1     -42.198  57.737 -56.228  1.00  0.00     0.051 A 
ENDROOT
BRANCH   9  11
HETATM   11  C   UNL     1     -42.689  59.972 -57.304  1.00  0.00     0.251 C 
HETATM   12  N   UNL     1     -41.709  59.907 -58.273  1.00  0.00    -0.357 N 
HETATM   13  H   UNL     1     -40.856  59.393 -58.100  1.00  0.00     0.162 HD
HETATM   14  O   UNL     1     -43.644  60.739 -57.369  1.00  0.00    -0.268 OA
BRANCH  12  15
HETATM   15  C   UNL     1     -41.757  60.778 -59.436  1.00  0.00     0.127 C 
BRANCH  15  16
HETATM   16  C   UNL     1     -42.056  60.011 -60.727  1.00  0.00     0.060 C 
BRANCH  16  17
HETATM   17  C   UNL     1     -43.335  59.242 -60.647  1.00  0.00    -0.029 A 
HETATM   18  C   UNL     1     -43.468  57.862 -60.285  1.00  0.00    -0.002 A 
HETATM   19  C   UNL     1     -44.825  57.545 -60.331  1.00  0.00     0.042 A 
HETATM   20  C   UNL     1     -42.552  56.854 -59.926  1.00  0.00     0.014 A 
HETATM   21  C   UNL     1     -45.315  56.269 -60.029  1.00  0.00     0.030 A 
HETATM   22  N   UNL     1     -45.493  58.688 -60.707  1.00  0.00    -0.365 N 
HETATM   23  C   UNL     1     -44.387  55.286 -59.671  1.00  0.00     0.002 A 
HETATM   24  C   UNL     1     -43.024  55.571 -59.621  1.00  0.00     0.001 A 
HETATM   25  H   UNL     1     -46.495  58.751 -60.822  1.00  0.00     0.165 HD
HETATM   26  C   UNL     1     -44.608  59.714 -60.902  1.00  0.00     0.096 A 
ENDBRANCH  16  17
ENDBRANCH  15  16
ENDBRANCH  12  15
ENDBRANCH   9  11
BRANCH   7  27
HETATM   27  N   UNL     1     -42.765  59.631 -52.468  1.00  0.00    -0.323 N 
HETATM   28  C   UNL     1     -43.935  59.741 -51.732  1.00  0.00     0.251 C 
HETATM   29  O   UNL     1     -45.049  59.362 -52.075  1.00  0.00    -0.270 OA
HETATM   30  H   UNL     1     -41.939  59.727 -51.876  1.00  0.00     0.169 HD
BRANCH  28  31
HETATM   31  C   UNL     1     -43.670  60.430 -50.378  1.00  0.00     0.213 C 
HETATM   32  O   UNL     1     -44.928  60.758 -49.746  1.00  0.00    -0.376 OA
HETATM   33  C   UNL     1     -45.083  62.179 -49.809  1.00  0.00     0.168 C 
HETATM   34  C   UNL     1     -43.683  62.731 -49.725  1.00  0.00     0.029 C 
HETATM   35  C   UNL     1     -42.882  61.727 -50.521  1.00  0.00     0.044 C 
ENDBRANCH  28  31
ENDBRANCH   7  27
BRANCH   3  36
HETATM   36  C   UNL     1     -41.686  53.936 -53.141  1.00  0.00     0.056 C 
HETATM   37  C   UNL     1     -41.013  52.977 -54.172  1.00  0.00     0.012 C 
HETATM   38  C   UNL     1     -40.225  52.376 -52.996  1.00  0.00     0.002 C 
HETATM   39  C   UNL     1     -40.387  53.743 -52.304  1.00  0.00     0.012 C 
ENDBRANCH   3  36
TORSDOF 7
ENDMDL
