MODEL 1
REMARK VINA RESULT:      -8.5      0.000      0.000
REMARK  5 active torsions:
REMARK  status: ('A' for Active; 'I' for Inactive)
REMARK    1  A    between atoms: C_3  and  N_4 
REMARK       I    between atoms: N_4  and  C_5 
REMARK    2  A    between atoms: C_5  and  C_6 
REMARK    3  A    between atoms: C_6  and  N_7 
REMARK       I    between atoms: N_7  and  C_8 
REMARK    4  A    between atoms: C_8  and  C_9 
REMARK    5  A    between atoms: C_13  and  C_14 
ROOT
HETATM    1  N   UNL     1     -42.671  55.407 -57.536  1.00  0.00    -0.347 N 
HETATM    2  C   UNL     1     -42.752  55.615 -56.184  1.00  0.00     0.270 C 
HETATM    3  O   UNL     1     -43.527  56.443 -55.713  1.00  0.00    -0.266 OA
HETATM    4  H   UNL     1     -41.988  54.760 -57.905  1.00  0.00     0.163 HD
ENDROOT
BRANCH   2   5
HETATM    5  C   UNL     1     -41.849  54.857 -55.366  1.00  0.00     0.120 A 
HETATM    6  N   UNL     1     -40.515  54.776 -55.667  1.00  0.00    -0.272 N 
HETATM    7  H   UNL     1     -40.037  55.218 -56.447  1.00  0.00     0.189 HD
HETATM    8  N   UNL     1     -39.803  54.029 -54.813  1.00  0.00    -0.173 NA
HETATM    9  C   UNL     1     -40.708  53.600 -53.927  1.00  0.00     0.093 A 
HETATM   10  C   UNL     1     -41.998  54.103 -54.217  1.00  0.00     0.071 A 
BRANCH   9  11
HETATM   11  C   UNL     1     -40.364  52.733 -52.801  1.00  0.00     0.044 A 
HETATM   12  C   UNL     1     -39.935  51.417 -52.839  1.00  0.00     0.041 A 
HETATM   13  C   UNL     1     -39.661  50.508 -53.982  1.00  0.00     0.071 C 
HETATM   14  N   UNL     1     -39.802  51.040 -51.528  1.00  0.00    -0.278 N 
HETATM   15  C   UNL     1     -39.436  49.747 -50.998  1.00  0.00     0.179 C 
HETATM   16  N   UNL     1     -40.059  52.031 -50.654  1.00  0.00    -0.177 NA
HETATM   17  C   UNL     1     -40.437  53.061 -51.422  1.00  0.00     0.065 A 
HETATM   18  C   UNL     1     -40.875  54.320 -50.769  1.00  0.00     0.073 C 
ENDBRANCH   9  11
ENDBRANCH   2   5
BRANCH   1  19
HETATM   19  C   UNL     1     -43.627  55.987 -58.471  1.00  0.00     0.226 C 
BRANCH  19  20
HETATM   20  C   UNL     1     -43.037  57.003 -59.463  1.00  0.00     0.239 C 
HETATM   21  N   UNL     1     -42.785  58.241 -58.899  1.00  0.00    -0.325 N 
HETATM   22  H   UNL     1     -43.044  58.329 -57.921  1.00  0.00     0.169 HD
HETATM   23  O   UNL     1     -42.924  56.705 -60.650  1.00  0.00    -0.271 OA
BRANCH  21  24
HETATM   24  C   UNL     1     -42.286  59.408 -59.522  1.00  0.00     0.040 A 
HETATM   25  C   UNL     1     -41.805  60.458 -58.706  1.00  0.00    -0.034 A 
HETATM   26  C   UNL     1     -41.772  60.364 -57.203  1.00  0.00     0.050 C 
HETATM   27  C   UNL     1     -41.333  61.641 -59.306  1.00  0.00     0.028 A 
HETATM   28  C   UNL     1     -41.328  61.779 -60.691  1.00  0.00     0.011 A 
HETATM   29  C   UNL     1     -41.786  60.744 -61.497  1.00  0.00     0.021 A 
HETATM   30 BR   UNL     1     -40.697  63.377 -61.478  1.00  0.00    -0.051 Br
HETATM   31  C   UNL     1     -42.259  59.565 -60.912  1.00  0.00     0.031 A 
ENDBRANCH  21  24
ENDBRANCH  19  20
ENDBRANCH   1  19
TORSDOF 5
ENDMDL
MODEL 2
REMARK VINA RESULT:      -8.5      4.334      9.318
REMARK  5 active torsions:
REMARK  status: ('A' for Active; 'I' for Inactive)
REMARK    1  A    between atoms: C_3  and  N_4 
REMARK       I    between atoms: N_4  and  C_5 
REMARK    2  A    between atoms: C_5  and  C_6 
REMARK    3  A    between atoms: C_6  and  N_7 
REMARK       I    between atoms: N_7  and  C_8 
REMARK    4  A    between atoms: C_8  and  C_9 
REMARK    5  A    between atoms: C_13  and  C_14 
ROOT
HETATM    1  N   UNL     1     -42.452  58.060 -53.239  1.00  0.00    -0.347 N 
HETATM    2  C   UNL     1     -41.876  58.809 -54.232  1.00  0.00     0.270 C 
HETATM    3  O   UNL     1     -40.903  59.523 -54.006  1.00  0.00    -0.266 OA
HETATM    4  H   UNL     1     -43.283  57.521 -53.434  1.00  0.00     0.163 HD
ENDROOT
BRANCH   2   5
HETATM    5  C   UNL     1     -42.503  58.752 -55.520  1.00  0.00     0.120 A 
HETATM    6  N   UNL     1     -42.552  59.851 -56.337  1.00  0.00    -0.272 N 
HETATM    7  H   UNL     1     -42.169  60.771 -56.144  1.00  0.00     0.189 HD
HETATM    8  N   UNL     1     -43.174  59.641 -57.504  1.00  0.00    -0.173 NA
HETATM    9  C   UNL     1     -43.553  58.361 -57.443  1.00  0.00     0.093 A 
HETATM   10  C   UNL     1     -43.144  57.754 -56.232  1.00  0.00     0.071 A 
BRANCH   9  11
HETATM   11  C   UNL     1     -44.285  57.700 -58.523  1.00  0.00     0.044 A 
HETATM   12  C   UNL     1     -45.657  57.595 -58.684  1.00  0.00     0.041 A 
HETATM   13  C   UNL     1     -46.782  58.125 -57.870  1.00  0.00     0.071 C 
HETATM   14  N   UNL     1     -45.833  56.839 -59.813  1.00  0.00    -0.278 N 
HETATM   15  C   UNL     1     -47.070  56.378 -60.401  1.00  0.00     0.179 C 
HETATM   16  N   UNL     1     -44.680  56.498 -60.419  1.00  0.00    -0.177 NA
HETATM   17  C   UNL     1     -43.727  56.991 -59.619  1.00  0.00     0.065 A 
HETATM   18  C   UNL     1     -42.304  56.728 -59.952  1.00  0.00     0.073 C 
ENDBRANCH   9  11
ENDBRANCH   2   5
BRANCH   1  19
HETATM   19  C   UNL     1     -41.834  57.898 -51.929  1.00  0.00     0.226 C 
BRANCH  19  20
HETATM   20  C   UNL     1     -41.222  56.513 -51.660  1.00  0.00     0.239 C 
HETATM   21  N   UNL     1     -41.238  55.681 -52.765  1.00  0.00    -0.325 N 
HETATM   22  H   UNL     1     -41.671  56.075 -53.595  1.00  0.00     0.169 HD
HETATM   23  O   UNL     1     -40.868  56.211 -50.524  1.00  0.00    -0.271 OA
BRANCH  21  24
HETATM   24  C   UNL     1     -40.797  54.341 -52.866  1.00  0.00     0.040 A 
HETATM   25  C   UNL     1     -40.751  53.737 -54.144  1.00  0.00    -0.034 A 
HETATM   26  C   UNL     1     -41.117  54.480 -55.402  1.00  0.00     0.050 C 
HETATM   27  C   UNL     1     -40.345  52.394 -54.260  1.00  0.00     0.028 A 
HETATM   28  C   UNL     1     -39.983  51.663 -53.133  1.00  0.00     0.011 A 
HETATM   29  C   UNL     1     -40.014  52.257 -51.878  1.00  0.00     0.021 A 
HETATM   30 BR   UNL     1     -39.448  49.860 -53.310  1.00  0.00    -0.051 Br
HETATM   31  C   UNL     1     -40.416  53.590 -51.748  1.00  0.00     0.031 A 
ENDBRANCH  21  24
ENDBRANCH  19  20
ENDBRANCH   1  19
TORSDOF 5
ENDMDL
MODEL 3
REMARK VINA RESULT:      -8.3      1.541      2.423
REMARK  5 active torsions:
REMARK  status: ('A' for Active; 'I' for Inactive)
REMARK    1  A    between atoms: C_3  and  N_4 
REMARK       I    between atoms: N_4  and  C_5 
REMARK    2  A    between atoms: C_5  and  C_6 
REMARK    3  A    between atoms: C_6  and  N_7 
REMARK       I    between atoms: N_7  and  C_8 
REMARK    4  A    between atoms: C_8  and  C_9 
REMARK    5  A    between atoms: C_13  and  C_14 
ROOT
HETATM    1  N   UNL     1     -43.475  55.818 -57.641  1.00  0.00    -0.347 N 
HETATM    2  C   UNL     1     -43.510  56.531 -56.471  1.00  0.00     0.270 C 
HETATM    3  O   UNL     1     -43.767  57.732 -56.466  1.00  0.00    -0.266 OA
HETATM    4  H   UNL     1     -43.208  54.844 -57.628  1.00  0.00     0.163 HD
ENDROOT
BRANCH   2   5
HETATM    5  C   UNL     1     -43.176  55.813 -55.276  1.00  0.00     0.120 A 
HETATM    6  N   UNL     1     -44.136  55.166 -54.543  1.00  0.00    -0.272 N 
HETATM    7  H   UNL     1     -45.130  55.116 -54.749  1.00  0.00     0.189 HD
HETATM    8  N   UNL     1     -43.671  54.544 -53.453  1.00  0.00    -0.173 NA
HETATM    9  C   UNL     1     -42.359  54.802 -53.469  1.00  0.00     0.093 A 
HETATM   10  C   UNL     1     -41.995  55.575 -54.596  1.00  0.00     0.071 A 
BRANCH   9  11
HETATM   11  C   UNL     1     -41.443  54.311 -52.440  1.00  0.00     0.044 A 
HETATM   12  C   UNL     1     -41.261  54.802 -51.157  1.00  0.00     0.041 A 
HETATM   13  C   UNL     1     -41.930  55.911 -50.429  1.00  0.00     0.071 C 
HETATM   14  N   UNL     1     -40.259  54.040 -50.616  1.00  0.00    -0.278 N 
HETATM   15  C   UNL     1     -39.637  54.166 -49.318  1.00  0.00     0.179 C 
HETATM   16  N   UNL     1     -39.824  53.063 -51.433  1.00  0.00    -0.177 NA
HETATM   17  C   UNL     1     -40.519  53.242 -52.564  1.00  0.00     0.065 A 
HETATM   18  C   UNL     1     -40.230  52.368 -53.729  1.00  0.00     0.073 C 
ENDBRANCH   9  11
ENDBRANCH   2   5
BRANCH   1  19
HETATM   19  C   UNL     1     -43.940  56.374 -58.906  1.00  0.00     0.226 C 
BRANCH  19  20
HETATM   20  C   UNL     1     -42.939  57.295 -59.622  1.00  0.00     0.239 C 
HETATM   21  N   UNL     1     -43.155  58.640 -59.379  1.00  0.00    -0.325 N 
HETATM   22  H   UNL     1     -43.955  58.847 -58.788  1.00  0.00     0.169 HD
HETATM   23  O   UNL     1     -42.117  56.817 -60.401  1.00  0.00    -0.271 OA
BRANCH  21  24
HETATM   24  C   UNL     1     -42.457  59.753 -59.900  1.00  0.00     0.040 A 
HETATM   25  C   UNL     1     -41.781  60.610 -59.001  1.00  0.00    -0.034 A 
HETATM   26  C   UNL     1     -41.746  60.358 -57.516  1.00  0.00     0.050 C 
HETATM   27  C   UNL     1     -41.107  61.742 -59.497  1.00  0.00     0.028 A 
HETATM   28  C   UNL     1     -41.095  62.017 -60.862  1.00  0.00     0.011 A 
HETATM   29  C   UNL     1     -41.745  61.171 -61.749  1.00  0.00     0.021 A 
HETATM   30 BR   UNL     1     -40.190  63.545 -61.507  1.00  0.00    -0.051 Br
HETATM   31  C   UNL     1     -42.420  60.044 -61.269  1.00  0.00     0.031 A 
ENDBRANCH  21  24
ENDBRANCH  19  20
ENDBRANCH   1  19
TORSDOF 5
ENDMDL
MODEL 4
REMARK VINA RESULT:      -8.3      7.698      9.780
REMARK  5 active torsions:
REMARK  status: ('A' for Active; 'I' for Inactive)
REMARK    1  A    between atoms: C_3  and  N_4 
REMARK       I    between atoms: N_4  and  C_5 
REMARK    2  A    between atoms: C_5  and  C_6 
REMARK    3  A    between atoms: C_6  and  N_7 
REMARK       I    between atoms: N_7  and  C_8 
REMARK    4  A    between atoms: C_8  and  C_9 
REMARK    5  A    between atoms: C_13  and  C_14 
ROOT
HETATM    1  N   UNL     1     -45.138  58.805 -50.483  1.00  0.00    -0.347 N 
HETATM    2  C   UNL     1     -44.102  58.576 -51.350  1.00  0.00     0.270 C 
HETATM    3  O   UNL     1     -43.649  59.476 -52.052  1.00  0.00    -0.266 OA
HETATM    4  H   UNL     1     -45.531  58.039 -49.955  1.00  0.00     0.163 HD
ENDROOT
BRANCH   2   5
HETATM    5  C   UNL     1     -43.621  57.227 -51.426  1.00  0.00     0.120 A 
HETATM    6  N   UNL     1     -44.317  56.190 -50.863  1.00  0.00    -0.272 N 
HETATM    7  H   UNL     1     -45.200  56.248 -50.364  1.00  0.00     0.189 HD
HETATM    8  N   UNL     1     -43.739  54.992 -51.015  1.00  0.00    -0.173 NA
HETATM    9  C   UNL     1     -42.619  55.257 -51.694  1.00  0.00     0.093 A 
HETATM   10  C   UNL     1     -42.506  56.636 -51.992  1.00  0.00     0.071 A 
BRANCH   9  11
HETATM   11  C   UNL     1     -41.663  54.220 -52.080  1.00  0.00     0.044 A 
HETATM   12  C   UNL     1     -41.520  53.610 -53.315  1.00  0.00     0.041 A 
HETATM   13  C   UNL     1     -42.233  53.822 -54.601  1.00  0.00     0.071 C 
HETATM   14  N   UNL     1     -40.531  52.676 -53.146  1.00  0.00    -0.278 N 
HETATM   15  C   UNL     1     -40.027  51.720 -54.105  1.00  0.00     0.179 C 
HETATM   16  N   UNL     1     -39.991  52.680 -51.913  1.00  0.00    -0.177 NA
HETATM   17  C   UNL     1     -40.699  53.598 -51.244  1.00  0.00     0.065 A 
HETATM   18  C   UNL     1     -40.416  53.812 -49.802  1.00  0.00     0.073 C 
ENDBRANCH   9  11
ENDBRANCH   2   5
BRANCH   1  19
HETATM   19  C   UNL     1     -45.622  60.148 -50.187  1.00  0.00     0.226 C 
BRANCH  19  20
HETATM   20  C   UNL     1     -44.884  60.872 -49.048  1.00  0.00     0.239 C 
HETATM   21  N   UNL     1     -45.597  60.902 -47.862  1.00  0.00    -0.325 N 
HETATM   22  H   UNL     1     -46.516  60.471 -47.901  1.00  0.00     0.169 HD
HETATM   23  O   UNL     1     -43.815  61.434 -49.271  1.00  0.00    -0.271 OA
BRANCH  21  24
HETATM   24  C   UNL     1     -45.242  61.510 -46.636  1.00  0.00     0.040 A 
HETATM   25  C   UNL     1     -45.513  62.887 -46.459  1.00  0.00    -0.034 A 
HETATM   26  C   UNL     1     -46.198  63.717 -47.512  1.00  0.00     0.050 C 
HETATM   27  C   UNL     1     -45.138  63.517 -45.257  1.00  0.00     0.028 A 
HETATM   28  C   UNL     1     -44.513  62.795 -44.244  1.00  0.00     0.011 A 
HETATM   29  C   UNL     1     -44.259  61.440 -44.408  1.00  0.00     0.021 A 
HETATM   30 BR   UNL     1     -44.012  63.661 -42.641  1.00  0.00    -0.051 Br
HETATM   31  C   UNL     1     -44.625  60.803 -45.598  1.00  0.00     0.031 A 
ENDBRANCH  21  24
ENDBRANCH  19  20
ENDBRANCH   1  19
TORSDOF 5
ENDMDL
MODEL 5
REMARK VINA RESULT:      -8.0      4.483      5.718
REMARK  5 active torsions:
REMARK  status: ('A' for Active; 'I' for Inactive)
REMARK    1  A    between atoms: C_3  and  N_4 
REMARK       I    between atoms: N_4  and  C_5 
REMARK    2  A    between atoms: C_5  and  C_6 
REMARK    3  A    between atoms: C_6  and  N_7 
REMARK       I    between atoms: N_7  and  C_8 
REMARK    4  A    between atoms: C_8  and  C_9 
REMARK    5  A    between atoms: C_13  and  C_14 
ROOT
HETATM    1  N   UNL     1     -43.675  56.571 -55.080  1.00  0.00    -0.347 N 
HETATM    2  C   UNL     1     -42.897  55.804 -55.907  1.00  0.00     0.270 C 
HETATM    3  O   UNL     1     -43.028  55.849 -57.127  1.00  0.00    -0.266 OA
HETATM    4  H   UNL     1     -43.588  56.478 -54.079  1.00  0.00     0.163 HD
ENDROOT
BRANCH   2   5
HETATM    5  C   UNL     1     -41.970  54.916 -55.268  1.00  0.00     0.120 A 
HETATM    6  N   UNL     1     -40.743  54.651 -55.818  1.00  0.00    -0.272 N 
HETATM    7  H   UNL     1     -40.367  55.032 -56.681  1.00  0.00     0.189 HD
HETATM    8  N   UNL     1     -39.993  53.800 -55.106  1.00  0.00    -0.173 NA
HETATM    9  C   UNL     1     -40.762  53.491 -54.058  1.00  0.00     0.093 A 
HETATM   10  C   UNL     1     -42.000  54.174 -54.101  1.00  0.00     0.071 A 
BRANCH   9  11
HETATM   11  C   UNL     1     -40.333  52.569 -53.006  1.00  0.00     0.044 A 
HETATM   12  C   UNL     1     -39.975  51.237 -53.135  1.00  0.00     0.041 A 
HETATM   13  C   UNL     1     -39.879  50.359 -54.330  1.00  0.00     0.071 C 
HETATM   14  N   UNL     1     -39.711  50.808 -51.860  1.00  0.00    -0.278 N 
HETATM   15  C   UNL     1     -39.351  49.481 -51.417  1.00  0.00     0.179 C 
HETATM   16  N   UNL     1     -39.819  51.777 -50.932  1.00  0.00    -0.177 NA
HETATM   17  C   UNL     1     -40.231  52.850 -51.618  1.00  0.00     0.065 A 
HETATM   18  C   UNL     1     -40.531  54.103 -50.880  1.00  0.00     0.073 C 
ENDBRANCH   9  11
ENDBRANCH   2   5
BRANCH   1  19
HETATM   19  C   UNL     1     -44.545  57.625 -55.588  1.00  0.00     0.226 C 
BRANCH  19  20
HETATM   20  C   UNL     1     -44.843  58.761 -54.595  1.00  0.00     0.239 C 
HETATM   21  N   UNL     1     -44.376  58.512 -53.317  1.00  0.00    -0.325 N 
HETATM   22  H   UNL     1     -43.925  57.610 -53.191  1.00  0.00     0.169 HD
HETATM   23  O   UNL     1     -45.524  59.720 -54.949  1.00  0.00    -0.271 OA
BRANCH  21  24
HETATM   24  C   UNL     1     -44.506  59.313 -52.160  1.00  0.00     0.040 A 
HETATM   25  C   UNL     1     -43.529  60.304 -51.907  1.00  0.00    -0.034 A 
HETATM   26  C   UNL     1     -42.380  60.563 -52.845  1.00  0.00     0.050 C 
HETATM   27  C   UNL     1     -43.625  61.090 -50.743  1.00  0.00     0.028 A 
HETATM   28  C   UNL     1     -44.673  60.904 -49.847  1.00  0.00     0.011 A 
HETATM   29  C   UNL     1     -45.642  59.941 -50.098  1.00  0.00     0.021 A 
HETATM   30 BR   UNL     1     -44.779  61.964 -48.287  1.00  0.00    -0.051 Br
HETATM   31  C   UNL     1     -45.558  59.153 -51.250  1.00  0.00     0.031 A 
ENDBRANCH  21  24
ENDBRANCH  19  20
ENDBRANCH   1  19
TORSDOF 5
ENDMDL
MODEL 6
REMARK VINA RESULT:      -7.9      7.107      8.773
REMARK  5 active torsions:
REMARK  status: ('A' for Active; 'I' for Inactive)
REMARK    1  A    between atoms: C_3  and  N_4 
REMARK       I    between atoms: N_4  and  C_5 
REMARK    2  A    between atoms: C_5  and  C_6 
REMARK    3  A    between atoms: C_6  and  N_7 
REMARK       I    between atoms: N_7  and  C_8 
REMARK    4  A    between atoms: C_8  and  C_9 
REMARK    5  A    between atoms: C_13  and  C_14 
ROOT
HETATM    1  N   UNL     1     -42.678  58.763 -50.962  1.00  0.00    -0.347 N 
HETATM    2  C   UNL     1     -43.022  58.080 -52.100  1.00  0.00     0.270 C 
HETATM    3  O   UNL     1     -43.599  58.640 -53.027  1.00  0.00    -0.266 OA
HETATM    4  H   UNL     1     -42.252  58.271 -50.190  1.00  0.00     0.163 HD
ENDROOT
BRANCH   2   5
HETATM    5  C   UNL     1     -42.719  56.678 -52.118  1.00  0.00     0.120 A 
HETATM    6  N   UNL     1     -43.713  55.736 -52.085  1.00  0.00    -0.272 N 
HETATM    7  H   UNL     1     -44.714  55.906 -52.052  1.00  0.00     0.189 HD
HETATM    8  N   UNL     1     -43.273  54.471 -52.104  1.00  0.00    -0.173 NA
HETATM    9  C   UNL     1     -41.943  54.593 -52.142  1.00  0.00     0.093 A 
HETATM   10  C   UNL     1     -41.545  55.950 -52.171  1.00  0.00     0.071 A 
BRANCH   9  11
HETATM   11  C   UNL     1     -41.043  53.440 -52.169  1.00  0.00     0.044 A 
HETATM   12  C   UNL     1     -40.668  52.677 -53.263  1.00  0.00     0.041 A 
HETATM   13  C   UNL     1     -41.011  52.795 -54.704  1.00  0.00     0.071 C 
HETATM   14  N   UNL     1     -39.862  51.690 -52.758  1.00  0.00    -0.278 N 
HETATM   15  C   UNL     1     -39.246  50.588 -53.459  1.00  0.00     0.179 C 
HETATM   16  N   UNL     1     -39.648  51.794 -51.433  1.00  0.00    -0.177 NA
HETATM   17  C   UNL     1     -40.393  52.842 -51.058  1.00  0.00     0.065 A 
HETATM   18  C   UNL     1     -40.454  53.201 -49.618  1.00  0.00     0.073 C 
ENDBRANCH   9  11
ENDBRANCH   2   5
BRANCH   1  19
HETATM   19  C   UNL     1     -42.781  60.214 -50.864  1.00  0.00     0.226 C 
BRANCH  19  20
HETATM   20  C   UNL     1     -44.060  60.734 -50.187  1.00  0.00     0.239 C 
HETATM   21  N   UNL     1     -43.839  61.263 -48.927  1.00  0.00    -0.325 N 
HETATM   22  H   UNL     1     -42.877  61.217 -48.603  1.00  0.00     0.169 HD
HETATM   23  O   UNL     1     -45.150  60.568 -50.728  1.00  0.00    -0.271 OA
BRANCH  21  24
HETATM   24  C   UNL     1     -44.781  61.791 -48.015  1.00  0.00     0.040 A 
HETATM   25  C   UNL     1     -44.863  63.194 -47.860  1.00  0.00    -0.034 A 
HETATM   26  C   UNL     1     -44.011  64.146 -48.658  1.00  0.00     0.050 C 
HETATM   27  C   UNL     1     -45.773  63.736 -46.933  1.00  0.00     0.028 A 
HETATM   28  C   UNL     1     -46.595  62.905 -46.178  1.00  0.00     0.011 A 
HETATM   29  C   UNL     1     -46.528  61.527 -46.337  1.00  0.00     0.021 A 
HETATM   30 BR   UNL     1     -47.805  63.652 -44.934  1.00  0.00    -0.051 Br
HETATM   31  C   UNL     1     -45.627  60.976 -47.254  1.00  0.00     0.031 A 
ENDBRANCH  21  24
ENDBRANCH  19  20
ENDBRANCH   1  19
TORSDOF 5
ENDMDL
MODEL 7
REMARK VINA RESULT:      -7.8      4.628      9.582
REMARK  5 active torsions:
REMARK  status: ('A' for Active; 'I' for Inactive)
REMARK    1  A    between atoms: C_3  and  N_4 
REMARK       I    between atoms: N_4  and  C_5 
REMARK    2  A    between atoms: C_5  and  C_6 
REMARK    3  A    between atoms: C_6  and  N_7 
REMARK       I    between atoms: N_7  and  C_8 
REMARK    4  A    between atoms: C_8  and  C_9 
REMARK    5  A    between atoms: C_13  and  C_14 
ROOT
HETATM    1  N   UNL     1     -43.015  59.711 -55.123  1.00  0.00    -0.347 N 
HETATM    2  C   UNL     1     -42.774  59.323 -56.415  1.00  0.00     0.270 C 
HETATM    3  O   UNL     1     -41.678  59.503 -56.939  1.00  0.00    -0.266 OA
HETATM    4  H   UNL     1     -43.939  59.602 -54.730  1.00  0.00     0.163 HD
ENDROOT
BRANCH   2   5
HETATM    5  C   UNL     1     -43.880  58.751 -57.127  1.00  0.00     0.120 A 
HETATM    6  N   UNL     1     -45.090  58.547 -56.516  1.00  0.00    -0.272 N 
HETATM    7  H   UNL     1     -45.333  58.768 -55.555  1.00  0.00     0.189 HD
HETATM    8  N   UNL     1     -46.021  58.002 -57.309  1.00  0.00    -0.173 NA
HETATM    9  C   UNL     1     -45.394  57.835 -58.477  1.00  0.00     0.093 A 
HETATM   10  C   UNL     1     -44.060  58.303 -58.423  1.00  0.00     0.071 A 
BRANCH   9  11
HETATM   11  C   UNL     1     -46.046  57.254 -59.650  1.00  0.00     0.044 A 
HETATM   12  C   UNL     1     -47.054  57.805 -60.425  1.00  0.00     0.041 A 
HETATM   13  C   UNL     1     -47.744  59.119 -60.345  1.00  0.00     0.071 C 
HETATM   14  N   UNL     1     -47.354  56.851 -61.362  1.00  0.00    -0.278 N 
HETATM   15  C   UNL     1     -48.376  56.886 -62.383  1.00  0.00     0.179 C 
HETATM   16  N   UNL     1     -46.579  55.753 -61.281  1.00  0.00    -0.177 NA
HETATM   17  C   UNL     1     -45.798  55.976 -60.216  1.00  0.00     0.065 A 
HETATM   18  C   UNL     1     -44.854  54.915 -59.783  1.00  0.00     0.073 C 
ENDBRANCH   9  11
ENDBRANCH   2   5
BRANCH   1  19
HETATM   19  C   UNL     1     -41.951  60.160 -54.234  1.00  0.00     0.226 C 
BRANCH  19  20
HETATM   20  C   UNL     1     -41.154  59.038 -53.549  1.00  0.00     0.239 C 
HETATM   21  N   UNL     1     -41.911  57.913 -53.274  1.00  0.00    -0.325 N 
HETATM   22  H   UNL     1     -42.892  57.981 -53.531  1.00  0.00     0.169 HD
HETATM   23  O   UNL     1     -39.987  59.231 -53.216  1.00  0.00    -0.271 OA
BRANCH  21  24
HETATM   24  C   UNL     1     -41.516  56.722 -52.624  1.00  0.00     0.040 A 
HETATM   25  C   UNL     1     -41.207  55.589 -53.413  1.00  0.00    -0.034 A 
HETATM   26  C   UNL     1     -41.245  55.619 -54.918  1.00  0.00     0.050 C 
HETATM   27  C   UNL     1     -40.843  54.385 -52.782  1.00  0.00     0.028 A 
HETATM   28  C   UNL     1     -40.778  54.304 -51.394  1.00  0.00     0.011 A 
HETATM   29  C   UNL     1     -41.067  55.416 -50.616  1.00  0.00     0.021 A 
HETATM   30 BR   UNL     1     -40.293  52.675 -50.567  1.00  0.00    -0.051 Br
HETATM   31  C   UNL     1     -41.431  56.619 -51.230  1.00  0.00     0.031 A 
ENDBRANCH  21  24
ENDBRANCH  19  20
ENDBRANCH   1  19
TORSDOF 5
ENDMDL
MODEL 8
REMARK VINA RESULT:      -7.7      4.728     10.422
REMARK  5 active torsions:
REMARK  status: ('A' for Active; 'I' for Inactive)
REMARK    1  A    between atoms: C_3  and  N_4 
REMARK       I    between atoms: N_4  and  C_5 
REMARK    2  A    between atoms: C_5  and  C_6 
REMARK    3  A    between atoms: C_6  and  N_7 
REMARK       I    between atoms: N_7  and  C_8 
REMARK    4  A    between atoms: C_8  and  C_9 
REMARK    5  A    between atoms: C_13  and  C_14 
ROOT
HETATM    1  N   UNL     1     -43.381  57.427 -55.094  1.00  0.00    -0.347 N 
HETATM    2  C   UNL     1     -43.265  57.728 -56.426  1.00  0.00     0.270 C 
HETATM    3  O   UNL     1     -42.167  57.907 -56.945  1.00  0.00    -0.266 OA
HETATM    4  H   UNL     1     -44.296  57.337 -54.677  1.00  0.00     0.163 HD
ENDROOT
BRANCH   2   5
HETATM    5  C   UNL     1     -44.492  57.875 -57.156  1.00  0.00     0.120 A 
HETATM    6  N   UNL     1     -45.696  57.980 -56.510  1.00  0.00    -0.272 N 
HETATM    7  H   UNL     1     -45.852  57.974 -55.507  1.00  0.00     0.189 HD
HETATM    8  N   UNL     1     -46.749  58.107 -57.327  1.00  0.00    -0.173 NA
HETATM    9  C   UNL     1     -46.214  58.075 -58.552  1.00  0.00     0.093 A 
HETATM   10  C   UNL     1     -44.805  57.949 -58.501  1.00  0.00     0.071 A 
BRANCH   9  11
HETATM   11  C   UNL     1     -47.017  58.178 -59.770  1.00  0.00     0.044 A 
HETATM   12  C   UNL     1     -47.248  57.200 -60.723  1.00  0.00     0.041 A 
HETATM   13  C   UNL     1     -46.809  55.783 -60.799  1.00  0.00     0.071 C 
HETATM   14  N   UNL     1     -48.010  57.806 -61.687  1.00  0.00    -0.278 N 
HETATM   15  C   UNL     1     -48.484  57.254 -62.935  1.00  0.00     0.179 C 
HETATM   16  N   UNL     1     -48.330  59.082 -61.399  1.00  0.00    -0.177 NA
HETATM   17  C   UNL     1     -47.699  59.329 -60.244  1.00  0.00     0.065 A 
HETATM   18  C   UNL     1     -47.774  60.693 -59.663  1.00  0.00     0.073 C 
ENDBRANCH   9  11
ENDBRANCH   2   5
BRANCH   1  19
HETATM   19  C   UNL     1     -42.226  57.096 -54.269  1.00  0.00     0.226 C 
BRANCH  19  20
HETATM   20  C   UNL     1     -42.229  55.675 -53.680  1.00  0.00     0.239 C 
HETATM   21  N   UNL     1     -40.985  55.257 -53.243  1.00  0.00    -0.325 N 
HETATM   22  H   UNL     1     -40.231  55.923 -53.389  1.00  0.00     0.169 HD
HETATM   23  O   UNL     1     -43.253  54.998 -53.721  1.00  0.00    -0.271 OA
BRANCH  21  24
HETATM   24  C   UNL     1     -40.618  54.010 -52.689  1.00  0.00     0.040 A 
HETATM   25  C   UNL     1     -40.268  52.955 -53.564  1.00  0.00    -0.034 A 
HETATM   26  C   UNL     1     -40.235  53.125 -55.060  1.00  0.00     0.050 C 
HETATM   27  C   UNL     1     -39.932  51.697 -53.032  1.00  0.00     0.028 A 
HETATM   28  C   UNL     1     -39.932  51.486 -51.656  1.00  0.00     0.011 A 
HETATM   29  C   UNL     1     -40.262  52.522 -50.792  1.00  0.00     0.021 A 
HETATM   30 BR   UNL     1     -39.484  49.787 -50.962  1.00  0.00    -0.051 Br
HETATM   31  C   UNL     1     -40.599  53.777 -51.308  1.00  0.00     0.031 A 
ENDBRANCH  21  24
ENDBRANCH  19  20
ENDBRANCH   1  19
TORSDOF 5
ENDMDL
MODEL 9
REMARK VINA RESULT:      -7.6     15.684     18.969
REMARK  5 active torsions:
REMARK  status: ('A' for Active; 'I' for Inactive)
REMARK    1  A    between atoms: C_3  and  N_4 
REMARK       I    between atoms: N_4  and  C_5 
REMARK    2  A    between atoms: C_5  and  C_6 
REMARK    3  A    between atoms: C_6  and  N_7 
REMARK       I    between atoms: N_7  and  C_8 
REMARK    4  A    between atoms: C_8  and  C_9 
REMARK    5  A    between atoms: C_13  and  C_14 
ROOT
HETATM    1  N   UNL     1     -34.112  41.216 -50.695  1.00  0.00    -0.347 N 
HETATM    2  C   UNL     1     -32.875  40.643 -50.840  1.00  0.00     0.270 C 
HETATM    3  O   UNL     1     -32.229  40.777 -51.876  1.00  0.00    -0.266 OA
HETATM    4  H   UNL     1     -34.648  41.048 -49.857  1.00  0.00     0.163 HD
ENDROOT
BRANCH   2   5
HETATM    5  C   UNL     1     -32.411  39.842 -49.745  1.00  0.00     0.120 A 
HETATM    6  N   UNL     1     -32.369  38.475 -49.831  1.00  0.00    -0.272 N 
HETATM    7  H   UNL     1     -32.636  37.906 -50.629  1.00  0.00     0.189 HD
HETATM    8  N   UNL     1     -31.917  37.868 -48.727  1.00  0.00    -0.173 NA
HETATM    9  C   UNL     1     -31.663  38.875 -47.885  1.00  0.00     0.093 A 
HETATM   10  C   UNL     1     -31.938  40.130 -48.478  1.00  0.00     0.071 A 
BRANCH   9  11
HETATM   11  C   UNL     1     -31.148  38.665 -46.532  1.00  0.00     0.044 A 
HETATM   12  C   UNL     1     -31.831  38.187 -45.426  1.00  0.00     0.041 A 
HETATM   13  C   UNL     1     -33.232  37.718 -45.266  1.00  0.00     0.071 C 
HETATM   14  N   UNL     1     -30.928  38.231 -44.396  1.00  0.00    -0.278 N 
HETATM   15  C   UNL     1     -31.135  37.899 -43.005  1.00  0.00     0.179 C 
HETATM   16  N   UNL     1     -29.703  38.648 -44.770  1.00  0.00    -0.177 NA
HETATM   17  C   UNL     1     -29.838  38.948 -46.068  1.00  0.00     0.065 A 
HETATM   18  C   UNL     1     -28.677  39.522 -46.795  1.00  0.00     0.073 C 
ENDBRANCH   9  11
ENDBRANCH   2   5
BRANCH   1  19
HETATM   19  C   UNL     1     -34.641  42.178 -51.655  1.00  0.00     0.226 C 
BRANCH  19  20
HETATM   20  C   UNL     1     -35.374  41.564 -52.859  1.00  0.00     0.239 C 
HETATM   21  N   UNL     1     -35.108  42.210 -54.054  1.00  0.00    -0.325 N 
HETATM   22  H   UNL     1     -34.491  43.015 -53.980  1.00  0.00     0.169 HD
HETATM   23  O   UNL     1     -36.181  40.655 -52.686  1.00  0.00    -0.271 OA
BRANCH  21  24
HETATM   24  C   UNL     1     -35.633  41.941 -55.338  1.00  0.00     0.040 A 
HETATM   25  C   UNL     1     -34.808  41.294 -56.287  1.00  0.00    -0.034 A 
HETATM   26  C   UNL     1     -33.405  40.849 -55.966  1.00  0.00     0.050 C 
HETATM   27  C   UNL     1     -35.303  41.047 -57.581  1.00  0.00     0.028 A 
HETATM   28  C   UNL     1     -36.596  41.424 -57.928  1.00  0.00     0.011 A 
HETATM   29  C   UNL     1     -37.416  42.046 -56.996  1.00  0.00     0.021 A 
HETATM   30 BR   UNL     1     -37.240  41.089 -59.673  1.00  0.00    -0.051 Br
HETATM   31  C   UNL     1     -36.935  42.300 -55.707  1.00  0.00     0.031 A 
ENDBRANCH  21  24
ENDBRANCH  19  20
ENDBRANCH   1  19
TORSDOF 5
ENDMDL
MODEL 10
REMARK VINA RESULT:      -7.6     15.956     19.164
REMARK  5 active torsions:
REMARK  status: ('A' for Active; 'I' for Inactive)
REMARK    1  A    between atoms: C_3  and  N_4 
REMARK       I    between atoms: N_4  and  C_5 
REMARK    2  A    between atoms: C_5  and  C_6 
REMARK    3  A    between atoms: C_6  and  N_7 
REMARK       I    between atoms: N_7  and  C_8 
REMARK    4  A    between atoms: C_8  and  C_9 
REMARK    5  A    between atoms: C_13  and  C_14 
ROOT
HETATM    1  N   UNL     1     -36.455  41.472 -56.341  1.00  0.00    -0.347 N 
HETATM    2  C   UNL     1     -37.746  41.059 -56.543  1.00  0.00     0.270 C 
HETATM    3  O   UNL     1     -38.661  41.462 -55.831  1.00  0.00    -0.266 OA
HETATM    4  H   UNL     1     -35.710  41.086 -56.903  1.00  0.00     0.163 HD
ENDROOT
BRANCH   2   5
HETATM    5  C   UNL     1     -37.952  40.098 -57.588  1.00  0.00     0.120 A 
HETATM    6  N   UNL     1     -37.790  38.756 -57.362  1.00  0.00    -0.272 N 
HETATM    7  H   UNL     1     -37.529  38.312 -56.487  1.00  0.00     0.189 HD
HETATM    8  N   UNL     1     -38.014  37.987 -58.435  1.00  0.00    -0.173 NA
HETATM    9  C   UNL     1     -38.326  38.859 -59.398  1.00  0.00     0.093 A 
HETATM   10  C   UNL     1     -38.319  40.190 -58.918  1.00  0.00     0.071 A 
BRANCH   9  11
HETATM   11  C   UNL     1     -38.646  38.448 -60.765  1.00  0.00     0.044 A 
HETATM   12  C   UNL     1     -39.877  38.068 -61.274  1.00  0.00     0.041 A 
HETATM   13  C   UNL     1     -41.218  37.991 -60.639  1.00  0.00     0.071 C 
HETATM   14  N   UNL     1     -39.640  37.726 -62.580  1.00  0.00    -0.278 N 
HETATM   15  C   UNL     1     -40.570  37.203 -63.553  1.00  0.00     0.179 C 
HETATM   16  N   UNL     1     -38.362  37.910 -62.962  1.00  0.00    -0.177 NA
HETATM   17  C   UNL     1     -37.739  38.320 -61.850  1.00  0.00     0.065 A 
HETATM   18  C   UNL     1     -36.273  38.548 -61.891  1.00  0.00     0.073 C 
ENDBRANCH   9  11
ENDBRANCH   2   5
BRANCH   1  19
HETATM   19  C   UNL     1     -36.119  42.555 -55.425  1.00  0.00     0.226 C 
BRANCH  19  20
HETATM   20  C   UNL     1     -35.812  42.120 -53.983  1.00  0.00     0.239 C 
HETATM   21  N   UNL     1     -34.528  41.630 -53.816  1.00  0.00    -0.325 N 
HETATM   22  H   UNL     1     -33.968  41.595 -54.663  1.00  0.00     0.169 HD
HETATM   23  O   UNL     1     -36.701  42.138 -53.136  1.00  0.00    -0.271 OA
BRANCH  21  24
HETATM   24  C   UNL     1     -33.927  41.113 -52.647  1.00  0.00     0.040 A 
HETATM   25  C   UNL     1     -32.756  40.329 -52.775  1.00  0.00    -0.034 A 
HETATM   26  C   UNL     1     -32.107  40.060 -54.108  1.00  0.00     0.050 C 
HETATM   27  C   UNL     1     -32.162  39.779 -51.625  1.00  0.00     0.028 A 
HETATM   28  C   UNL     1     -32.711  40.005 -50.366  1.00  0.00     0.011 A 
HETATM   29  C   UNL     1     -33.852  40.785 -50.233  1.00  0.00     0.021 A 
HETATM   30 BR   UNL     1     -31.901  39.252 -48.834  1.00  0.00    -0.051 Br
HETATM   31  C   UNL     1     -34.453  41.337 -51.369  1.00  0.00     0.031 A 
ENDBRANCH  21  24
ENDBRANCH  19  20
ENDBRANCH   1  19
TORSDOF 5
ENDMDL
