MODEL 1
REMARK VINA RESULT:      -8.3      0.000      0.000
REMARK  1 active torsions:
REMARK  status: ('A' for Active; 'I' for Inactive)
REMARK    1  A    between atoms: C_8  and  C_9 
ROOT
HETATM    1  C   UNL     1     -43.817  54.803 -50.616  1.00  0.00     0.073 C 
HETATM    2  C   UNL     1     -43.957  56.246 -50.959  1.00  0.00     0.062 A 
HETATM    3  N   UNL     1     -45.070  56.890 -50.601  1.00  0.00    -0.178 NA
HETATM    4  N   UNL     1     -44.851  58.145 -50.993  1.00  0.00    -0.262 N 
HETATM    5  H   UNL     1     -45.567  58.833 -50.793  1.00  0.00     0.191 HD
HETATM    6  C   UNL     1     -43.658  58.340 -51.640  1.00  0.00     0.134 A 
HETATM    7  C   UNL     1     -43.029  57.104 -51.655  1.00  0.00     0.032 A 
HETATM    8  C   UNL     1     -41.664  56.677 -52.107  1.00  0.00     0.120 C 
HETATM    9  S   UNL     1     -40.485  57.979 -52.545  1.00  0.00    -0.141 SA
HETATM   10  C   UNL     1     -41.429  59.098 -53.616  1.00  0.00     0.136 C 
HETATM   11  C   UNL     1     -42.170  58.504 -54.801  1.00  0.00     0.031 C 
HETATM   12  C   UNL     1     -42.308  60.044 -52.822  1.00  0.00     0.236 C 
HETATM   13  O   UNL     1     -42.174  61.269 -52.944  1.00  0.00    -0.272 OA
HETATM   14  N   UNL     1     -43.345  59.614 -52.055  1.00  0.00    -0.311 N 
HETATM   15  H   UNL     1     -43.910  60.389 -51.722  1.00  0.00     0.170 HD
ENDROOT
BRANCH   8  16
HETATM   16  C   UNL     1     -41.737  55.521 -53.116  1.00  0.00    -0.029 A 
HETATM   17  C   UNL     1     -41.052  54.281 -52.856  1.00  0.00    -0.018 A 
HETATM   18  C   UNL     1     -41.156  53.224 -53.801  1.00  0.00    -0.025 A 
HETATM   19  C   UNL     1     -40.268  54.017 -51.703  1.00  0.00     0.013 A 
HETATM   20  C   UNL     1     -40.513  51.994 -53.576  1.00  0.00     0.012 A 
HETATM   21  C   UNL     1     -41.906  53.392 -54.968  1.00  0.00     0.012 A 
HETATM   22  C   UNL     1     -39.757  51.776 -52.427  1.00  0.00     0.001 A 
HETATM   23  C   UNL     1     -39.633  52.789 -51.491  1.00  0.00     0.001 A 
HETATM   24  C   UNL     1     -42.567  54.586 -55.223  1.00  0.00     0.002 A 
HETATM   25  C   UNL     1     -42.484  55.632 -54.310  1.00  0.00     0.009 A 
ENDBRANCH   8  16
TORSDOF 1
ENDMDL
MODEL 2
REMARK VINA RESULT:      -7.8      3.557      5.987
REMARK  1 active torsions:
REMARK  status: ('A' for Active; 'I' for Inactive)
REMARK    1  A    between atoms: C_8  and  C_9 
ROOT
HETATM    1  C   UNL     1     -41.348  55.950 -49.379  1.00  0.00     0.073 C 
HETATM    2  C   UNL     1     -40.747  54.853 -50.187  1.00  0.00     0.062 A 
HETATM    3  N   UNL     1     -39.761  54.125 -49.658  1.00  0.00    -0.178 NA
HETATM    4  N   UNL     1     -39.501  53.213 -50.594  1.00  0.00    -0.262 N 
HETATM    5  H   UNL     1     -38.790  52.520 -50.393  1.00  0.00     0.191 HD
HETATM    6  C   UNL     1     -40.244  53.344 -51.739  1.00  0.00     0.134 A 
HETATM    7  C   UNL     1     -41.081  54.428 -51.526  1.00  0.00     0.032 A 
HETATM    8  C   UNL     1     -42.201  55.009 -52.338  1.00  0.00     0.120 C 
HETATM    9  S   UNL     1     -42.758  54.069 -53.781  1.00  0.00    -0.141 SA
HETATM   10  C   UNL     1     -41.227  53.614 -54.639  1.00  0.00     0.136 C 
HETATM   11  C   UNL     1     -40.227  54.712 -54.959  1.00  0.00     0.031 C 
HETATM   12  C   UNL     1     -40.554  52.410 -54.010  1.00  0.00     0.236 C 
HETATM   13  O   UNL     1     -40.337  51.394 -54.683  1.00  0.00    -0.272 OA
HETATM   14  N   UNL     1     -40.053  52.426 -52.745  1.00  0.00    -0.311 N 
HETATM   15  H   UNL     1     -39.509  51.591 -52.549  1.00  0.00     0.170 HD
ENDROOT
BRANCH   8  16
HETATM   16  C   UNL     1     -41.995  56.509 -52.598  1.00  0.00    -0.029 A 
HETATM   17  C   UNL     1     -42.998  57.463 -52.202  1.00  0.00    -0.018 A 
HETATM   18  C   UNL     1     -42.767  58.845 -52.438  1.00  0.00    -0.025 A 
HETATM   19  C   UNL     1     -44.226  57.130 -51.572  1.00  0.00     0.013 A 
HETATM   20  C   UNL     1     -43.717  59.808 -52.054  1.00  0.00     0.012 A 
HETATM   21  C   UNL     1     -41.586  59.268 -53.055  1.00  0.00     0.012 A 
HETATM   22  C   UNL     1     -44.907  59.438 -51.435  1.00  0.00     0.001 A 
HETATM   23  C   UNL     1     -45.163  58.098 -51.194  1.00  0.00     0.001 A 
HETATM   24  C   UNL     1     -40.617  58.352 -53.438  1.00  0.00     0.002 A 
HETATM   25  C   UNL     1     -40.818  56.994 -53.211  1.00  0.00     0.009 A 
ENDBRANCH   8  16
TORSDOF 1
ENDMDL
MODEL 3
REMARK VINA RESULT:      -7.7      2.021      3.535
REMARK  1 active torsions:
REMARK  status: ('A' for Active; 'I' for Inactive)
REMARK    1  A    between atoms: C_8  and  C_9 
ROOT
HETATM    1  C   UNL     1     -39.115  58.471 -51.167  1.00  0.00     0.073 C 
HETATM    2  C   UNL     1     -40.452  59.103 -50.988  1.00  0.00     0.062 A 
HETATM    3  N   UNL     1     -40.557  60.186 -50.215  1.00  0.00    -0.178 NA
HETATM    4  N   UNL     1     -41.841  60.527 -50.318  1.00  0.00    -0.262 N 
HETATM    5  H   UNL     1     -42.150  61.357 -49.825  1.00  0.00     0.191 HD
HETATM    6  C   UNL     1     -42.595  59.681 -51.089  1.00  0.00     0.134 A 
HETATM    7  C   UNL     1     -41.721  58.708 -51.551  1.00  0.00     0.032 A 
HETATM    8  C   UNL     1     -41.897  57.577 -52.520  1.00  0.00     0.120 C 
HETATM    9  S   UNL     1     -43.446  57.513 -53.454  1.00  0.00    -0.141 SA
HETATM   10  C   UNL     1     -44.735  57.778 -52.206  1.00  0.00     0.136 C 
HETATM   11  C   UNL     1     -44.722  56.907 -50.962  1.00  0.00     0.031 C 
HETATM   12  C   UNL     1     -44.906  59.245 -51.861  1.00  0.00     0.236 C 
HETATM   13  O   UNL     1     -46.003  59.796 -52.012  1.00  0.00    -0.272 OA
HETATM   14  N   UNL     1     -43.927  59.978 -51.266  1.00  0.00    -0.311 N 
HETATM   15  H   UNL     1     -44.268  60.889 -50.975  1.00  0.00     0.170 HD
ENDROOT
BRANCH   8  16
HETATM   16  C   UNL     1     -41.469  56.235 -51.908  1.00  0.00    -0.029 A 
HETATM   17  C   UNL     1     -41.062  55.143 -52.755  1.00  0.00    -0.018 A 
HETATM   18  C   UNL     1     -40.652  53.921 -52.156  1.00  0.00    -0.025 A 
HETATM   19  C   UNL     1     -41.027  55.190 -54.173  1.00  0.00     0.013 A 
HETATM   20  C   UNL     1     -40.236  52.837 -52.950  1.00  0.00     0.012 A 
HETATM   21  C   UNL     1     -40.654  53.781 -50.766  1.00  0.00     0.012 A 
HETATM   22  C   UNL     1     -40.213  52.928 -54.338  1.00  0.00     0.001 A 
HETATM   23  C   UNL     1     -40.610  54.105 -54.951  1.00  0.00     0.001 A 
HETATM   24  C   UNL     1     -41.047  54.829 -49.946  1.00  0.00     0.002 A 
HETATM   25  C   UNL     1     -41.445  56.037 -50.509  1.00  0.00     0.009 A 
ENDBRANCH   8  16
TORSDOF 1
ENDMDL
MODEL 4
REMARK VINA RESULT:      -7.6      3.486      5.855
REMARK  1 active torsions:
REMARK  status: ('A' for Active; 'I' for Inactive)
REMARK    1  A    between atoms: C_8  and  C_9 
ROOT
HETATM    1  C   UNL     1     -40.149  54.031 -55.086  1.00  0.00     0.073 C 
HETATM    2  C   UNL     1     -40.222  53.419 -53.730  1.00  0.00     0.062 A 
HETATM    3  N   UNL     1     -39.910  52.130 -53.586  1.00  0.00    -0.178 NA
HETATM    4  N   UNL     1     -40.014  51.923 -52.273  1.00  0.00    -0.262 N 
HETATM    5  H   UNL     1     -39.790  51.000 -51.922  1.00  0.00     0.191 HD
HETATM    6  C   UNL     1     -40.431  53.015 -51.555  1.00  0.00     0.134 A 
HETATM    7  C   UNL     1     -40.595  54.035 -52.479  1.00  0.00     0.032 A 
HETATM    8  C   UNL     1     -40.919  55.491 -52.321  1.00  0.00     0.120 C 
HETATM    9  S   UNL     1     -40.920  56.168 -50.643  1.00  0.00    -0.141 SA
HETATM   10  C   UNL     1     -41.878  54.970 -49.676  1.00  0.00     0.136 C 
HETATM   11  C   UNL     1     -43.250  54.566 -50.185  1.00  0.00     0.031 C 
HETATM   12  C   UNL     1     -41.051  53.762 -49.279  1.00  0.00     0.236 C 
HETATM   13  O   UNL     1     -40.911  53.467 -48.085  1.00  0.00    -0.272 OA
HETATM   14  N   UNL     1     -40.540  52.890 -50.190  1.00  0.00    -0.311 N 
HETATM   15  H   UNL     1     -40.149  52.068 -49.740  1.00  0.00     0.170 HD
ENDROOT
BRANCH   8  16
HETATM   16  C   UNL     1     -42.134  55.897 -53.170  1.00  0.00    -0.029 A 
HETATM   17  C   UNL     1     -42.238  57.231 -53.703  1.00  0.00    -0.018 A 
HETATM   18  C   UNL     1     -43.365  57.568 -54.502  1.00  0.00    -0.025 A 
HETATM   19  C   UNL     1     -41.282  58.260 -53.500  1.00  0.00     0.013 A 
HETATM   20  C   UNL     1     -43.496  58.857 -55.050  1.00  0.00     0.012 A 
HETATM   21  C   UNL     1     -44.360  56.620 -54.756  1.00  0.00     0.012 A 
HETATM   22  C   UNL     1     -42.532  59.835 -54.829  1.00  0.00     0.001 A 
HETATM   23  C   UNL     1     -41.425  59.538 -54.052  1.00  0.00     0.001 A 
HETATM   24  C   UNL     1     -44.263  55.334 -54.243  1.00  0.00     0.002 A 
HETATM   25  C   UNL     1     -43.166  54.979 -53.465  1.00  0.00     0.009 A 
ENDBRANCH   8  16
TORSDOF 1
ENDMDL
MODEL 5
REMARK VINA RESULT:      -7.0      3.287      5.943
REMARK  1 active torsions:
REMARK  status: ('A' for Active; 'I' for Inactive)
REMARK    1  A    between atoms: C_8  and  C_9 
ROOT
HETATM    1  C   UNL     1     -43.967  56.680 -50.977  1.00  0.00     0.073 C 
HETATM    2  C   UNL     1     -43.097  55.498 -51.233  1.00  0.00     0.062 A 
HETATM    3  N   UNL     1     -42.642  54.795 -50.194  1.00  0.00    -0.178 NA
HETATM    4  N   UNL     1     -41.966  53.795 -50.759  1.00  0.00    -0.262 N 
HETATM    5  H   UNL     1     -41.547  53.104 -50.149  1.00  0.00     0.191 HD
HETATM    6  C   UNL     1     -41.919  53.842 -52.129  1.00  0.00     0.134 A 
HETATM    7  C   UNL     1     -42.647  54.963 -52.495  1.00  0.00     0.032 A 
HETATM    8  C   UNL     1     -43.065  55.498 -53.833  1.00  0.00     0.120 C 
HETATM    9  S   UNL     1     -42.775  54.447 -55.278  1.00  0.00    -0.141 SA
HETATM   10  C   UNL     1     -41.066  53.874 -55.082  1.00  0.00     0.136 C 
HETATM   11  C   UNL     1     -39.983  54.910 -54.839  1.00  0.00     0.031 C 
HETATM   12  C   UNL     1     -40.958  52.714 -54.112  1.00  0.00     0.236 C 
HETATM   13  O   UNL     1     -40.474  51.636 -54.480  1.00  0.00    -0.272 OA
HETATM   14  N   UNL     1     -41.261  52.831 -52.791  1.00  0.00    -0.311 N 
HETATM   15  H   UNL     1     -40.987  52.002 -52.271  1.00  0.00     0.170 HD
ENDROOT
BRANCH   8  16
HETATM   16  C   UNL     1     -42.637  56.962 -54.017  1.00  0.00    -0.029 A 
HETATM   17  C   UNL     1     -43.493  57.891 -54.708  1.00  0.00    -0.018 A 
HETATM   18  C   UNL     1     -43.077  59.244 -54.843  1.00  0.00    -0.025 A 
HETATM   19  C   UNL     1     -44.753  57.563 -55.272  1.00  0.00     0.013 A 
HETATM   20  C   UNL     1     -43.891  60.183 -55.500  1.00  0.00     0.012 A 
HETATM   21  C   UNL     1     -41.849  59.660 -54.320  1.00  0.00     0.012 A 
HETATM   22  C   UNL     1     -45.123  59.819 -56.035  1.00  0.00     0.001 A 
HETATM   23  C   UNL     1     -45.554  58.508 -55.923  1.00  0.00     0.001 A 
HETATM   24  C   UNL     1     -41.021  58.767 -53.654  1.00  0.00     0.002 A 
HETATM   25  C   UNL     1     -41.411  57.440 -53.504  1.00  0.00     0.009 A 
ENDBRANCH   8  16
TORSDOF 1
ENDMDL
MODEL 6
REMARK VINA RESULT:      -7.0      2.698      4.451
REMARK  1 active torsions:
REMARK  status: ('A' for Active; 'I' for Inactive)
REMARK    1  A    between atoms: C_8  and  C_9 
ROOT
HETATM    1  C   UNL     1     -40.146  58.589 -53.015  1.00  0.00     0.073 C 
HETATM    2  C   UNL     1     -41.033  59.140 -51.953  1.00  0.00     0.062 A 
HETATM    3  N   UNL     1     -40.480  59.644 -50.848  1.00  0.00    -0.178 NA
HETATM    4  N   UNL     1     -41.521  60.098 -50.151  1.00  0.00    -0.262 N 
HETATM    5  H   UNL     1     -41.334  60.558 -49.268  1.00  0.00     0.191 HD
HETATM    6  C   UNL     1     -42.742  59.867 -50.733  1.00  0.00     0.134 A 
HETATM    7  C   UNL     1     -42.473  59.221 -51.930  1.00  0.00     0.032 A 
HETATM    8  C   UNL     1     -43.358  58.806 -53.068  1.00  0.00     0.120 C 
HETATM    9  S   UNL     1     -45.071  59.388 -53.048  1.00  0.00    -0.141 SA
HETATM   10  C   UNL     1     -45.639  59.054 -51.358  1.00  0.00     0.136 C 
HETATM   11  C   UNL     1     -45.450  57.655 -50.798  1.00  0.00     0.031 C 
HETATM   12  C   UNL     1     -45.178  60.116 -50.378  1.00  0.00     0.236 C 
HETATM   13  O   UNL     1     -46.006  60.756 -49.717  1.00  0.00    -0.272 OA
HETATM   14  N   UNL     1     -43.866  60.327 -50.088  1.00  0.00    -0.311 N 
HETATM   15  H   UNL     1     -43.755  60.966 -49.307  1.00  0.00     0.170 HD
ENDROOT
BRANCH   8  16
HETATM   16  C   UNL     1     -43.199  57.313 -53.395  1.00  0.00    -0.029 A 
HETATM   17  C   UNL     1     -43.147  56.867 -54.763  1.00  0.00    -0.018 A 
HETATM   18  C   UNL     1     -42.978  55.481 -55.031  1.00  0.00    -0.025 A 
HETATM   19  C   UNL     1     -43.245  57.718 -55.895  1.00  0.00     0.013 A 
HETATM   20  C   UNL     1     -42.910  55.009 -56.354  1.00  0.00     0.012 A 
HETATM   21  C   UNL     1     -42.873  54.566 -53.979  1.00  0.00     0.012 A 
HETATM   22  C   UNL     1     -43.006  55.879 -57.435  1.00  0.00     0.001 A 
HETATM   23  C   UNL     1     -43.175  57.234 -57.206  1.00  0.00     0.001 A 
HETATM   24  C   UNL     1     -42.924  54.992 -52.659  1.00  0.00     0.002 A 
HETATM   25  C   UNL     1     -43.081  56.345 -52.373  1.00  0.00     0.009 A 
ENDBRANCH   8  16
TORSDOF 1
ENDMDL
MODEL 7
REMARK VINA RESULT:      -6.9      3.245      5.909
REMARK  1 active torsions:
REMARK  status: ('A' for Active; 'I' for Inactive)
REMARK    1  A    between atoms: C_8  and  C_9 
ROOT
HETATM    1  C   UNL     1     -41.982  55.118 -50.002  1.00  0.00     0.073 C 
HETATM    2  C   UNL     1     -41.896  54.656 -51.415  1.00  0.00     0.062 A 
HETATM    3  N   UNL     1     -41.198  53.552 -51.692  1.00  0.00    -0.178 NA
HETATM    4  N   UNL     1     -41.373  53.387 -53.003  1.00  0.00    -0.262 N 
HETATM    5  H   UNL     1     -40.947  52.577 -53.437  1.00  0.00     0.191 HD
HETATM    6  C   UNL     1     -42.118  54.367 -53.607  1.00  0.00     0.134 A 
HETATM    7  C   UNL     1     -42.482  55.243 -52.596  1.00  0.00     0.032 A 
HETATM    8  C   UNL     1     -43.384  56.442 -52.581  1.00  0.00     0.120 C 
HETATM    9  S   UNL     1     -44.372  56.759 -54.063  1.00  0.00    -0.141 SA
HETATM   10  C   UNL     1     -43.196  56.592 -55.433  1.00  0.00     0.136 C 
HETATM   11  C   UNL     1     -41.900  57.381 -55.368  1.00  0.00     0.031 C 
HETATM   12  C   UNL     1     -42.951  55.142 -55.804  1.00  0.00     0.236 C 
HETATM   13  O   UNL     1     -43.180  54.747 -56.955  1.00  0.00    -0.272 OA
HETATM   14  N   UNL     1     -42.366  54.255 -54.955  1.00  0.00    -0.311 N 
HETATM   15  H   UNL     1     -42.147  53.381 -55.423  1.00  0.00     0.170 HD
ENDROOT
BRANCH   8  16
HETATM   16  C   UNL     1     -42.671  57.680 -52.015  1.00  0.00    -0.029 A 
HETATM   17  C   UNL     1     -43.417  58.696 -51.318  1.00  0.00    -0.018 A 
HETATM   18  C   UNL     1     -42.725  59.819 -50.789  1.00  0.00    -0.025 A 
HETATM   19  C   UNL     1     -44.820  58.664 -51.102  1.00  0.00     0.013 A 
HETATM   20  C   UNL     1     -43.416  60.825 -50.091  1.00  0.00     0.012 A 
HETATM   21  C   UNL     1     -41.342  59.937 -50.953  1.00  0.00     0.012 A 
HETATM   22  C   UNL     1     -44.793  60.752 -49.898  1.00  0.00     0.001 A 
HETATM   23  C   UNL     1     -45.495  59.672 -50.405  1.00  0.00     0.001 A 
HETATM   24  C   UNL     1     -40.620  58.961 -51.625  1.00  0.00     0.002 A 
HETATM   25  C   UNL     1     -41.275  57.849 -52.146  1.00  0.00     0.009 A 
ENDBRANCH   8  16
TORSDOF 1
ENDMDL
MODEL 8
REMARK VINA RESULT:      -6.7      2.953      5.312
REMARK  1 active torsions:
REMARK  status: ('A' for Active; 'I' for Inactive)
REMARK    1  A    between atoms: C_8  and  C_9 
ROOT
HETATM    1  C   UNL     1     -41.755  59.789 -53.505  1.00  0.00     0.073 C 
HETATM    2  C   UNL     1     -41.268  58.983 -52.350  1.00  0.00     0.062 A 
HETATM    3  N   UNL     1     -40.224  59.427 -51.647  1.00  0.00    -0.178 NA
HETATM    4  N   UNL     1     -40.092  58.527 -50.673  1.00  0.00    -0.262 N 
HETATM    5  H   UNL     1     -39.364  58.678 -49.986  1.00  0.00     0.191 HD
HETATM    6  C   UNL     1     -40.978  57.482 -50.738  1.00  0.00     0.134 A 
HETATM    7  C   UNL     1     -41.777  57.731 -51.844  1.00  0.00     0.032 A 
HETATM    8  C   UNL     1     -42.991  57.036 -52.384  1.00  0.00     0.120 C 
HETATM    9  S   UNL     1     -43.735  55.743 -51.360  1.00  0.00    -0.141 SA
HETATM   10  C   UNL     1     -42.332  54.724 -50.831  1.00  0.00     0.136 C 
HETATM   11  C   UNL     1     -41.378  54.205 -51.893  1.00  0.00     0.031 C 
HETATM   12  C   UNL     1     -41.586  55.338 -49.662  1.00  0.00     0.236 C 
HETATM   13  O   UNL     1     -41.462  54.710 -48.602  1.00  0.00    -0.272 OA
HETATM   14  N   UNL     1     -40.924  56.523 -49.754  1.00  0.00    -0.311 N 
HETATM   15  H   UNL     1     -40.362  56.701 -48.927  1.00  0.00     0.170 HD
ENDROOT
BRANCH   8  16
HETATM   16  C   UNL     1     -42.815  56.653 -53.861  1.00  0.00    -0.029 A 
HETATM   17  C   UNL     1     -43.689  57.202 -54.866  1.00  0.00    -0.018 A 
HETATM   18  C   UNL     1     -43.486  56.843 -56.227  1.00  0.00    -0.025 A 
HETATM   19  C   UNL     1     -44.756  58.100 -54.606  1.00  0.00     0.013 A 
HETATM   20  C   UNL     1     -44.309  57.368 -57.238  1.00  0.00     0.012 A 
HETATM   21  C   UNL     1     -42.459  55.962 -56.579  1.00  0.00     0.012 A 
HETATM   22  C   UNL     1     -45.343  58.251 -56.939  1.00  0.00     0.001 A 
HETATM   23  C   UNL     1     -45.568  58.616 -55.622  1.00  0.00     0.001 A 
HETATM   24  C   UNL     1     -41.616  55.431 -55.613  1.00  0.00     0.002 A 
HETATM   25  C   UNL     1     -41.791  55.773 -54.276  1.00  0.00     0.009 A 
ENDBRANCH   8  16
TORSDOF 1
ENDMDL
MODEL 9
REMARK VINA RESULT:      -6.7      3.508      5.918
REMARK  1 active torsions:
REMARK  status: ('A' for Active; 'I' for Inactive)
REMARK    1  A    between atoms: C_8  and  C_9 
ROOT
HETATM    1  C   UNL     1     -42.690  54.897 -52.023  1.00  0.00     0.073 C 
HETATM    2  C   UNL     1     -42.698  54.807 -53.510  1.00  0.00     0.062 A 
HETATM    3  N   UNL     1     -42.190  53.721 -54.095  1.00  0.00    -0.178 NA
HETATM    4  N   UNL     1     -42.407  53.928 -55.393  1.00  0.00    -0.262 N 
HETATM    5  H   UNL     1     -42.122  53.203 -56.041  1.00  0.00     0.191 HD
HETATM    6  C   UNL     1     -42.994  55.132 -55.688  1.00  0.00     0.134 A 
HETATM    7  C   UNL     1     -43.198  55.762 -54.470  1.00  0.00     0.032 A 
HETATM    8  C   UNL     1     -43.896  57.038 -54.103  1.00  0.00     0.120 C 
HETATM    9  S   UNL     1     -44.840  57.875 -55.400  1.00  0.00    -0.141 SA
HETATM   10  C   UNL     1     -43.724  57.891 -56.830  1.00  0.00     0.136 C 
HETATM   11  C   UNL     1     -42.317  58.430 -56.639  1.00  0.00     0.031 C 
HETATM   12  C   UNL     1     -43.721  56.566 -57.569  1.00  0.00     0.236 C 
HETATM   13  O   UNL     1     -44.025  56.521 -58.768  1.00  0.00    -0.272 OA
HETATM   14  N   UNL     1     -43.274  55.412 -57.005  1.00  0.00    -0.311 N 
HETATM   15  H   UNL     1     -43.205  54.666 -57.690  1.00  0.00     0.170 HD
ENDROOT
BRANCH   8  16
HETATM   16  C   UNL     1     -42.986  57.965 -53.282  1.00  0.00    -0.029 A 
HETATM   17  C   UNL     1     -43.540  58.805 -52.251  1.00  0.00    -0.018 A 
HETATM   18  C   UNL     1     -42.668  59.636 -51.496  1.00  0.00    -0.025 A 
HETATM   19  C   UNL     1     -44.916  58.867 -51.912  1.00  0.00     0.013 A 
HETATM   20  C   UNL     1     -43.169  60.459 -50.472  1.00  0.00     0.012 A 
HETATM   21  C   UNL     1     -41.295  59.643 -51.759  1.00  0.00     0.012 A 
HETATM   22  C   UNL     1     -44.528  60.486 -50.170  1.00  0.00     0.001 A 
HETATM   23  C   UNL     1     -45.402  59.690 -50.891  1.00  0.00     0.001 A 
HETATM   24  C   UNL     1     -40.758  58.836 -52.753  1.00  0.00     0.002 A 
HETATM   25  C   UNL     1     -41.591  58.010 -53.500  1.00  0.00     0.009 A 
ENDBRANCH   8  16
TORSDOF 1
ENDMDL
MODEL 10
REMARK VINA RESULT:      -6.6      3.225      4.598
REMARK  1 active torsions:
REMARK  status: ('A' for Active; 'I' for Inactive)
REMARK    1  A    between atoms: C_8  and  C_9 
ROOT
HETATM    1  C   UNL     1     -43.520  56.839 -54.615  1.00  0.00     0.073 C 
HETATM    2  C   UNL     1     -44.332  58.086 -54.556  1.00  0.00     0.062 A 
HETATM    3  N   UNL     1     -44.660  58.698 -55.696  1.00  0.00    -0.178 NA
HETATM    4  N   UNL     1     -45.422  59.718 -55.302  1.00  0.00    -0.262 N 
HETATM    5  H   UNL     1     -45.816  60.317 -56.017  1.00  0.00     0.191 HD
HETATM    6  C   UNL     1     -45.566  59.829 -53.942  1.00  0.00     0.134 A 
HETATM    7  C   UNL     1     -44.851  58.774 -53.398  1.00  0.00     0.032 A 
HETATM    8  C   UNL     1     -44.709  58.276 -51.990  1.00  0.00     0.120 C 
HETATM    9  S   UNL     1     -45.787  59.008 -50.735  1.00  0.00    -0.141 SA
HETATM   10  C   UNL     1     -45.670  60.794 -51.026  1.00  0.00     0.136 C 
HETATM   11  C   UNL     1     -44.289  61.421 -51.102  1.00  0.00     0.031 C 
HETATM   12  C   UNL     1     -46.554  61.247 -52.171  1.00  0.00     0.236 C 
HETATM   13  O   UNL     1     -47.427  62.104 -51.983  1.00  0.00    -0.272 OA
HETATM   14  N   UNL     1     -46.359  60.843 -53.455  1.00  0.00    -0.311 N 
HETATM   15  H   UNL     1     -46.945  61.360 -54.102  1.00  0.00     0.170 HD
ENDROOT
BRANCH   8  16
HETATM   16  C   UNL     1     -43.234  58.167 -51.574  1.00  0.00    -0.029 A 
HETATM   17  C   UNL     1     -42.720  56.938 -51.024  1.00  0.00    -0.018 A 
HETATM   18  C   UNL     1     -41.346  56.864 -50.668  1.00  0.00    -0.025 A 
HETATM   19  C   UNL     1     -43.489  55.765 -50.810  1.00  0.00     0.013 A 
HETATM   20  C   UNL     1     -40.805  55.678 -50.141  1.00  0.00     0.012 A 
HETATM   21  C   UNL     1     -40.510  57.970 -50.842  1.00  0.00     0.012 A 
HETATM   22  C   UNL     1     -41.595  54.547 -49.951  1.00  0.00     0.001 A 
HETATM   23  C   UNL     1     -42.938  54.591 -50.285  1.00  0.00     0.001 A 
HETATM   24  C   UNL     1     -41.002  59.156 -51.370  1.00  0.00     0.002 A 
HETATM   25  C   UNL     1     -42.342  59.250 -51.732  1.00  0.00     0.009 A 
ENDBRANCH   8  16
TORSDOF 1
ENDMDL
