MODEL 1
REMARK VINA RESULT:      -8.2      0.000      0.000
REMARK  7 active torsions:
REMARK  status: ('A' for Active; 'I' for Inactive)
REMARK    1  A    between atoms: S_2  and  C_3 
REMARK    2  A    between atoms: C_6  and  C_7 
REMARK    3  A    between atoms: N_8  and  C_9 
REMARK    4  A    between atoms: C_9  and  C_10 
REMARK    5  A    between atoms: C_10  and  C_11 
REMARK    6  A    between atoms: C_24  and  C_25 
REMARK    7  A    between atoms: C_26  and  O_27 
ROOT
HETATM    1  C   UNL     1     -43.392  57.561 -54.755  1.00  0.00     0.159 A 
HETATM    2  N   UNL     1     -43.065  58.572 -53.723  1.00  0.00    -0.333 N 
HETATM    3  C   UNL     1     -42.273  59.635 -54.187  1.00  0.00     0.275 A 
HETATM    4  O   UNL     1     -41.825  60.567 -53.541  1.00  0.00    -0.266 OA
HETATM    5  C   UNL     1     -42.157  59.389 -55.608  1.00  0.00     0.155 A 
HETATM    6  C   UNL     1     -42.824  58.210 -55.963  1.00  0.00     0.034 A 
HETATM    7  N   UNL     1     -41.639  60.035 -56.647  1.00  0.00    -0.168 NA
HETATM    8  N   UNL     1     -41.979  59.232 -57.684  1.00  0.00    -0.276 N 
HETATM    9  H   UNL     1     -41.683  59.498 -58.619  1.00  0.00     0.189 HD
HETATM   10  C   UNL     1     -42.778  58.154 -57.335  1.00  0.00     0.074 A 
ENDROOT
BRANCH   1  11
HETATM   11  C   UNL     1     -42.645  56.257 -54.562  1.00  0.00    -0.031 A 
HETATM   12  C   UNL     1     -43.344  55.041 -54.622  1.00  0.00     0.011 A 
HETATM   13  C   UNL     1     -42.671  53.819 -54.496  1.00  0.00     0.019 A 
HETATM   14  C   UNL     1     -41.287  53.786 -54.310  1.00  0.00    -0.000 A 
HETATM   15  C   UNL     1     -40.588  54.988 -54.200  1.00  0.00     0.019 A 
HETATM   16  C   UNL     1     -41.258  56.208 -54.323  1.00  0.00     0.011 A 
BRANCH  14  17
HETATM   17  S   UNL     1     -40.457  52.212 -54.192  1.00  0.00    -0.134 SA
HETATM   18  C   UNL     1     -39.878  52.296 -52.474  1.00  0.00     0.095 C 
ENDBRANCH  14  17
ENDBRANCH   1  11
BRANCH   2  19
HETATM   19  C   UNL     1     -43.559  58.472 -52.359  1.00  0.00     0.132 C 
BRANCH  19  20
HETATM   20  C   UNL     1     -42.426  58.253 -51.347  1.00  0.00     0.058 C 
BRANCH  20  21
HETATM   21  C   UNL     1     -42.266  56.810 -50.937  1.00  0.00    -0.057 A 
HETATM   22  C   UNL     1     -43.345  55.918 -51.004  1.00  0.00     0.007 A 
HETATM   23  C   UNL     1     -43.180  54.580 -50.643  1.00  0.00     0.001 A 
HETATM   24  C   UNL     1     -41.937  54.118 -50.215  1.00  0.00     0.000 A 
HETATM   25  C   UNL     1     -40.856  54.995 -50.149  1.00  0.00     0.001 A 
HETATM   26  C   UNL     1     -41.019  56.333 -50.507  1.00  0.00     0.007 A 
ENDBRANCH  20  21
ENDBRANCH  19  20
ENDBRANCH   2  19
BRANCH  10  27
HETATM   27  C   UNL     1     -43.366  57.262 -58.328  1.00  0.00     0.026 A 
HETATM   28  C   UNL     1     -44.124  57.754 -59.403  1.00  0.00     0.078 A 
HETATM   29  C   UNL     1     -44.628  56.903 -60.383  1.00  0.00     0.037 A 
HETATM   30  C   UNL     1     -44.410  55.531 -60.287  1.00  0.00     0.003 A 
HETATM   31  C   UNL     1     -43.676  55.019 -59.218  1.00  0.00     0.001 A 
HETATM   32  C   UNL     1     -43.149  55.881 -58.250  1.00  0.00     0.016 A 
BRANCH  28  33
HETATM   33  O   UNL     1     -44.421  59.084 -59.543  1.00  0.00    -0.360 OA
HETATM   34  H   UNL     1     -43.808  59.460 -60.200  1.00  0.00     0.217 HD
ENDBRANCH  28  33
ENDBRANCH  10  27
TORSDOF 7
ENDMDL
MODEL 2
REMARK VINA RESULT:      -7.3      3.257      6.239
REMARK  7 active torsions:
REMARK  status: ('A' for Active; 'I' for Inactive)
REMARK    1  A    between atoms: S_2  and  C_3 
REMARK    2  A    between atoms: C_6  and  C_7 
REMARK    3  A    between atoms: N_8  and  C_9 
REMARK    4  A    between atoms: C_9  and  C_10 
REMARK    5  A    between atoms: C_10  and  C_11 
REMARK    6  A    between atoms: C_24  and  C_25 
REMARK    7  A    between atoms: C_26  and  O_27 
ROOT
HETATM    1  C   UNL     1     -43.105  56.346 -52.561  1.00  0.00     0.159 A 
HETATM    2  N   UNL     1     -42.105  55.387 -52.039  1.00  0.00    -0.333 N 
HETATM    3  C   UNL     1     -41.197  55.941 -51.122  1.00  0.00     0.275 A 
HETATM    4  O   UNL     1     -40.253  55.389 -50.582  1.00  0.00    -0.266 OA
HETATM    5  C   UNL     1     -41.675  57.294 -50.934  1.00  0.00     0.155 A 
HETATM    6  C   UNL     1     -42.797  57.540 -51.734  1.00  0.00     0.034 A 
HETATM    7  N   UNL     1     -41.352  58.317 -50.150  1.00  0.00    -0.168 NA
HETATM    8  N   UNL     1     -42.292  59.237 -50.475  1.00  0.00    -0.276 N 
HETATM    9  H   UNL     1     -42.263  60.143 -50.016  1.00  0.00     0.189 HD
HETATM   10  C   UNL     1     -43.250  58.784 -51.369  1.00  0.00     0.074 A 
ENDROOT
BRANCH   1  11
HETATM   11  C   UNL     1     -42.856  56.733 -54.005  1.00  0.00    -0.031 A 
HETATM   12  C   UNL     1     -43.427  55.972 -55.037  1.00  0.00     0.011 A 
HETATM   13  C   UNL     1     -43.253  56.336 -56.378  1.00  0.00     0.019 A 
HETATM   14  C   UNL     1     -42.508  57.468 -56.717  1.00  0.00    -0.000 A 
HETATM   15  C   UNL     1     -41.896  58.205 -55.704  1.00  0.00     0.019 A 
HETATM   16  C   UNL     1     -42.066  57.842 -54.365  1.00  0.00     0.011 A 
BRANCH  14  17
HETATM   17  S   UNL     1     -42.340  57.923 -58.432  1.00  0.00    -0.134 SA
HETATM   18  C   UNL     1     -42.870  56.375 -59.217  1.00  0.00     0.095 C 
ENDBRANCH  14  17
ENDBRANCH   1  11
BRANCH   2  19
HETATM   19  C   UNL     1     -42.098  53.987 -52.431  1.00  0.00     0.132 C 
BRANCH  19  20
HETATM   20  C   UNL     1     -40.952  53.660 -53.397  1.00  0.00     0.058 C 
BRANCH  20  21
HETATM   21  C   UNL     1     -40.421  52.257 -53.239  1.00  0.00    -0.057 A 
HETATM   22  C   UNL     1     -39.925  51.809 -52.008  1.00  0.00     0.007 A 
HETATM   23  C   UNL     1     -39.457  50.502 -51.866  1.00  0.00     0.001 A 
HETATM   24  C   UNL     1     -39.484  49.627 -52.951  1.00  0.00     0.000 A 
HETATM   25  C   UNL     1     -39.980  50.060 -54.179  1.00  0.00     0.001 A 
HETATM   26  C   UNL     1     -40.446  51.367 -54.323  1.00  0.00     0.007 A 
ENDBRANCH  20  21
ENDBRANCH  19  20
ENDBRANCH   2  19
BRANCH  10  27
HETATM   27  C   UNL     1     -44.421  59.576 -51.729  1.00  0.00     0.026 A 
HETATM   28  C   UNL     1     -45.275  60.113 -50.752  1.00  0.00     0.078 A 
HETATM   29  C   UNL     1     -46.355  60.922 -51.098  1.00  0.00     0.037 A 
HETATM   30  C   UNL     1     -46.621  61.182 -52.440  1.00  0.00     0.003 A 
HETATM   31  C   UNL     1     -45.798  60.644 -53.427  1.00  0.00     0.001 A 
HETATM   32  C   UNL     1     -44.699  59.853 -53.073  1.00  0.00     0.016 A 
BRANCH  28  33
HETATM   33  O   UNL     1     -45.107  59.867 -49.415  1.00  0.00    -0.360 OA
HETATM   34  H   UNL     1     -45.955  59.546 -49.060  1.00  0.00     0.217 HD
ENDBRANCH  28  33
ENDBRANCH  10  27
TORSDOF 7
ENDMDL
MODEL 3
REMARK VINA RESULT:      -7.2      2.862      6.186
REMARK  7 active torsions:
REMARK  status: ('A' for Active; 'I' for Inactive)
REMARK    1  A    between atoms: S_2  and  C_3 
REMARK    2  A    between atoms: C_6  and  C_7 
REMARK    3  A    between atoms: N_8  and  C_9 
REMARK    4  A    between atoms: C_9  and  C_10 
REMARK    5  A    between atoms: C_10  and  C_11 
REMARK    6  A    between atoms: C_24  and  C_25 
REMARK    7  A    between atoms: C_26  and  O_27 
ROOT
HETATM    1  C   UNL     1     -43.296  57.600 -51.515  1.00  0.00     0.159 A 
HETATM    2  N   UNL     1     -42.644  56.385 -50.974  1.00  0.00    -0.333 N 
HETATM    3  C   UNL     1     -41.357  56.603 -50.456  1.00  0.00     0.275 A 
HETATM    4  O   UNL     1     -40.588  55.774 -49.998  1.00  0.00    -0.266 OA
HETATM    5  C   UNL     1     -41.182  58.036 -50.548  1.00  0.00     0.155 A 
HETATM    6  C   UNL     1     -42.306  58.636 -51.131  1.00  0.00     0.034 A 
HETATM    7  N   UNL     1     -40.259  58.910 -50.160  1.00  0.00    -0.168 NA
HETATM    8  N   UNL     1     -40.814  60.093 -50.520  1.00  0.00    -0.276 N 
HETATM    9  H   UNL     1     -40.291  60.946 -50.342  1.00  0.00     0.189 HD
HETATM   10  C   UNL     1     -42.098  59.990 -51.033  1.00  0.00     0.074 A 
ENDROOT
BRANCH   1  11
HETATM   11  C   UNL     1     -43.374  57.604 -53.029  1.00  0.00    -0.031 A 
HETATM   12  C   UNL     1     -44.616  57.442 -53.661  1.00  0.00     0.011 A 
HETATM   13  C   UNL     1     -44.724  57.491 -55.056  1.00  0.00     0.019 A 
HETATM   14  C   UNL     1     -43.595  57.706 -55.849  1.00  0.00    -0.000 A 
HETATM   15  C   UNL     1     -42.348  57.820 -55.236  1.00  0.00     0.019 A 
HETATM   16  C   UNL     1     -42.237  57.769 -53.844  1.00  0.00     0.011 A 
BRANCH  14  17
HETATM   17  S   UNL     1     -43.774  57.801 -57.621  1.00  0.00    -0.134 SA
HETATM   18  C   UNL     1     -43.318  56.102 -58.069  1.00  0.00     0.095 C 
ENDBRANCH  14  17
ENDBRANCH   1  11
BRANCH   2  19
HETATM   19  C   UNL     1     -43.308  55.092 -50.960  1.00  0.00     0.132 C 
BRANCH  19  20
HETATM   20  C   UNL     1     -42.387  53.961 -51.437  1.00  0.00     0.058 C 
BRANCH  20  21
HETATM   21  C   UNL     1     -42.003  54.079 -52.891  1.00  0.00    -0.057 A 
HETATM   22  C   UNL     1     -42.976  54.035 -53.898  1.00  0.00     0.007 A 
HETATM   23  C   UNL     1     -42.613  54.168 -55.240  1.00  0.00     0.001 A 
HETATM   24  C   UNL     1     -41.275  54.350 -55.588  1.00  0.00     0.000 A 
HETATM   25  C   UNL     1     -40.300  54.400 -54.594  1.00  0.00     0.001 A 
HETATM   26  C   UNL     1     -40.661  54.265 -53.254  1.00  0.00     0.007 A 
ENDBRANCH  20  21
ENDBRANCH  19  20
ENDBRANCH   2  19
BRANCH  10  27
HETATM   27  C   UNL     1     -42.913  61.160 -51.340  1.00  0.00     0.026 A 
HETATM   28  C   UNL     1     -42.961  61.706 -52.633  1.00  0.00     0.078 A 
HETATM   29  C   UNL     1     -43.790  62.783 -52.936  1.00  0.00     0.037 A 
HETATM   30  C   UNL     1     -44.567  63.359 -51.934  1.00  0.00     0.003 A 
HETATM   31  C   UNL     1     -44.520  62.847 -50.639  1.00  0.00     0.001 A 
HETATM   32  C   UNL     1     -43.706  61.747 -50.346  1.00  0.00     0.016 A 
BRANCH  28  33
HETATM   33  O   UNL     1     -42.194  61.223 -53.662  1.00  0.00    -0.360 OA
HETATM   34  H   UNL     1     -42.556  60.359 -53.926  1.00  0.00     0.217 HD
ENDBRANCH  28  33
ENDBRANCH  10  27
TORSDOF 7
ENDMDL
MODEL 4
REMARK VINA RESULT:      -7.2      3.188      6.598
REMARK  7 active torsions:
REMARK  status: ('A' for Active; 'I' for Inactive)
REMARK    1  A    between atoms: S_2  and  C_3 
REMARK    2  A    between atoms: C_6  and  C_7 
REMARK    3  A    between atoms: N_8  and  C_9 
REMARK    4  A    between atoms: C_9  and  C_10 
REMARK    5  A    between atoms: C_10  and  C_11 
REMARK    6  A    between atoms: C_24  and  C_25 
REMARK    7  A    between atoms: C_26  and  O_27 
ROOT
HETATM    1  C   UNL     1     -42.475  57.009 -52.531  1.00  0.00     0.159 A 
HETATM    2  N   UNL     1     -43.342  57.940 -51.773  1.00  0.00    -0.333 N 
HETATM    3  C   UNL     1     -44.286  57.308 -50.949  1.00  0.00     0.275 A 
HETATM    4  O   UNL     1     -45.146  57.834 -50.262  1.00  0.00    -0.266 OA
HETATM    5  C   UNL     1     -43.968  55.901 -51.070  1.00  0.00     0.155 A 
HETATM    6  C   UNL     1     -42.902  55.709 -51.957  1.00  0.00     0.034 A 
HETATM    7  N   UNL     1     -44.392  54.778 -50.501  1.00  0.00    -0.168 NA
HETATM    8  N   UNL     1     -43.575  53.849 -51.056  1.00  0.00    -0.276 N 
HETATM    9  H   UNL     1     -43.701  52.876 -50.794  1.00  0.00     0.189 HD
HETATM   10  C   UNL     1     -42.591  54.373 -51.881  1.00  0.00     0.074 A 
ENDROOT
BRANCH   1  11
HETATM   11  C   UNL     1     -42.802  56.967 -54.010  1.00  0.00    -0.031 A 
HETATM   12  C   UNL     1     -44.129  56.772 -54.423  1.00  0.00     0.011 A 
HETATM   13  C   UNL     1     -44.467  56.778 -55.782  1.00  0.00     0.019 A 
HETATM   14  C   UNL     1     -43.488  56.981 -56.757  1.00  0.00    -0.000 A 
HETATM   15  C   UNL     1     -42.159  57.128 -56.362  1.00  0.00     0.019 A 
HETATM   16  C   UNL     1     -41.819  57.120 -55.007  1.00  0.00     0.011 A 
BRANCH  14  17
HETATM   17  S   UNL     1     -43.959  57.022 -58.476  1.00  0.00    -0.134 SA
HETATM   18  C   UNL     1     -42.560  57.955 -59.158  1.00  0.00     0.095 C 
ENDBRANCH  14  17
ENDBRANCH   1  11
BRANCH   2  19
HETATM   19  C   UNL     1     -43.191  59.383 -51.865  1.00  0.00     0.132 C 
BRANCH  19  20
HETATM   20  C   UNL     1     -44.383  60.048 -52.566  1.00  0.00     0.058 C 
BRANCH  20  21
HETATM   21  C   UNL     1     -44.155  60.278 -54.039  1.00  0.00    -0.057 A 
HETATM   22  C   UNL     1     -45.220  60.236 -54.948  1.00  0.00     0.007 A 
HETATM   23  C   UNL     1     -45.002  60.473 -56.306  1.00  0.00     0.001 A 
HETATM   24  C   UNL     1     -43.718  60.758 -56.769  1.00  0.00     0.000 A 
HETATM   25  C   UNL     1     -42.652  60.807 -55.874  1.00  0.00     0.001 A 
HETATM   26  C   UNL     1     -42.868  60.568 -54.516  1.00  0.00     0.007 A 
ENDBRANCH  20  21
ENDBRANCH  19  20
ENDBRANCH   2  19
BRANCH  10  27
HETATM   27  C   UNL     1     -41.531  53.550 -52.453  1.00  0.00     0.026 A 
HETATM   28  C   UNL     1     -40.645  52.823 -51.642  1.00  0.00     0.078 A 
HETATM   29  C   UNL     1     -39.676  51.989 -52.194  1.00  0.00     0.037 A 
HETATM   30  C   UNL     1     -39.553  51.893 -53.578  1.00  0.00     0.003 A 
HETATM   31  C   UNL     1     -40.410  52.621 -54.402  1.00  0.00     0.001 A 
HETATM   32  C   UNL     1     -41.399  53.437 -53.842  1.00  0.00     0.016 A 
BRANCH  28  33
HETATM   33  O   UNL     1     -40.672  52.898 -50.274  1.00  0.00    -0.360 OA
HETATM   34  H   UNL     1     -40.353  52.049 -49.921  1.00  0.00     0.217 HD
ENDBRANCH  28  33
ENDBRANCH  10  27
TORSDOF 7
ENDMDL
MODEL 5
REMARK VINA RESULT:      -7.0      3.549      6.677
REMARK  7 active torsions:
REMARK  status: ('A' for Active; 'I' for Inactive)
REMARK    1  A    between atoms: S_2  and  C_3 
REMARK    2  A    between atoms: C_6  and  C_7 
REMARK    3  A    between atoms: N_8  and  C_9 
REMARK    4  A    between atoms: C_9  and  C_10 
REMARK    5  A    between atoms: C_10  and  C_11 
REMARK    6  A    between atoms: C_24  and  C_25 
REMARK    7  A    between atoms: C_26  and  O_27 
ROOT
HETATM    1  C   UNL     1     -42.729  57.392 -52.493  1.00  0.00     0.159 A 
HETATM    2  N   UNL     1     -43.574  58.374 -51.776  1.00  0.00    -0.333 N 
HETATM    3  C   UNL     1     -44.542  57.799 -50.937  1.00  0.00     0.275 A 
HETATM    4  O   UNL     1     -45.391  58.372 -50.276  1.00  0.00    -0.266 OA
HETATM    5  C   UNL     1     -44.263  56.380 -51.005  1.00  0.00     0.155 A 
HETATM    6  C   UNL     1     -43.197  56.126 -51.877  1.00  0.00     0.034 A 
HETATM    7  N   UNL     1     -44.722  55.290 -50.400  1.00  0.00    -0.168 NA
HETATM    8  N   UNL     1     -43.928  54.319 -50.916  1.00  0.00    -0.276 N 
HETATM    9  H   UNL     1     -44.083  53.360 -50.620  1.00  0.00     0.189 HD
HETATM   10  C   UNL     1     -42.925  54.785 -51.751  1.00  0.00     0.074 A 
ENDROOT
BRANCH   1  11
HETATM   11  C   UNL     1     -43.047  57.307 -53.973  1.00  0.00    -0.031 A 
HETATM   12  C   UNL     1     -44.352  57.570 -54.419  1.00  0.00     0.011 A 
HETATM   13  C   UNL     1     -44.662  57.546 -55.784  1.00  0.00     0.019 A 
HETATM   14  C   UNL     1     -43.677  57.262 -56.732  1.00  0.00    -0.000 A 
HETATM   15  C   UNL     1     -42.389  56.952 -56.299  1.00  0.00     0.019 A 
HETATM   16  C   UNL     1     -42.077  56.972 -54.937  1.00  0.00     0.011 A 
BRANCH  14  17
HETATM   17  S   UNL     1     -44.099  57.279 -58.464  1.00  0.00    -0.134 SA
HETATM   18  C   UNL     1     -45.758  58.010 -58.372  1.00  0.00     0.095 C 
ENDBRANCH  14  17
ENDBRANCH   1  11
BRANCH   2  19
HETATM   19  C   UNL     1     -43.382  59.808 -51.917  1.00  0.00     0.132 C 
BRANCH  19  20
HETATM   20  C   UNL     1     -42.519  60.391 -50.790  1.00  0.00     0.058 C 
BRANCH  20  21
HETATM   21  C   UNL     1     -43.160  61.567 -50.096  1.00  0.00    -0.057 A 
HETATM   22  C   UNL     1     -44.161  61.378 -49.135  1.00  0.00     0.007 A 
HETATM   23  C   UNL     1     -44.733  62.471 -48.483  1.00  0.00     0.001 A 
HETATM   24  C   UNL     1     -44.307  63.765 -48.781  1.00  0.00     0.000 A 
HETATM   25  C   UNL     1     -43.309  63.965 -49.732  1.00  0.00     0.001 A 
HETATM   26  C   UNL     1     -42.739  62.873 -50.387  1.00  0.00     0.007 A 
ENDBRANCH  20  21
ENDBRANCH  19  20
ENDBRANCH   2  19
BRANCH  10  27
HETATM   27  C   UNL     1     -41.885  53.913 -52.285  1.00  0.00     0.026 A 
HETATM   28  C   UNL     1     -40.939  53.297 -51.450  1.00  0.00     0.078 A 
HETATM   29  C   UNL     1     -39.989  52.415 -51.957  1.00  0.00     0.037 A 
HETATM   30  C   UNL     1     -39.945  52.158 -53.325  1.00  0.00     0.003 A 
HETATM   31  C   UNL     1     -40.861  52.774 -54.176  1.00  0.00     0.001 A 
HETATM   32  C   UNL     1     -41.832  53.639 -53.657  1.00  0.00     0.016 A 
BRANCH  28  33
HETATM   33  O   UNL     1     -40.888  53.532 -50.101  1.00  0.00    -0.360 OA
HETATM   34  H   UNL     1     -41.788  53.754 -49.801  1.00  0.00     0.217 HD
ENDBRANCH  28  33
ENDBRANCH  10  27
TORSDOF 7
ENDMDL
MODEL 6
REMARK VINA RESULT:      -7.0      3.234      5.145
REMARK  7 active torsions:
REMARK  status: ('A' for Active; 'I' for Inactive)
REMARK    1  A    between atoms: S_2  and  C_3 
REMARK    2  A    between atoms: C_6  and  C_7 
REMARK    3  A    between atoms: N_8  and  C_9 
REMARK    4  A    between atoms: C_9  and  C_10 
REMARK    5  A    between atoms: C_10  and  C_11 
REMARK    6  A    between atoms: C_24  and  C_25 
REMARK    7  A    between atoms: C_26  and  O_27 
ROOT
HETATM    1  C   UNL     1     -41.961  57.554 -55.168  1.00  0.00     0.159 A 
HETATM    2  N   UNL     1     -41.951  56.447 -54.184  1.00  0.00    -0.333 N 
HETATM    3  C   UNL     1     -42.569  55.269 -54.633  1.00  0.00     0.275 A 
HETATM    4  O   UNL     1     -42.741  54.234 -54.011  1.00  0.00    -0.266 OA
HETATM    5  C   UNL     1     -42.907  55.556 -56.011  1.00  0.00     0.155 A 
HETATM    6  C   UNL     1     -42.535  56.863 -56.350  1.00  0.00     0.034 A 
HETATM    7  N   UNL     1     -43.413  54.870 -57.029  1.00  0.00    -0.168 NA
HETATM    8  N   UNL     1     -43.370  55.776 -58.037  1.00  0.00    -0.276 N 
HETATM    9  H   UNL     1     -43.721  55.502 -58.949  1.00  0.00     0.189 HD
HETATM   10  C   UNL     1     -42.761  56.976 -57.700  1.00  0.00     0.074 A 
ENDROOT
BRANCH   1  11
HETATM   11  C   UNL     1     -42.920  58.666 -54.797  1.00  0.00    -0.031 A 
HETATM   12  C   UNL     1     -42.422  59.946 -54.510  1.00  0.00     0.011 A 
HETATM   13  C   UNL     1     -43.289  61.004 -54.212  1.00  0.00     0.019 A 
HETATM   14  C   UNL     1     -44.672  60.808 -54.198  1.00  0.00    -0.000 A 
HETATM   15  C   UNL     1     -45.177  59.530 -54.435  1.00  0.00     0.019 A 
HETATM   16  C   UNL     1     -44.314  58.472 -54.730  1.00  0.00     0.011 A 
BRANCH  14  17
HETATM   17  S   UNL     1     -45.749  62.186 -53.853  1.00  0.00    -0.134 SA
HETATM   18  C   UNL     1     -46.878  61.407 -52.664  1.00  0.00     0.095 C 
ENDBRANCH  14  17
ENDBRANCH   1  11
BRANCH   2  19
HETATM   19  C   UNL     1     -41.321  56.578 -52.880  1.00  0.00     0.132 C 
BRANCH  19  20
HETATM   20  C   UNL     1     -42.350  56.669 -51.746  1.00  0.00     0.058 C 
BRANCH  20  21
HETATM   21  C   UNL     1     -42.605  58.083 -51.285  1.00  0.00    -0.057 A 
HETATM   22  C   UNL     1     -41.543  58.959 -51.027  1.00  0.00     0.007 A 
HETATM   23  C   UNL     1     -41.790  60.272 -50.623  1.00  0.00     0.001 A 
HETATM   24  C   UNL     1     -43.101  60.724 -50.477  1.00  0.00     0.000 A 
HETATM   25  C   UNL     1     -44.165  59.863 -50.735  1.00  0.00     0.001 A 
HETATM   26  C   UNL     1     -43.920  58.549 -51.136  1.00  0.00     0.007 A 
ENDBRANCH  20  21
ENDBRANCH  19  20
ENDBRANCH   2  19
BRANCH  10  27
HETATM   27  C   UNL     1     -42.490  58.018 -58.684  1.00  0.00     0.026 A 
HETATM   28  C   UNL     1     -41.939  57.718 -59.941  1.00  0.00     0.078 A 
HETATM   29  C   UNL     1     -41.742  58.708 -60.900  1.00  0.00     0.037 A 
HETATM   30  C   UNL     1     -42.062  60.031 -60.605  1.00  0.00     0.003 A 
HETATM   31  C   UNL     1     -42.592  60.354 -59.357  1.00  0.00     0.001 A 
HETATM   32  C   UNL     1     -42.814  59.351 -58.406  1.00  0.00     0.016 A 
BRANCH  28  33
HETATM   33  O   UNL     1     -41.556  56.450 -60.290  1.00  0.00    -0.360 OA
HETATM   34  H   UNL     1     -40.659  56.501 -60.667  1.00  0.00     0.217 HD
ENDBRANCH  28  33
ENDBRANCH  10  27
TORSDOF 7
ENDMDL
MODEL 7
REMARK VINA RESULT:      -7.0      2.883      6.427
REMARK  7 active torsions:
REMARK  status: ('A' for Active; 'I' for Inactive)
REMARK    1  A    between atoms: S_2  and  C_3 
REMARK    2  A    between atoms: C_6  and  C_7 
REMARK    3  A    between atoms: N_8  and  C_9 
REMARK    4  A    between atoms: C_9  and  C_10 
REMARK    5  A    between atoms: C_10  and  C_11 
REMARK    6  A    between atoms: C_24  and  C_25 
REMARK    7  A    between atoms: C_26  and  O_27 
ROOT
HETATM    1  C   UNL     1     -42.686  58.040 -52.887  1.00  0.00     0.159 A 
HETATM    2  N   UNL     1     -43.342  59.159 -52.170  1.00  0.00    -0.333 N 
HETATM    3  C   UNL     1     -44.302  58.756 -51.228  1.00  0.00     0.275 A 
HETATM    4  O   UNL     1     -45.017  59.468 -50.542  1.00  0.00    -0.266 OA
HETATM    5  C   UNL     1     -44.208  57.312 -51.230  1.00  0.00     0.155 A 
HETATM    6  C   UNL     1     -43.256  56.878 -52.161  1.00  0.00     0.034 A 
HETATM    7  N   UNL     1     -44.748  56.323 -50.528  1.00  0.00    -0.168 NA
HETATM    8  N   UNL     1     -44.126  55.233 -51.040  1.00  0.00    -0.276 N 
HETATM    9  H   UNL     1     -44.375  54.318 -50.675  1.00  0.00     0.189 HD
HETATM   10  C   UNL     1     -43.144  55.522 -51.974  1.00  0.00     0.074 A 
ENDROOT
BRANCH   1  11
HETATM   11  C   UNL     1     -43.132  57.921 -54.331  1.00  0.00    -0.031 A 
HETATM   12  C   UNL     1     -42.172  57.893 -55.354  1.00  0.00     0.011 A 
HETATM   13  C   UNL     1     -42.553  57.735 -56.692  1.00  0.00     0.019 A 
HETATM   14  C   UNL     1     -43.900  57.598 -57.036  1.00  0.00    -0.000 A 
HETATM   15  C   UNL     1     -44.866  57.671 -56.034  1.00  0.00     0.019 A 
HETATM   16  C   UNL     1     -44.488  57.832 -54.698  1.00  0.00     0.011 A 
BRANCH  14  17
HETATM   17  S   UNL     1     -44.346  57.359 -58.746  1.00  0.00    -0.134 SA
HETATM   18  C   UNL     1     -43.708  55.679 -59.000  1.00  0.00     0.095 C 
ENDBRANCH  14  17
ENDBRANCH   1  11
BRANCH   2  19
HETATM   19  C   UNL     1     -42.985  60.547 -52.413  1.00  0.00     0.132 C 
BRANCH  19  20
HETATM   20  C   UNL     1     -44.169  61.366 -52.943  1.00  0.00     0.058 C 
BRANCH  20  21
HETATM   21  C   UNL     1     -44.260  61.374 -54.450  1.00  0.00    -0.057 A 
HETATM   22  C   UNL     1     -43.105  61.433 -55.240  1.00  0.00     0.007 A 
HETATM   23  C   UNL     1     -43.199  61.418 -56.633  1.00  0.00     0.001 A 
HETATM   24  C   UNL     1     -44.447  61.339 -57.249  1.00  0.00     0.000 A 
HETATM   25  C   UNL     1     -45.602  61.276 -56.473  1.00  0.00     0.001 A 
HETATM   26  C   UNL     1     -45.510  61.293 -55.081  1.00  0.00     0.007 A 
ENDBRANCH  20  21
ENDBRANCH  19  20
ENDBRANCH   2  19
BRANCH  10  27
HETATM   27  C   UNL     1     -42.267  54.497 -52.530  1.00  0.00     0.026 A 
HETATM   28  C   UNL     1     -42.398  54.056 -53.857  1.00  0.00     0.078 A 
HETATM   29  C   UNL     1     -41.518  53.125 -54.402  1.00  0.00     0.037 A 
HETATM   30  C   UNL     1     -40.504  52.589 -53.613  1.00  0.00     0.003 A 
HETATM   31  C   UNL     1     -40.367  52.998 -52.287  1.00  0.00     0.001 A 
HETATM   32  C   UNL     1     -41.237  53.954 -51.753  1.00  0.00     0.016 A 
BRANCH  28  33
HETATM   33  O   UNL     1     -43.397  54.502 -54.683  1.00  0.00    -0.360 OA
HETATM   34  H   UNL     1     -44.022  55.020 -54.145  1.00  0.00     0.217 HD
ENDBRANCH  28  33
ENDBRANCH  10  27
TORSDOF 7
ENDMDL
MODEL 8
REMARK VINA RESULT:      -6.7      3.233      6.106
REMARK  7 active torsions:
REMARK  status: ('A' for Active; 'I' for Inactive)
REMARK    1  A    between atoms: S_2  and  C_3 
REMARK    2  A    between atoms: C_6  and  C_7 
REMARK    3  A    between atoms: N_8  and  C_9 
REMARK    4  A    between atoms: C_9  and  C_10 
REMARK    5  A    between atoms: C_10  and  C_11 
REMARK    6  A    between atoms: C_24  and  C_25 
REMARK    7  A    between atoms: C_26  and  O_27 
ROOT
HETATM    1  C   UNL     1     -42.806  57.222 -52.514  1.00  0.00     0.159 A 
HETATM    2  N   UNL     1     -43.676  58.170 -51.781  1.00  0.00    -0.333 N 
HETATM    3  C   UNL     1     -44.627  57.556 -50.950  1.00  0.00     0.275 A 
HETATM    4  O   UNL     1     -45.490  58.097 -50.278  1.00  0.00    -0.266 OA
HETATM    5  C   UNL     1     -44.311  56.147 -51.040  1.00  0.00     0.155 A 
HETATM    6  C   UNL     1     -43.240  55.935 -51.917  1.00  0.00     0.034 A 
HETATM    7  N   UNL     1     -44.740  55.036 -50.452  1.00  0.00    -0.168 NA
HETATM    8  N   UNL     1     -43.922  54.094 -50.984  1.00  0.00    -0.276 N 
HETATM    9  H   UNL     1     -44.051  53.127 -50.703  1.00  0.00     0.189 HD
HETATM   10  C   UNL     1     -42.932  54.600 -51.813  1.00  0.00     0.074 A 
ENDROOT
BRANCH   1  11
HETATM   11  C   UNL     1     -43.125  57.152 -53.995  1.00  0.00    -0.031 A 
HETATM   12  C   UNL     1     -44.430  57.417 -54.438  1.00  0.00     0.011 A 
HETATM   13  C   UNL     1     -44.740  57.407 -55.803  1.00  0.00     0.019 A 
HETATM   14  C   UNL     1     -43.755  57.135 -56.754  1.00  0.00    -0.000 A 
HETATM   15  C   UNL     1     -42.466  56.822 -56.324  1.00  0.00     0.019 A 
HETATM   16  C   UNL     1     -42.154  56.829 -54.962  1.00  0.00     0.011 A 
BRANCH  14  17
HETATM   17  S   UNL     1     -44.177  57.168 -58.486  1.00  0.00    -0.134 SA
HETATM   18  C   UNL     1     -42.517  57.318 -59.206  1.00  0.00     0.095 C 
ENDBRANCH  14  17
ENDBRANCH   1  11
BRANCH   2  19
HETATM   19  C   UNL     1     -43.522  59.611 -51.900  1.00  0.00     0.132 C 
BRANCH  19  20
HETATM   20  C   UNL     1     -42.575  60.182 -50.837  1.00  0.00     0.058 C 
BRANCH  20  21
HETATM   21  C   UNL     1     -41.131  59.803 -51.060  1.00  0.00    -0.057 A 
HETATM   22  C   UNL     1     -40.684  59.380 -52.318  1.00  0.00     0.007 A 
HETATM   23  C   UNL     1     -39.343  59.053 -52.520  1.00  0.00     0.001 A 
HETATM   24  C   UNL     1     -38.433  59.149 -51.468  1.00  0.00     0.000 A 
HETATM   25  C   UNL     1     -38.865  59.574 -50.213  1.00  0.00     0.001 A 
HETATM   26  C   UNL     1     -40.207  59.898 -50.009  1.00  0.00     0.007 A 
ENDBRANCH  20  21
ENDBRANCH  19  20
ENDBRANCH   2  19
BRANCH  10  27
HETATM   27  C   UNL     1     -41.870  53.764 -52.362  1.00  0.00     0.026 A 
HETATM   28  C   UNL     1     -40.901  53.169 -51.538  1.00  0.00     0.078 A 
HETATM   29  C   UNL     1     -39.928  52.320 -52.060  1.00  0.00     0.037 A 
HETATM   30  C   UNL     1     -39.886  52.077 -53.431  1.00  0.00     0.003 A 
HETATM   31  C   UNL     1     -40.827  52.673 -54.270  1.00  0.00     0.001 A 
HETATM   32  C   UNL     1     -41.819  53.503 -53.737  1.00  0.00     0.016 A 
BRANCH  28  33
HETATM   33  O   UNL     1     -40.848  53.394 -50.188  1.00  0.00    -0.360 OA
HETATM   34  H   UNL     1     -40.963  54.349 -50.038  1.00  0.00     0.217 HD
ENDBRANCH  28  33
ENDBRANCH  10  27
TORSDOF 7
ENDMDL
MODEL 9
REMARK VINA RESULT:      -6.7      1.564      2.138
REMARK  7 active torsions:
REMARK  status: ('A' for Active; 'I' for Inactive)
REMARK    1  A    between atoms: S_2  and  C_3 
REMARK    2  A    between atoms: C_6  and  C_7 
REMARK    3  A    between atoms: N_8  and  C_9 
REMARK    4  A    between atoms: C_9  and  C_10 
REMARK    5  A    between atoms: C_10  and  C_11 
REMARK    6  A    between atoms: C_24  and  C_25 
REMARK    7  A    between atoms: C_26  and  O_27 
ROOT
HETATM    1  C   UNL     1     -44.476  57.426 -55.122  1.00  0.00     0.159 A 
HETATM    2  N   UNL     1     -44.393  58.546 -54.157  1.00  0.00    -0.333 N 
HETATM    3  C   UNL     1     -43.914  59.747 -54.705  1.00  0.00     0.275 A 
HETATM    4  O   UNL     1     -43.704  60.799 -54.126  1.00  0.00    -0.266 OA
HETATM    5  C   UNL     1     -43.778  59.455 -56.116  1.00  0.00     0.155 A 
HETATM    6  C   UNL     1     -44.128  58.126 -56.384  1.00  0.00     0.034 A 
HETATM    7  N   UNL     1     -43.472  60.150 -57.206  1.00  0.00    -0.168 NA
HETATM    8  N   UNL     1     -43.622  59.227 -58.188  1.00  0.00    -0.276 N 
HETATM    9  H   UNL     1     -43.431  59.504 -59.146  1.00  0.00     0.189 HD
HETATM   10  C   UNL     1     -44.107  58.003 -57.752  1.00  0.00     0.074 A 
ENDROOT
BRANCH   1  11
HETATM   11  C   UNL     1     -43.413  56.370 -54.896  1.00  0.00    -0.031 A 
HETATM   12  C   UNL     1     -43.795  55.053 -54.595  1.00  0.00     0.011 A 
HETATM   13  C   UNL     1     -42.836  54.047 -54.429  1.00  0.00     0.019 A 
HETATM   14  C   UNL     1     -41.475  54.333 -54.563  1.00  0.00    -0.000 A 
HETATM   15  C   UNL     1     -41.081  55.647 -54.813  1.00  0.00     0.019 A 
HETATM   16  C   UNL     1     -42.036  56.653 -54.977  1.00  0.00     0.011 A 
BRANCH  14  17
HETATM   17  S   UNL     1     -40.283  53.020 -54.383  1.00  0.00    -0.134 SA
HETATM   18  C   UNL     1     -40.322  52.811 -52.580  1.00  0.00     0.095 C 
ENDBRANCH  14  17
ENDBRANCH   1  11
BRANCH   2  19
HETATM   19  C   UNL     1     -44.806  58.404 -52.770  1.00  0.00     0.132 C 
BRANCH  19  20
HETATM   20  C   UNL     1     -43.834  57.534 -51.962  1.00  0.00     0.058 C 
BRANCH  20  21
HETATM   21  C   UNL     1     -42.647  58.302 -51.434  1.00  0.00    -0.057 A 
HETATM   22  C   UNL     1     -42.790  59.611 -50.958  1.00  0.00     0.007 A 
HETATM   23  C   UNL     1     -41.690  60.305 -50.451  1.00  0.00     0.001 A 
HETATM   24  C   UNL     1     -40.437  59.695 -50.410  1.00  0.00     0.000 A 
HETATM   25  C   UNL     1     -40.284  58.391 -50.877  1.00  0.00     0.001 A 
HETATM   26  C   UNL     1     -41.382  57.698 -51.386  1.00  0.00     0.007 A 
ENDBRANCH  20  21
ENDBRANCH  19  20
ENDBRANCH   2  19
BRANCH  10  27
HETATM   27  C   UNL     1     -44.472  56.933 -58.674  1.00  0.00     0.026 A 
HETATM   28  C   UNL     1     -45.572  57.050 -59.539  1.00  0.00     0.078 A 
HETATM   29  C   UNL     1     -45.877  56.053 -60.462  1.00  0.00     0.037 A 
HETATM   30  C   UNL     1     -45.101  54.897 -60.513  1.00  0.00     0.003 A 
HETATM   31  C   UNL     1     -44.016  54.752 -59.650  1.00  0.00     0.001 A 
HETATM   32  C   UNL     1     -43.698  55.768 -58.743  1.00  0.00     0.016 A 
BRANCH  28  33
HETATM   33  O   UNL     1     -46.409  58.134 -59.519  1.00  0.00    -0.360 OA
HETATM   34  H   UNL     1     -46.230  58.665 -60.316  1.00  0.00     0.217 HD
ENDBRANCH  28  33
ENDBRANCH  10  27
TORSDOF 7
ENDMDL
MODEL 10
REMARK VINA RESULT:      -6.7      1.689      2.862
REMARK  7 active torsions:
REMARK  status: ('A' for Active; 'I' for Inactive)
REMARK    1  A    between atoms: S_2  and  C_3 
REMARK    2  A    between atoms: C_6  and  C_7 
REMARK    3  A    between atoms: N_8  and  C_9 
REMARK    4  A    between atoms: C_9  and  C_10 
REMARK    5  A    between atoms: C_10  and  C_11 
REMARK    6  A    between atoms: C_24  and  C_25 
REMARK    7  A    between atoms: C_26  and  O_27 
ROOT
HETATM    1  C   UNL     1     -43.242  57.281 -54.670  1.00  0.00     0.159 A 
HETATM    2  N   UNL     1     -42.812  58.302 -53.687  1.00  0.00    -0.333 N 
HETATM    3  C   UNL     1     -42.080  59.365 -54.241  1.00  0.00     0.275 A 
HETATM    4  O   UNL     1     -41.570  60.305 -53.655  1.00  0.00    -0.266 OA
HETATM    5  C   UNL     1     -42.117  59.107 -55.665  1.00  0.00     0.155 A 
HETATM    6  C   UNL     1     -42.811  57.922 -55.937  1.00  0.00     0.034 A 
HETATM    7  N   UNL     1     -41.716  59.747 -56.759  1.00  0.00    -0.168 NA
HETATM    8  N   UNL     1     -42.162  58.934 -57.747  1.00  0.00    -0.276 N 
HETATM    9  H   UNL     1     -41.970  59.193 -58.710  1.00  0.00     0.189 HD
HETATM   10  C   UNL     1     -42.913  57.855 -57.305  1.00  0.00     0.074 A 
ENDROOT
BRANCH   1  11
HETATM   11  C   UNL     1     -42.471  55.982 -54.548  1.00  0.00    -0.031 A 
HETATM   12  C   UNL     1     -43.166  54.763 -54.516  1.00  0.00     0.011 A 
HETATM   13  C   UNL     1     -42.477  53.545 -54.453  1.00  0.00     0.019 A 
HETATM   14  C   UNL     1     -41.081  53.519 -54.424  1.00  0.00    -0.000 A 
HETATM   15  C   UNL     1     -40.381  54.725 -54.407  1.00  0.00     0.019 A 
HETATM   16  C   UNL     1     -41.066  55.941 -54.467  1.00  0.00     0.011 A 
BRANCH  14  17
HETATM   17  S   UNL     1     -40.235  51.950 -54.383  1.00  0.00    -0.134 SA
HETATM   18  C   UNL     1     -39.796  51.881 -52.623  1.00  0.00     0.095 C 
ENDBRANCH  14  17
ENDBRANCH   1  11
BRANCH   2  19
HETATM   19  C   UNL     1     -43.155  58.212 -52.277  1.00  0.00     0.132 C 
BRANCH  19  20
HETATM   20  C   UNL     1     -44.538  58.805 -51.978  1.00  0.00     0.058 C 
BRANCH  20  21
HETATM   21  C   UNL     1     -44.510  59.875 -50.915  1.00  0.00    -0.057 A 
HETATM   22  C   UNL     1     -43.521  60.867 -50.918  1.00  0.00     0.007 A 
HETATM   23  C   UNL     1     -43.517  61.865 -49.943  1.00  0.00     0.001 A 
HETATM   24  C   UNL     1     -44.503  61.886 -48.958  1.00  0.00     0.000 A 
HETATM   25  C   UNL     1     -45.495  60.908 -48.948  1.00  0.00     0.001 A 
HETATM   26  C   UNL     1     -45.498  59.907 -49.920  1.00  0.00     0.007 A 
ENDBRANCH  20  21
ENDBRANCH  19  20
ENDBRANCH   2  19
BRANCH  10  27
HETATM   27  C   UNL     1     -43.599  56.952 -58.222  1.00  0.00     0.026 A 
HETATM   28  C   UNL     1     -44.591  57.411 -59.104  1.00  0.00     0.078 A 
HETATM   29  C   UNL     1     -45.196  56.557 -60.022  1.00  0.00     0.037 A 
HETATM   30  C   UNL     1     -44.842  55.210 -60.051  1.00  0.00     0.003 A 
HETATM   31  C   UNL     1     -43.874  54.729 -59.172  1.00  0.00     0.001 A 
HETATM   32  C   UNL     1     -43.249  55.597 -58.270  1.00  0.00     0.016 A 
BRANCH  28  33
HETATM   33  O   UNL     1     -45.026  58.710 -59.106  1.00  0.00    -0.360 OA
HETATM   34  H   UNL     1     -45.442  58.888 -58.244  1.00  0.00     0.217 HD
ENDBRANCH  28  33
ENDBRANCH  10  27
TORSDOF 7
ENDMDL
