MODEL 1
REMARK VINA RESULT:      -7.2      0.000      0.000
REMARK  9 active torsions:
REMARK  status: ('A' for Active; 'I' for Inactive)
REMARK    1  A    between atoms: C_2  and  C_3 
REMARK    2  A    between atoms: C_3  and  C_4 
REMARK    3  A    between atoms: C_7  and  C_8 
REMARK       I    between atoms: C_8  and  N_9 
REMARK    4  A    between atoms: C_13  and  O_14 
REMARK    5  A    between atoms: O_14  and  C_15 
REMARK    6  A    between atoms: C_15  and  C_16 
REMARK    7  A    between atoms: C_16  and  O_17 
REMARK    8  A    between atoms: C_19  and  N_20 
REMARK       I    between atoms: N_20  and  C_21 
REMARK    9  A    between atoms: C_21  and  C_22 
ROOT
HETATM    1  C   UNL     1     -43.140  55.225 -53.986  1.00  0.00     0.274 C 
HETATM    2  N   UNL     1     -43.072  56.431 -53.266  1.00  0.00    -0.347 N 
HETATM    3  C   UNL     1     -41.838  57.190 -53.048  1.00  0.00     0.127 C 
HETATM    4  C   UNL     1     -41.734  58.285 -54.108  1.00  0.00     0.037 C 
HETATM    5  C   UNL     1     -42.957  59.232 -54.063  1.00  0.00     0.019 C 
HETATM    6  C   UNL     1     -42.976  60.166 -52.788  1.00  0.00     0.162 C 
HETATM    7  C   UNL     1     -43.446  61.579 -53.264  1.00  0.00     0.148 C 
HETATM    8  C   UNL     1     -43.162  61.541 -54.737  1.00  0.00    -0.026 A 
HETATM    9  C   UNL     1     -42.909  60.245 -55.191  1.00  0.00    -0.038 A 
HETATM   10  C   UNL     1     -43.172  62.622 -55.611  1.00  0.00     0.010 A 
HETATM   11  C   UNL     1     -42.928  62.392 -56.965  1.00  0.00     0.001 A 
HETATM   12  C   UNL     1     -42.687  61.093 -57.429  1.00  0.00     0.001 A 
HETATM   13  C   UNL     1     -42.680  60.012 -56.543  1.00  0.00     0.009 A 
HETATM   14  C   UNL     1     -44.261  58.396 -54.162  1.00  0.00     0.037 C 
HETATM   15  C   UNL     1     -44.282  57.240 -53.155  1.00  0.00     0.127 C 
HETATM   16  O   UNL     1     -44.182  54.883 -54.550  1.00  0.00    -0.266 OA
ENDROOT
BRANCH   6  17
HETATM   17  O   UNL     1     -41.656  60.237 -52.208  1.00  0.00    -0.380 OA
BRANCH  17  18
HETATM   18  C   UNL     1     -41.670  60.225 -50.778  1.00  0.00     0.194 C 
BRANCH  18  19
HETATM   19  C   UNL     1     -40.447  59.463 -50.276  1.00  0.00     0.193 C 
BRANCH  19  20
HETATM   20  O   UNL     1     -39.395  59.564 -51.232  1.00  0.00    -0.394 OA
HETATM   21  C   UNL     1     -38.124  59.327 -50.640  1.00  0.00     0.201 C 
ENDBRANCH  19  20
ENDBRANCH  18  19
ENDBRANCH  17  18
ENDBRANCH   6  17
BRANCH   7  22
HETATM   22  N   UNL     1     -44.855  61.845 -53.034  1.00  0.00    -0.350 N 
HETATM   23  C   UNL     1     -45.291  62.429 -51.869  1.00  0.00     0.221 C 
HETATM   24  O   UNL     1     -44.553  62.610 -50.906  1.00  0.00    -0.273 OA
HETATM   25  H   UNL     1     -45.490  61.751 -53.816  1.00  0.00     0.163 HD
BRANCH  23  26
HETATM   26  C   UNL     1     -46.763  62.830 -51.888  1.00  0.00     0.070 C 
HETATM   27  C   UNL     1     -47.614  61.750 -52.554  1.00  0.00     0.019 C 
HETATM   28  C   UNL     1     -47.260  63.089 -50.466  1.00  0.00     0.019 C 
ENDBRANCH  23  26
ENDBRANCH   7  22
BRANCH   1  29
HETATM   29  C   UNL     1     -41.948  54.369 -54.100  1.00  0.00     0.154 A 
HETATM   30  N   UNL     1     -41.114  54.381 -55.154  1.00  0.00    -0.123 NA
HETATM   31  O   UNL     1     -40.163  53.413 -54.909  1.00  0.00    -0.217 OA
HETATM   32  C   UNL     1     -40.368  52.874 -53.679  1.00  0.00     0.081 A 
HETATM   33  C   UNL     1     -41.468  53.466 -53.112  1.00  0.00     0.074 A 
BRANCH  32  34
HETATM   34  C   UNL     1     -39.450  51.783 -53.262  1.00  0.00     0.071 C 
BRANCH  34  35
HETATM   35  C   UNL     1     -40.056  50.374 -53.390  1.00  0.00    -0.017 C 
HETATM   36  C   UNL     1     -39.571  49.427 -52.289  1.00  0.00     0.010 C 
HETATM   37  C   UNL     1     -39.693  49.783 -54.757  1.00  0.00     0.010 C 
ENDBRANCH  34  35
ENDBRANCH  32  34
ENDBRANCH   1  29
TORSDOF 9
ENDMDL
MODEL 2
REMARK VINA RESULT:      -7.1      3.642      6.280
REMARK  9 active torsions:
REMARK  status: ('A' for Active; 'I' for Inactive)
REMARK    1  A    between atoms: C_2  and  C_3 
REMARK    2  A    between atoms: C_3  and  C_4 
REMARK    3  A    between atoms: C_7  and  C_8 
REMARK       I    between atoms: C_8  and  N_9 
REMARK    4  A    between atoms: C_13  and  O_14 
REMARK    5  A    between atoms: O_14  and  C_15 
REMARK    6  A    between atoms: C_15  and  C_16 
REMARK    7  A    between atoms: C_16  and  O_17 
REMARK    8  A    between atoms: C_19  and  N_20 
REMARK       I    between atoms: N_20  and  C_21 
REMARK    9  A    between atoms: C_21  and  C_22 
ROOT
HETATM    1  C   UNL     1     -42.315  57.326 -53.165  1.00  0.00     0.274 C 
HETATM    2  N   UNL     1     -41.967  57.604 -54.500  1.00  0.00    -0.347 N 
HETATM    3  C   UNL     1     -42.034  56.626 -55.588  1.00  0.00     0.127 C 
HETATM    4  C   UNL     1     -43.364  56.791 -56.323  1.00  0.00     0.037 C 
HETATM    5  C   UNL     1     -43.524  58.224 -56.885  1.00  0.00     0.019 C 
HETATM    6  C   UNL     1     -42.563  58.528 -58.102  1.00  0.00     0.162 C 
HETATM    7  C   UNL     1     -43.392  59.348 -59.144  1.00  0.00     0.148 C 
HETATM    8  C   UNL     1     -44.808  59.024 -58.766  1.00  0.00    -0.026 A 
HETATM    9  C   UNL     1     -44.892  58.420 -57.510  1.00  0.00    -0.038 A 
HETATM   10  C   UNL     1     -45.949  59.300 -59.511  1.00  0.00     0.010 A 
HETATM   11  C   UNL     1     -47.194  58.966 -58.978  1.00  0.00     0.001 A 
HETATM   12  C   UNL     1     -47.286  58.373 -57.714  1.00  0.00     0.001 A 
HETATM   13  C   UNL     1     -46.134  58.099 -56.972  1.00  0.00     0.009 A 
HETATM   14  C   UNL     1     -43.318  59.253 -55.740  1.00  0.00     0.037 C 
HETATM   15  C   UNL     1     -42.026  58.990 -54.956  1.00  0.00     0.127 C 
HETATM   16  O   UNL     1     -42.707  58.222 -52.414  1.00  0.00    -0.266 OA
ENDROOT
BRANCH   6  17
HETATM   17  O   UNL     1     -42.095  57.293 -58.683  1.00  0.00    -0.380 OA
BRANCH  17  18
HETATM   18  C   UNL     1     -42.624  57.050 -59.989  1.00  0.00     0.194 C 
BRANCH  18  19
HETATM   19  C   UNL     1     -43.416  55.746 -59.971  1.00  0.00     0.193 C 
BRANCH  19  20
HETATM   20  O   UNL     1     -44.353  55.741 -61.045  1.00  0.00    -0.394 OA
HETATM   21  C   UNL     1     -45.693  55.700 -60.572  1.00  0.00     0.201 C 
ENDBRANCH  19  20
ENDBRANCH  18  19
ENDBRANCH  17  18
ENDBRANCH   6  17
BRANCH   7  22
HETATM   22  N   UNL     1     -43.175  60.782 -59.081  1.00  0.00    -0.350 N 
HETATM   23  C   UNL     1     -42.333  61.416 -59.964  1.00  0.00     0.221 C 
HETATM   24  O   UNL     1     -41.607  60.803 -60.738  1.00  0.00    -0.273 OA
HETATM   25  H   UNL     1     -43.785  61.330 -58.488  1.00  0.00     0.163 HD
BRANCH  23  26
HETATM   26  C   UNL     1     -42.392  62.939 -59.891  1.00  0.00     0.070 C 
HETATM   27  C   UNL     1     -43.555  63.400 -59.015  1.00  0.00     0.019 C 
HETATM   28  C   UNL     1     -41.074  63.494 -59.352  1.00  0.00     0.019 C 
ENDBRANCH  23  26
ENDBRANCH   7  22
BRANCH   1  29
HETATM   29  C   UNL     1     -42.245  55.945 -52.661  1.00  0.00     0.154 A 
HETATM   30  N   UNL     1     -43.296  55.108 -52.617  1.00  0.00    -0.123 NA
HETATM   31  O   UNL     1     -42.840  53.942 -52.038  1.00  0.00    -0.217 OA
HETATM   32  C   UNL     1     -41.505  54.039 -51.808  1.00  0.00     0.081 A 
HETATM   33  C   UNL     1     -41.073  55.276 -52.213  1.00  0.00     0.074 A 
BRANCH  32  34
HETATM   34  C   UNL     1     -40.850  52.878 -51.152  1.00  0.00     0.071 C 
BRANCH  34  35
HETATM   35  C   UNL     1     -39.788  52.185 -52.025  1.00  0.00    -0.017 C 
HETATM   36  C   UNL     1     -40.216  52.082 -53.492  1.00  0.00     0.010 C 
HETATM   37  C   UNL     1     -39.516  50.779 -51.480  1.00  0.00     0.010 C 
ENDBRANCH  34  35
ENDBRANCH  32  34
ENDBRANCH   1  29
TORSDOF 9
ENDMDL
MODEL 3
REMARK VINA RESULT:      -7.1      1.828      2.229
REMARK  9 active torsions:
REMARK  status: ('A' for Active; 'I' for Inactive)
REMARK    1  A    between atoms: C_2  and  C_3 
REMARK    2  A    between atoms: C_3  and  C_4 
REMARK    3  A    between atoms: C_7  and  C_8 
REMARK       I    between atoms: C_8  and  N_9 
REMARK    4  A    between atoms: C_13  and  O_14 
REMARK    5  A    between atoms: O_14  and  C_15 
REMARK    6  A    between atoms: C_15  and  C_16 
REMARK    7  A    between atoms: C_16  and  O_17 
REMARK    8  A    between atoms: C_19  and  N_20 
REMARK       I    between atoms: N_20  and  C_21 
REMARK    9  A    between atoms: C_21  and  C_22 
ROOT
HETATM    1  C   UNL     1     -42.880  54.324 -51.275  1.00  0.00     0.274 C 
HETATM    2  N   UNL     1     -42.748  55.714 -51.102  1.00  0.00    -0.347 N 
HETATM    3  C   UNL     1     -41.653  56.512 -51.660  1.00  0.00     0.127 C 
HETATM    4  C   UNL     1     -42.111  57.127 -52.982  1.00  0.00     0.037 C 
HETATM    5  C   UNL     1     -43.368  58.008 -52.789  1.00  0.00     0.019 C 
HETATM    6  C   UNL     1     -43.074  59.354 -52.014  1.00  0.00     0.162 C 
HETATM    7  C   UNL     1     -43.900  60.477 -52.721  1.00  0.00     0.148 C 
HETATM    8  C   UNL     1     -44.163  59.889 -54.077  1.00  0.00    -0.026 A 
HETATM    9  C   UNL     1     -43.890  58.521 -54.118  1.00  0.00    -0.038 A 
HETATM   10  C   UNL     1     -44.656  60.560 -55.190  1.00  0.00     0.010 A 
HETATM   11  C   UNL     1     -44.883  59.838 -56.362  1.00  0.00     0.001 A 
HETATM   12  C   UNL     1     -44.624  58.463 -56.406  1.00  0.00     0.001 A 
HETATM   13  C   UNL     1     -44.128  57.797 -55.282  1.00  0.00     0.009 A 
HETATM   14  C   UNL     1     -44.473  57.182 -52.075  1.00  0.00     0.037 C 
HETATM   15  C   UNL     1     -43.948  56.492 -50.810  1.00  0.00     0.127 C 
HETATM   16  O   UNL     1     -43.987  53.784 -51.231  1.00  0.00    -0.266 OA
ENDROOT
BRANCH   6  17
HETATM   17  O   UNL     1     -41.663  59.653 -52.062  1.00  0.00    -0.380 OA
BRANCH  17  18
HETATM   18  C   UNL     1     -41.095  59.888 -50.770  1.00  0.00     0.194 C 
BRANCH  18  19
HETATM   19  C   UNL     1     -39.661  59.368 -50.756  1.00  0.00     0.193 C 
BRANCH  19  20
HETATM   20  O   UNL     1     -38.782  60.402 -50.319  1.00  0.00    -0.394 OA
HETATM   21  C   UNL     1     -37.683  59.879 -49.583  1.00  0.00     0.201 C 
ENDBRANCH  19  20
ENDBRANCH  18  19
ENDBRANCH  17  18
ENDBRANCH   6  17
BRANCH   7  22
HETATM   22  N   UNL     1     -45.155  60.796 -52.064  1.00  0.00    -0.350 N 
HETATM   23  C   UNL     1     -45.579  62.096 -51.925  1.00  0.00     0.221 C 
HETATM   24  O   UNL     1     -44.865  63.054 -52.197  1.00  0.00    -0.273 OA
HETATM   25  H   UNL     1     -45.793  60.036 -51.864  1.00  0.00     0.163 HD
BRANCH  23  26
HETATM   26  C   UNL     1     -47.008  62.230 -51.408  1.00  0.00     0.070 C 
HETATM   27  C   UNL     1     -47.132  63.409 -50.445  1.00  0.00     0.019 C 
HETATM   28  C   UNL     1     -47.979  62.400 -52.577  1.00  0.00     0.019 C 
ENDBRANCH  23  26
ENDBRANCH   7  22
BRANCH   1  29
HETATM   29  C   UNL     1     -41.690  53.502 -51.547  1.00  0.00     0.154 A 
HETATM   30  N   UNL     1     -40.849  53.062 -50.595  1.00  0.00    -0.123 NA
HETATM   31  O   UNL     1     -39.844  52.380 -51.249  1.00  0.00    -0.217 OA
HETATM   32  C   UNL     1     -40.115  52.333 -52.580  1.00  0.00     0.081 A 
HETATM   33  C   UNL     1     -41.289  53.003 -52.817  1.00  0.00     0.074 A 
BRANCH  32  34
HETATM   34  C   UNL     1     -39.114  51.662 -53.447  1.00  0.00     0.071 C 
BRANCH  34  35
HETATM   35  C   UNL     1     -39.434  50.185 -53.741  1.00  0.00    -0.017 C 
HETATM   36  C   UNL     1     -40.694  50.019 -54.595  1.00  0.00     0.010 C 
HETATM   37  C   UNL     1     -39.618  49.428 -52.420  1.00  0.00     0.010 C 
ENDBRANCH  34  35
ENDBRANCH  32  34
ENDBRANCH   1  29
TORSDOF 9
ENDMDL
MODEL 4
REMARK VINA RESULT:      -6.6      1.176      1.866
REMARK  9 active torsions:
REMARK  status: ('A' for Active; 'I' for Inactive)
REMARK    1  A    between atoms: C_2  and  C_3 
REMARK    2  A    between atoms: C_3  and  C_4 
REMARK    3  A    between atoms: C_7  and  C_8 
REMARK       I    between atoms: C_8  and  N_9 
REMARK    4  A    between atoms: C_13  and  O_14 
REMARK    5  A    between atoms: O_14  and  C_15 
REMARK    6  A    between atoms: C_15  and  C_16 
REMARK    7  A    between atoms: C_16  and  O_17 
REMARK    8  A    between atoms: C_19  and  N_20 
REMARK       I    between atoms: N_20  and  C_21 
REMARK    9  A    between atoms: C_21  and  C_22 
ROOT
HETATM    1  C   UNL     1     -43.118  55.146 -54.237  1.00  0.00     0.274 C 
HETATM    2  N   UNL     1     -43.139  56.397 -53.594  1.00  0.00    -0.347 N 
HETATM    3  C   UNL     1     -41.945  57.200 -53.316  1.00  0.00     0.127 C 
HETATM    4  C   UNL     1     -41.766  58.228 -54.432  1.00  0.00     0.037 C 
HETATM    5  C   UNL     1     -43.006  59.144 -54.558  1.00  0.00     0.019 C 
HETATM    6  C   UNL     1     -43.160  60.156 -53.354  1.00  0.00     0.162 C 
HETATM    7  C   UNL     1     -43.613  61.523 -53.961  1.00  0.00     0.148 C 
HETATM    8  C   UNL     1     -43.195  61.400 -55.397  1.00  0.00    -0.026 A 
HETATM    9  C   UNL     1     -42.876  60.085 -55.741  1.00  0.00    -0.038 A 
HETATM   10  C   UNL     1     -43.146  62.423 -56.337  1.00  0.00     0.010 A 
HETATM   11  C   UNL     1     -42.775  62.114 -57.646  1.00  0.00     0.001 A 
HETATM   12  C   UNL     1     -42.468  60.795 -58.000  1.00  0.00     0.001 A 
HETATM   13  C   UNL     1     -42.520  59.773 -57.049  1.00  0.00     0.009 A 
HETATM   14  C   UNL     1     -44.280  58.271 -54.720  1.00  0.00     0.037 C 
HETATM   15  C   UNL     1     -44.370  57.180 -53.645  1.00  0.00     0.127 C 
HETATM   16  O   UNL     1     -44.097  54.744 -54.869  1.00  0.00    -0.266 OA
ENDROOT
BRANCH   6  17
HETATM   17  O   UNL     1     -41.900  60.297 -52.664  1.00  0.00    -0.380 OA
BRANCH  17  18
HETATM   18  C   UNL     1     -42.028  60.222 -51.241  1.00  0.00     0.194 C 
BRANCH  18  19
HETATM   19  C   UNL     1     -43.453  59.807 -50.891  1.00  0.00     0.193 C 
BRANCH  19  20
HETATM   20  O   UNL     1     -44.019  60.754 -49.988  1.00  0.00    -0.394 OA
HETATM   21  C   UNL     1     -45.405  60.519 -49.782  1.00  0.00     0.201 C 
ENDBRANCH  19  20
ENDBRANCH  18  19
ENDBRANCH  17  18
ENDBRANCH   6  17
BRANCH   7  22
HETATM   22  N   UNL     1     -45.041  61.768 -53.877  1.00  0.00    -0.350 N 
HETATM   23  C   UNL     1     -45.559  62.676 -52.984  1.00  0.00     0.221 C 
HETATM   24  O   UNL     1     -44.878  63.206 -52.113  1.00  0.00    -0.273 OA
HETATM   25  H   UNL     1     -45.633  61.386 -54.603  1.00  0.00     0.163 HD
BRANCH  23  26
HETATM   26  C   UNL     1     -47.045  62.961 -53.181  1.00  0.00     0.070 C 
HETATM   27  C   UNL     1     -47.394  64.377 -52.726  1.00  0.00     0.019 C 
HETATM   28  C   UNL     1     -47.431  62.770 -54.648  1.00  0.00     0.019 C 
ENDBRANCH  23  26
ENDBRANCH   7  22
BRANCH   1  29
HETATM   29  C   UNL     1     -41.904  54.316 -54.188  1.00  0.00     0.154 A 
HETATM   30  N   UNL     1     -40.941  54.337 -55.126  1.00  0.00    -0.123 NA
HETATM   31  O   UNL     1     -40.011  53.391 -54.750  1.00  0.00    -0.217 OA
HETATM   32  C   UNL     1     -40.361  52.858 -53.551  1.00  0.00     0.081 A 
HETATM   33  C   UNL     1     -41.537  53.431 -53.136  1.00  0.00     0.074 A 
BRANCH  32  34
HETATM   34  C   UNL     1     -39.483  51.791 -53.007  1.00  0.00     0.071 C 
BRANCH  34  35
HETATM   35  C   UNL     1     -40.022  50.366 -53.228  1.00  0.00    -0.017 C 
HETATM   36  C   UNL     1     -39.576  49.396 -52.129  1.00  0.00     0.010 C 
HETATM   37  C   UNL     1     -39.544  49.842 -54.586  1.00  0.00     0.010 C 
ENDBRANCH  34  35
ENDBRANCH  32  34
ENDBRANCH   1  29
TORSDOF 9
ENDMDL
MODEL 5
REMARK VINA RESULT:      -6.6      2.251      3.050
REMARK  9 active torsions:
REMARK  status: ('A' for Active; 'I' for Inactive)
REMARK    1  A    between atoms: C_2  and  C_3 
REMARK    2  A    between atoms: C_3  and  C_4 
REMARK    3  A    between atoms: C_7  and  C_8 
REMARK       I    between atoms: C_8  and  N_9 
REMARK    4  A    between atoms: C_13  and  O_14 
REMARK    5  A    between atoms: O_14  and  C_15 
REMARK    6  A    between atoms: C_15  and  C_16 
REMARK    7  A    between atoms: C_16  and  O_17 
REMARK    8  A    between atoms: C_19  and  N_20 
REMARK       I    between atoms: N_20  and  C_21 
REMARK    9  A    between atoms: C_21  and  C_22 
ROOT
HETATM    1  C   UNL     1     -43.612  54.921 -53.895  1.00  0.00     0.274 C 
HETATM    2  N   UNL     1     -43.559  56.326 -53.841  1.00  0.00    -0.347 N 
HETATM    3  C   UNL     1     -42.318  57.100 -53.762  1.00  0.00     0.127 C 
HETATM    4  C   UNL     1     -41.917  57.541 -55.168  1.00  0.00     0.037 C 
HETATM    5  C   UNL     1     -43.030  58.386 -55.833  1.00  0.00     0.019 C 
HETATM    6  C   UNL     1     -43.190  59.822 -55.192  1.00  0.00     0.162 C 
HETATM    7  C   UNL     1     -43.427  60.823 -56.369  1.00  0.00     0.148 C 
HETATM    8  C   UNL     1     -42.885  60.075 -57.552  1.00  0.00    -0.026 A 
HETATM    9  C   UNL     1     -42.680  58.723 -57.270  1.00  0.00    -0.038 A 
HETATM   10  C   UNL     1     -42.631  60.595 -58.816  1.00  0.00     0.010 A 
HETATM   11  C   UNL     1     -42.168  59.736 -59.813  1.00  0.00     0.001 A 
HETATM   12  C   UNL     1     -41.974  58.376 -59.541  1.00  0.00     0.001 A 
HETATM   13  C   UNL     1     -42.232  57.863 -58.267  1.00  0.00     0.009 A 
HETATM   14  C   UNL     1     -44.370  57.602 -55.789  1.00  0.00     0.037 C 
HETATM   15  C   UNL     1     -44.685  57.081 -54.381  1.00  0.00     0.127 C 
HETATM   16  O   UNL     1     -44.561  54.344 -54.430  1.00  0.00    -0.266 OA
ENDROOT
BRANCH   6  17
HETATM   17  O   UNL     1     -41.997  60.171 -54.459  1.00  0.00    -0.380 OA
BRANCH  17  18
HETATM   18  C   UNL     1     -42.272  60.712 -53.163  1.00  0.00     0.194 C 
BRANCH  18  19
HETATM   19  C   UNL     1     -43.701  60.351 -52.768  1.00  0.00     0.193 C 
BRANCH  19  20
HETATM   20  O   UNL     1     -43.697  59.716 -51.491  1.00  0.00    -0.394 OA
HETATM   21  C   UNL     1     -42.387  59.642 -50.946  1.00  0.00     0.201 C 
ENDBRANCH  19  20
ENDBRANCH  18  19
ENDBRANCH  17  18
ENDBRANCH   6  17
BRANCH   7  22
HETATM   22  N   UNL     1     -44.821  61.162 -56.590  1.00  0.00    -0.350 N 
HETATM   23  C   UNL     1     -45.387  62.272 -56.010  1.00  0.00     0.221 C 
HETATM   24  O   UNL     1     -44.807  62.940 -55.161  1.00  0.00    -0.273 OA
HETATM   25  H   UNL     1     -45.322  60.664 -57.315  1.00  0.00     0.163 HD
BRANCH  23  26
HETATM   26  C   UNL     1     -46.789  62.592 -56.520  1.00  0.00     0.070 C 
HETATM   27  C   UNL     1     -46.853  64.009 -57.088  1.00  0.00     0.019 C 
HETATM   28  C   UNL     1     -47.209  61.579 -57.584  1.00  0.00     0.019 C 
ENDBRANCH  23  26
ENDBRANCH   7  22
BRANCH   1  29
HETATM   29  C   UNL     1     -42.507  54.123 -53.340  1.00  0.00     0.154 A 
HETATM   30  N   UNL     1     -42.166  54.116 -52.040  1.00  0.00    -0.123 NA
HETATM   31  O   UNL     1     -41.063  53.295 -51.931  1.00  0.00    -0.217 OA
HETATM   32  C   UNL     1     -40.786  52.740 -53.140  1.00  0.00     0.081 A 
HETATM   33  C   UNL     1     -41.690  53.208 -54.060  1.00  0.00     0.074 A 
BRANCH  32  34
HETATM   34  C   UNL     1     -39.601  51.849 -53.216  1.00  0.00     0.071 C 
BRANCH  34  35
HETATM   35  C   UNL     1     -39.950  50.354 -53.321  1.00  0.00    -0.017 C 
HETATM   36  C   UNL     1     -39.513  49.564 -52.083  1.00  0.00     0.010 C 
HETATM   37  C   UNL     1     -39.277  49.757 -54.562  1.00  0.00     0.010 C 
ENDBRANCH  34  35
ENDBRANCH  32  34
ENDBRANCH   1  29
TORSDOF 9
ENDMDL
MODEL 6
REMARK VINA RESULT:      -6.6      3.660      7.541
REMARK  9 active torsions:
REMARK  status: ('A' for Active; 'I' for Inactive)
REMARK    1  A    between atoms: C_2  and  C_3 
REMARK    2  A    between atoms: C_3  and  C_4 
REMARK    3  A    between atoms: C_7  and  C_8 
REMARK       I    between atoms: C_8  and  N_9 
REMARK    4  A    between atoms: C_13  and  O_14 
REMARK    5  A    between atoms: O_14  and  C_15 
REMARK    6  A    between atoms: C_15  and  C_16 
REMARK    7  A    between atoms: C_16  and  O_17 
REMARK    8  A    between atoms: C_19  and  N_20 
REMARK       I    between atoms: N_20  and  C_21 
REMARK    9  A    between atoms: C_21  and  C_22 
ROOT
HETATM    1  C   UNL     1     -43.088  57.431 -57.696  1.00  0.00     0.274 C 
HETATM    2  N   UNL     1     -43.294  57.642 -56.320  1.00  0.00    -0.347 N 
HETATM    3  C   UNL     1     -44.270  56.907 -55.512  1.00  0.00     0.127 C 
HETATM    4  C   UNL     1     -43.564  55.744 -54.817  1.00  0.00     0.037 C 
HETATM    5  C   UNL     1     -42.401  56.241 -53.926  1.00  0.00     0.019 C 
HETATM    6  C   UNL     1     -42.889  57.003 -52.631  1.00  0.00     0.162 C 
HETATM    7  C   UNL     1     -41.967  56.543 -51.455  1.00  0.00     0.148 C 
HETATM    8  C   UNL     1     -41.410  55.245 -51.963  1.00  0.00    -0.026 A 
HETATM    9  C   UNL     1     -41.628  55.078 -53.332  1.00  0.00    -0.038 A 
HETATM   10  C   UNL     1     -40.714  54.296 -51.223  1.00  0.00     0.010 A 
HETATM   11  C   UNL     1     -40.227  53.163 -51.875  1.00  0.00     0.001 A 
HETATM   12  C   UNL     1     -40.431  52.996 -53.250  1.00  0.00     0.001 A 
HETATM   13  C   UNL     1     -41.131  53.956 -53.986  1.00  0.00     0.009 A 
HETATM   14  C   UNL     1     -41.446  57.129 -54.770  1.00  0.00     0.037 C 
HETATM   15  C   UNL     1     -42.204  58.218 -55.539  1.00  0.00     0.127 C 
HETATM   16  O   UNL     1     -41.999  57.680 -58.218  1.00  0.00    -0.266 OA
ENDROOT
BRANCH   6  17
HETATM   17  O   UNL     1     -44.267  56.675 -52.355  1.00  0.00    -0.380 OA
BRANCH  17  18
HETATM   18  C   UNL     1     -44.708  57.132 -51.073  1.00  0.00     0.194 C 
BRANCH  18  19
HETATM   19  C   UNL     1     -45.304  58.528 -51.222  1.00  0.00     0.193 C 
BRANCH  19  20
HETATM   20  O   UNL     1     -45.855  58.948 -49.975  1.00  0.00    -0.394 OA
HETATM   21  C   UNL     1     -45.558  60.312 -49.704  1.00  0.00     0.201 C 
ENDBRANCH  19  20
ENDBRANCH  18  19
ENDBRANCH  17  18
ENDBRANCH   6  17
BRANCH   7  22
HETATM   22  N   UNL     1     -40.887  57.464 -51.151  1.00  0.00    -0.350 N 
HETATM   23  C   UNL     1     -40.994  58.807 -51.427  1.00  0.00     0.221 C 
HETATM   24  O   UNL     1     -41.922  59.274 -52.079  1.00  0.00    -0.273 OA
HETATM   25  H   UNL     1     -40.124  57.130 -50.576  1.00  0.00     0.163 HD
BRANCH  23  26
HETATM   26  C   UNL     1     -39.863  59.651 -50.848  1.00  0.00     0.070 C 
HETATM   27  C   UNL     1     -39.962  59.726 -49.325  1.00  0.00     0.019 C 
HETATM   28  C   UNL     1     -38.508  59.076 -51.260  1.00  0.00     0.019 C 
ENDBRANCH  23  26
ENDBRANCH   7  22
BRANCH   1  29
HETATM   29  C   UNL     1     -44.170  56.875 -58.523  1.00  0.00     0.154 A 
HETATM   30  N   UNL     1     -44.077  55.719 -59.203  1.00  0.00    -0.123 NA
HETATM   31  O   UNL     1     -45.265  55.574 -59.888  1.00  0.00    -0.217 OA
HETATM   32  C   UNL     1     -46.107  56.589 -59.563  1.00  0.00     0.081 A 
HETATM   33  C   UNL     1     -45.473  57.425 -58.678  1.00  0.00     0.074 A 
BRANCH  32  34
HETATM   34  C   UNL     1     -47.428  56.610 -60.239  1.00  0.00     0.071 C 
BRANCH  34  35
HETATM   35  C   UNL     1     -47.457  57.452 -61.528  1.00  0.00    -0.017 C 
HETATM   36  C   UNL     1     -47.740  58.932 -61.251  1.00  0.00     0.010 C 
HETATM   37  C   UNL     1     -48.531  56.904 -62.474  1.00  0.00     0.010 C 
ENDBRANCH  34  35
ENDBRANCH  32  34
ENDBRANCH   1  29
TORSDOF 9
ENDMDL
MODEL 7
REMARK VINA RESULT:      -6.3      4.693      6.133
REMARK  9 active torsions:
REMARK  status: ('A' for Active; 'I' for Inactive)
REMARK    1  A    between atoms: C_2  and  C_3 
REMARK    2  A    between atoms: C_3  and  C_4 
REMARK    3  A    between atoms: C_7  and  C_8 
REMARK       I    between atoms: C_8  and  N_9 
REMARK    4  A    between atoms: C_13  and  O_14 
REMARK    5  A    between atoms: O_14  and  C_15 
REMARK    6  A    between atoms: C_15  and  C_16 
REMARK    7  A    between atoms: C_16  and  O_17 
REMARK    8  A    between atoms: C_19  and  N_20 
REMARK       I    between atoms: N_20  and  C_21 
REMARK    9  A    between atoms: C_21  and  C_22 
ROOT
HETATM    1  C   UNL     1     -43.795  56.952 -54.799  1.00  0.00     0.274 C 
HETATM    2  N   UNL     1     -43.868  58.030 -55.699  1.00  0.00    -0.347 N 
HETATM    3  C   UNL     1     -43.068  58.136 -56.922  1.00  0.00     0.127 C 
HETATM    4  C   UNL     1     -43.892  57.621 -58.101  1.00  0.00     0.037 C 
HETATM    5  C   UNL     1     -45.211  58.414 -58.256  1.00  0.00     0.019 C 
HETATM    6  C   UNL     1     -44.993  59.892 -58.774  1.00  0.00     0.162 C 
HETATM    7  C   UNL     1     -46.129  60.185 -59.808  1.00  0.00     0.148 C 
HETATM    8  C   UNL     1     -46.568  58.809 -60.214  1.00  0.00    -0.026 A 
HETATM    9  C   UNL     1     -46.081  57.825 -59.351  1.00  0.00    -0.038 A 
HETATM   10  C   UNL     1     -47.392  58.484 -61.286  1.00  0.00     0.010 A 
HETATM   11  C   UNL     1     -47.735  57.147 -61.487  1.00  0.00     0.001 A 
HETATM   12  C   UNL     1     -47.261  56.158 -60.617  1.00  0.00     0.001 A 
HETATM   13  C   UNL     1     -46.433  56.493 -59.542  1.00  0.00     0.009 A 
HETATM   14  C   UNL     1     -45.984  58.403 -56.909  1.00  0.00     0.037 C 
HETATM   15  C   UNL     1     -45.093  58.822 -55.733  1.00  0.00     0.127 C 
HETATM   16  O   UNL     1     -44.760  56.652 -54.092  1.00  0.00    -0.266 OA
ENDROOT
BRANCH   6  17
HETATM   17  O   UNL     1     -43.696  60.011 -59.395  1.00  0.00    -0.380 OA
BRANCH  17  18
HETATM   18  C   UNL     1     -43.019  61.223 -59.052  1.00  0.00     0.194 C 
BRANCH  18  19
HETATM   19  C   UNL     1     -41.539  60.923 -58.838  1.00  0.00     0.193 C 
BRANCH  19  20
HETATM   20  O   UNL     1     -40.836  62.137 -58.586  1.00  0.00    -0.394 OA
HETATM   21  C   UNL     1     -41.710  63.167 -58.145  1.00  0.00     0.201 C 
ENDBRANCH  19  20
ENDBRANCH  18  19
ENDBRANCH  17  18
ENDBRANCH   6  17
BRANCH   7  22
HETATM   22  N   UNL     1     -47.252  60.927 -59.263  1.00  0.00    -0.350 N 
HETATM   23  C   UNL     1     -47.984  61.789 -60.043  1.00  0.00     0.221 C 
HETATM   24  O   UNL     1     -47.644  62.101 -61.179  1.00  0.00    -0.273 OA
HETATM   25  H   UNL     1     -47.592  60.668 -58.346  1.00  0.00     0.163 HD
BRANCH  23  26
HETATM   26  C   UNL     1     -49.249  62.313 -59.370  1.00  0.00     0.070 C 
HETATM   27  C   UNL     1     -49.632  63.685 -59.919  1.00  0.00     0.019 C 
HETATM   28  C   UNL     1     -50.401  61.327 -59.566  1.00  0.00     0.019 C 
ENDBRANCH  23  26
ENDBRANCH   7  22
BRANCH   1  29
HETATM   29  C   UNL     1     -42.568  56.144 -54.718  1.00  0.00     0.154 A 
HETATM   30  N   UNL     1     -41.369  56.635 -54.357  1.00  0.00    -0.123 NA
HETATM   31  O   UNL     1     -40.475  55.589 -54.455  1.00  0.00    -0.217 OA
HETATM   32  C   UNL     1     -41.138  54.452 -54.792  1.00  0.00     0.081 A 
HETATM   33  C   UNL     1     -42.471  54.743 -54.940  1.00  0.00     0.074 A 
BRANCH  32  34
HETATM   34  C   UNL     1     -40.321  53.226 -54.975  1.00  0.00     0.071 C 
BRANCH  34  35
HETATM   35  C   UNL     1     -40.621  52.117 -53.951  1.00  0.00    -0.017 C 
HETATM   36  C   UNL     1     -40.234  52.519 -52.524  1.00  0.00     0.010 C 
HETATM   37  C   UNL     1     -39.860  50.843 -54.337  1.00  0.00     0.010 C 
ENDBRANCH  34  35
ENDBRANCH  32  34
ENDBRANCH   1  29
TORSDOF 9
ENDMDL
MODEL 8
REMARK VINA RESULT:      -6.3      3.224      7.426
REMARK  9 active torsions:
REMARK  status: ('A' for Active; 'I' for Inactive)
REMARK    1  A    between atoms: C_2  and  C_3 
REMARK    2  A    between atoms: C_3  and  C_4 
REMARK    3  A    between atoms: C_7  and  C_8 
REMARK       I    between atoms: C_8  and  N_9 
REMARK    4  A    between atoms: C_13  and  O_14 
REMARK    5  A    between atoms: O_14  and  C_15 
REMARK    6  A    between atoms: C_15  and  C_16 
REMARK    7  A    between atoms: C_16  and  O_17 
REMARK    8  A    between atoms: C_19  and  N_20 
REMARK       I    between atoms: N_20  and  C_21 
REMARK    9  A    between atoms: C_21  and  C_22 
ROOT
HETATM    1  C   UNL     1     -43.579  58.543 -58.153  1.00  0.00     0.274 C 
HETATM    2  N   UNL     1     -42.850  58.368 -56.962  1.00  0.00    -0.347 N 
HETATM    3  C   UNL     1     -42.156  59.447 -56.256  1.00  0.00     0.127 C 
HETATM    4  C   UNL     1     -43.063  59.980 -55.148  1.00  0.00     0.037 C 
HETATM    5  C   UNL     1     -43.457  58.861 -54.155  1.00  0.00     0.019 C 
HETATM    6  C   UNL     1     -42.258  58.385 -53.243  1.00  0.00     0.162 C 
HETATM    7  C   UNL     1     -42.834  58.174 -51.805  1.00  0.00     0.148 C 
HETATM    8  C   UNL     1     -44.088  58.998 -51.828  1.00  0.00    -0.026 A 
HETATM    9  C   UNL     1     -44.451  59.366 -53.125  1.00  0.00    -0.038 A 
HETATM   10  C   UNL     1     -44.867  59.354 -50.733  1.00  0.00     0.010 A 
HETATM   11  C   UNL     1     -46.033  60.089 -50.950  1.00  0.00     0.001 A 
HETATM   12  C   UNL     1     -46.409  60.450 -52.249  1.00  0.00     0.001 A 
HETATM   13  C   UNL     1     -45.620  60.086 -53.345  1.00  0.00     0.009 A 
HETATM   14  C   UNL     1     -44.071  57.669 -54.937  1.00  0.00     0.037 C 
HETATM   15  C   UNL     1     -43.183  57.232 -56.109  1.00  0.00     0.127 C 
HETATM   16  O   UNL     1     -44.507  57.786 -58.443  1.00  0.00    -0.266 OA
ENDROOT
BRANCH   6  17
HETATM   17  O   UNL     1     -41.218  59.386 -53.233  1.00  0.00    -0.380 OA
BRANCH  17  18
HETATM   18  C   UNL     1     -39.942  58.866 -52.846  1.00  0.00     0.194 C 
BRANCH  18  19
HETATM   19  C   UNL     1     -39.679  59.229 -51.388  1.00  0.00     0.193 C 
BRANCH  19  20
HETATM   20  O   UNL     1     -38.297  59.533 -51.213  1.00  0.00    -0.394 OA
HETATM   21  C   UNL     1     -38.004  59.886 -49.868  1.00  0.00     0.201 C 
ENDBRANCH  19  20
ENDBRANCH  18  19
ENDBRANCH  17  18
ENDBRANCH   6  17
BRANCH   7  22
HETATM   22  N   UNL     1     -43.149  56.794 -51.487  1.00  0.00    -0.350 N 
HETATM   23  C   UNL     1     -42.285  56.013 -50.757  1.00  0.00     0.221 C 
HETATM   24  O   UNL     1     -41.149  56.376 -50.472  1.00  0.00    -0.273 OA
HETATM   25  H   UNL     1     -44.091  56.468 -51.665  1.00  0.00     0.163 HD
BRANCH  23  26
HETATM   26  C   UNL     1     -42.869  54.668 -50.336  1.00  0.00     0.070 C 
HETATM   27  C   UNL     1     -44.396  54.718 -50.313  1.00  0.00     0.019 C 
HETATM   28  C   UNL     1     -42.393  53.565 -51.281  1.00  0.00     0.019 C 
ENDBRANCH  23  26
ENDBRANCH   7  22
BRANCH   1  29
HETATM   29  C   UNL     1     -43.256  59.663 -59.052  1.00  0.00     0.154 A 
HETATM   30  N   UNL     1     -44.004  60.774 -59.165  1.00  0.00    -0.123 NA
HETATM   31  O   UNL     1     -43.405  61.549 -60.136  1.00  0.00    -0.217 OA
HETATM   32  C   UNL     1     -42.257  60.953 -60.551  1.00  0.00     0.081 A 
HETATM   33  C   UNL     1     -42.101  59.770 -59.874  1.00  0.00     0.074 A 
BRANCH  32  34
HETATM   34  C   UNL     1     -41.496  61.638 -61.627  1.00  0.00     0.071 C 
BRANCH  34  35
HETATM   35  C   UNL     1     -40.645  62.822 -61.132  1.00  0.00    -0.017 C 
HETATM   36  C   UNL     1     -39.439  63.091 -62.037  1.00  0.00     0.010 C 
HETATM   37  C   UNL     1     -40.152  62.539 -59.708  1.00  0.00     0.010 C 
ENDBRANCH  34  35
ENDBRANCH  32  34
ENDBRANCH   1  29
TORSDOF 9
ENDMDL
MODEL 9
REMARK VINA RESULT:      -6.3      3.379      8.684
REMARK  9 active torsions:
REMARK  status: ('A' for Active; 'I' for Inactive)
REMARK    1  A    between atoms: C_2  and  C_3 
REMARK    2  A    between atoms: C_3  and  C_4 
REMARK    3  A    between atoms: C_7  and  C_8 
REMARK       I    between atoms: C_8  and  N_9 
REMARK    4  A    between atoms: C_13  and  O_14 
REMARK    5  A    between atoms: O_14  and  C_15 
REMARK    6  A    between atoms: C_15  and  C_16 
REMARK    7  A    between atoms: C_16  and  O_17 
REMARK    8  A    between atoms: C_19  and  N_20 
REMARK       I    between atoms: N_20  and  C_21 
REMARK    9  A    between atoms: C_21  and  C_22 
ROOT
HETATM    1  C   UNL     1     -45.390  59.655 -51.648  1.00  0.00     0.274 C 
HETATM    2  N   UNL     1     -44.823  59.629 -52.935  1.00  0.00    -0.347 N 
HETATM    3  C   UNL     1     -43.432  59.982 -53.228  1.00  0.00     0.127 C 
HETATM    4  C   UNL     1     -42.594  58.705 -53.272  1.00  0.00     0.037 C 
HETATM    5  C   UNL     1     -43.128  57.717 -54.336  1.00  0.00     0.019 C 
HETATM    6  C   UNL     1     -42.870  58.198 -55.820  1.00  0.00     0.162 C 
HETATM    7  C   UNL     1     -42.445  56.937 -56.640  1.00  0.00     0.148 C 
HETATM    8  C   UNL     1     -41.979  55.991 -55.572  1.00  0.00    -0.026 A 
HETATM    9  C   UNL     1     -42.369  56.404 -54.297  1.00  0.00    -0.038 A 
HETATM   10  C   UNL     1     -41.275  54.807 -55.763  1.00  0.00     0.010 A 
HETATM   11  C   UNL     1     -40.964  54.025 -54.650  1.00  0.00     0.001 A 
HETATM   12  C   UNL     1     -41.364  54.428 -53.370  1.00  0.00     0.001 A 
HETATM   13  C   UNL     1     -42.072  55.619 -53.188  1.00  0.00     0.009 A 
HETATM   14  C   UNL     1     -44.639  57.458 -54.088  1.00  0.00     0.037 C 
HETATM   15  C   UNL     1     -45.430  58.763 -53.941  1.00  0.00     0.127 C 
HETATM   16  O   UNL     1     -46.344  58.928 -51.363  1.00  0.00    -0.266 OA
ENDROOT
BRANCH   6  17
HETATM   17  O   UNL     1     -41.828  59.195 -55.841  1.00  0.00    -0.380 OA
BRANCH  17  18
HETATM   18  C   UNL     1     -42.162  60.340 -56.631  1.00  0.00     0.194 C 
BRANCH  18  19
HETATM   19  C   UNL     1     -41.573  60.169 -58.028  1.00  0.00     0.193 C 
BRANCH  19  20
HETATM   20  O   UNL     1     -42.612  59.838 -58.947  1.00  0.00    -0.394 OA
HETATM   21  C   UNL     1     -42.160  59.900 -60.293  1.00  0.00     0.201 C 
ENDBRANCH  19  20
ENDBRANCH  18  19
ENDBRANCH  17  18
ENDBRANCH   6  17
BRANCH   7  22
HETATM   22  N   UNL     1     -43.521  56.334 -57.406  1.00  0.00    -0.350 N 
HETATM   23  C   UNL     1     -43.385  56.078 -58.749  1.00  0.00     0.221 C 
HETATM   24  O   UNL     1     -42.429  56.480 -59.404  1.00  0.00    -0.273 OA
HETATM   25  H   UNL     1     -44.307  55.949 -56.899  1.00  0.00     0.163 HD
BRANCH  23  26
HETATM   26  C   UNL     1     -44.523  55.252 -59.341  1.00  0.00     0.070 C 
HETATM   27  C   UNL     1     -44.666  55.513 -60.839  1.00  0.00     0.019 C 
HETATM   28  C   UNL     1     -44.284  53.763 -59.087  1.00  0.00     0.019 C 
ENDBRANCH  23  26
ENDBRANCH   7  22
BRANCH   1  29
HETATM   29  C   UNL     1     -44.822  60.533 -50.612  1.00  0.00     0.154 A 
HETATM   30  N   UNL     1     -43.536  60.501 -50.224  1.00  0.00    -0.123 NA
HETATM   31  O   UNL     1     -43.412  61.427 -49.210  1.00  0.00    -0.217 OA
HETATM   32  C   UNL     1     -44.593  62.077 -49.039  1.00  0.00     0.081 A 
HETATM   33  C   UNL     1     -45.511  61.569 -49.924  1.00  0.00     0.074 A 
BRANCH  32  34
HETATM   34  C   UNL     1     -44.651  63.093 -47.958  1.00  0.00     0.071 C 
BRANCH  34  35
HETATM   35  C   UNL     1     -45.265  62.573 -46.645  1.00  0.00    -0.017 C 
HETATM   36  C   UNL     1     -44.872  61.122 -46.352  1.00  0.00     0.010 C 
HETATM   37  C   UNL     1     -46.793  62.675 -46.720  1.00  0.00     0.010 C 
ENDBRANCH  34  35
ENDBRANCH  32  34
ENDBRANCH   1  29
TORSDOF 9
ENDMDL
MODEL 10
REMARK VINA RESULT:      -6.2      3.975      6.266
REMARK  9 active torsions:
REMARK  status: ('A' for Active; 'I' for Inactive)
REMARK    1  A    between atoms: C_2  and  C_3 
REMARK    2  A    between atoms: C_3  and  C_4 
REMARK    3  A    between atoms: C_7  and  C_8 
REMARK       I    between atoms: C_8  and  N_9 
REMARK    4  A    between atoms: C_13  and  O_14 
REMARK    5  A    between atoms: O_14  and  C_15 
REMARK    6  A    between atoms: C_15  and  C_16 
REMARK    7  A    between atoms: C_16  and  O_17 
REMARK    8  A    between atoms: C_19  and  N_20 
REMARK       I    between atoms: N_20  and  C_21 
REMARK    9  A    between atoms: C_21  and  C_22 
ROOT
HETATM    1  C   UNL     1     -43.811  58.024 -52.667  1.00  0.00     0.274 C 
HETATM    2  N   UNL     1     -43.566  58.798 -53.817  1.00  0.00    -0.347 N 
HETATM    3  C   UNL     1     -42.275  58.863 -54.505  1.00  0.00     0.127 C 
HETATM    4  C   UNL     1     -42.281  57.870 -55.667  1.00  0.00     0.037 C 
HETATM    5  C   UNL     1     -43.430  58.171 -56.659  1.00  0.00     0.019 C 
HETATM    6  C   UNL     1     -43.198  59.488 -57.501  1.00  0.00     0.162 C 
HETATM    7  C   UNL     1     -43.662  59.183 -58.962  1.00  0.00     0.148 C 
HETATM    8  C   UNL     1     -43.616  57.684 -59.017  1.00  0.00    -0.026 A 
HETATM    9  C   UNL     1     -43.507  57.115 -57.746  1.00  0.00    -0.038 A 
HETATM   10  C   UNL     1     -43.706  56.893 -60.156  1.00  0.00     0.010 A 
HETATM   11  C   UNL     1     -43.691  55.505 -60.011  1.00  0.00     0.001 A 
HETATM   12  C   UNL     1     -43.596  54.929 -58.739  1.00  0.00     0.001 A 
HETATM   13  C   UNL     1     -43.506  55.732 -57.599  1.00  0.00     0.009 A 
HETATM   14  C   UNL     1     -44.777  58.230 -55.888  1.00  0.00     0.037 C 
HETATM   15  C   UNL     1     -44.699  59.153 -54.666  1.00  0.00     0.127 C 
HETATM   16  O   UNL     1     -44.945  57.614 -52.411  1.00  0.00    -0.266 OA
ENDROOT
BRANCH   6  17
HETATM   17  O   UNL     1     -41.802  59.851 -57.475  1.00  0.00    -0.380 OA
BRANCH  17  18
HETATM   18  C   UNL     1     -41.402  60.624 -58.610  1.00  0.00     0.194 C 
BRANCH  18  19
HETATM   19  C   UNL     1     -41.326  62.094 -58.209  1.00  0.00     0.193 C 
BRANCH  19  20
HETATM   20  O   UNL     1     -41.971  62.893 -59.198  1.00  0.00    -0.394 OA
HETATM   21  C   UNL     1     -43.373  62.970 -58.978  1.00  0.00     0.201 C 
ENDBRANCH  19  20
ENDBRANCH  18  19
ENDBRANCH  17  18
ENDBRANCH   6  17
BRANCH   7  22
HETATM   22  N   UNL     1     -45.001  59.653 -59.271  1.00  0.00    -0.350 N 
HETATM   23  C   UNL     1     -45.324  60.115 -60.525  1.00  0.00     0.221 C 
HETATM   24  O   UNL     1     -44.482  60.306 -61.394  1.00  0.00    -0.273 OA
HETATM   25  H   UNL     1     -45.735  59.473 -58.598  1.00  0.00     0.163 HD
BRANCH  23  26
HETATM   26  C   UNL     1     -46.816  60.361 -60.729  1.00  0.00     0.070 C 
HETATM   27  C   UNL     1     -47.573  59.043 -60.873  1.00  0.00     0.019 C 
HETATM   28  C   UNL     1     -47.384  61.170 -59.562  1.00  0.00     0.019 C 
ENDBRANCH  23  26
ENDBRANCH   7  22
BRANCH   1  29
HETATM   29  C   UNL     1     -42.699  57.666 -51.772  1.00  0.00     0.154 A 
HETATM   30  N   UNL     1     -41.853  58.560 -51.233  1.00  0.00    -0.123 NA
HETATM   31  O   UNL     1     -40.931  57.834 -50.507  1.00  0.00    -0.217 OA
HETATM   32  C   UNL     1     -41.262  56.517 -50.537  1.00  0.00     0.081 A 
HETATM   33  C   UNL     1     -42.392  56.361 -51.300  1.00  0.00     0.074 A 
BRANCH  32  34
HETATM   34  C   UNL     1     -40.353  55.580 -49.831  1.00  0.00     0.071 C 
BRANCH  34  35
HETATM   35  C   UNL     1     -40.808  54.110 -49.884  1.00  0.00    -0.017 C 
HETATM   36  C   UNL     1     -40.602  53.386 -48.550  1.00  0.00     0.010 C 
HETATM   37  C   UNL     1     -40.031  53.373 -50.981  1.00  0.00     0.010 C 
ENDBRANCH  34  35
ENDBRANCH  32  34
ENDBRANCH   1  29
TORSDOF 9
ENDMDL
