MODEL 1
REMARK VINA RESULT:      -7.1      0.000      0.000
REMARK  8 active torsions:
REMARK  status: ('A' for Active; 'I' for Inactive)
REMARK    1  A    between atoms: C_2  and  O_3 
REMARK    2  A    between atoms: O_3  and  C_4 
REMARK       I    between atoms: C_4  and  N_5 
REMARK    3  A    between atoms: C_8  and  N_9 
REMARK       I    between atoms: N_9  and  C_10 
REMARK    4  A    between atoms: C_10  and  C_11 
REMARK    5  A    between atoms: C_12  and  C_13 
REMARK    6  A    between atoms: N_18  and  C_19 
REMARK    7  A    between atoms: C_19  and  C_20 
REMARK    8  A    between atoms: C_20  and  O_21 
ROOT
HETATM    1  C   UNL     1     -43.315  57.005 -53.013  1.00  0.00     0.139 C 
HETATM    2  C   UNL     1     -43.614  58.059 -51.926  1.00  0.00     0.145 C 
HETATM    3  N   UNL     1     -42.388  58.564 -51.295  1.00  0.00    -0.335 N 
HETATM    4  C   UNL     1     -41.446  57.642 -50.838  1.00  0.00     0.255 C 
HETATM    5  O   UNL     1     -40.488  57.947 -50.135  1.00  0.00    -0.267 OA
HETATM    6  C   UNL     1     -41.621  56.224 -51.289  1.00  0.00     0.039 A 
HETATM    7  C   UNL     1     -42.496  55.904 -52.350  1.00  0.00    -0.027 A 
HETATM    8  C   UNL     1     -40.870  55.217 -50.674  1.00  0.00     0.017 A 
HETATM    9  C   UNL     1     -40.991  53.894 -51.100  1.00  0.00     0.001 A 
HETATM   10  C   UNL     1     -41.855  53.574 -52.148  1.00  0.00     0.001 A 
HETATM   11  C   UNL     1     -42.603  54.572 -52.775  1.00  0.00     0.009 A 
ENDROOT
BRANCH   1  12
HETATM   12  C   UNL     1     -42.570  57.580 -54.225  1.00  0.00     0.229 C 
HETATM   13  N   UNL     1     -43.354  57.695 -55.362  1.00  0.00    -0.356 N 
HETATM   14  H   UNL     1     -44.345  57.543 -55.227  1.00  0.00     0.162 HD
HETATM   15  O   UNL     1     -41.380  57.872 -54.202  1.00  0.00    -0.273 OA
BRANCH  13  16
HETATM   16  C   UNL     1     -43.018  58.508 -56.540  1.00  0.00     0.087 C 
HETATM   17  C   UNL     1     -42.298  57.819 -57.707  1.00  0.00     0.045 C 
HETATM   18  C   UNL     1     -43.194  56.817 -58.419  1.00  0.00     0.130 C 
HETATM   19  N   UNL     1     -44.447  57.443 -58.841  1.00  0.00    -0.328 N 
HETATM   20  C   UNL     1     -45.130  57.025 -59.974  1.00  0.00     0.362 C 
HETATM   21  C   UNL     1     -45.180  58.178 -57.819  1.00  0.00     0.130 C 
HETATM   22  O   UNL     1     -46.286  57.346 -60.231  1.00  0.00    -0.238 OA
HETATM   23  C   UNL     1     -44.292  59.176 -57.078  1.00  0.00     0.045 C 
BRANCH  20  24
HETATM   24  O   UNL     1     -44.371  56.231 -60.776  1.00  0.00    -0.304 OA
BRANCH  24  25
HETATM   25  C   UNL     1     -44.928  54.957 -61.125  1.00  0.00     0.176 C 
HETATM   26  C   UNL     1     -44.845  54.016 -59.940  1.00  0.00     0.034 C 
ENDBRANCH  24  25
ENDBRANCH  20  24
ENDBRANCH  13  16
ENDBRANCH   1  12
BRANCH   2  27
HETATM   27  C   UNL     1     -44.668  59.108 -52.231  1.00  0.00     0.006 A 
HETATM   28  S   UNL     1     -45.955  59.492 -51.162  1.00  0.00    -0.104 SA
HETATM   29  C   UNL     1     -46.588  60.674 -52.215  1.00  0.00     0.050 A 
HETATM   30  C   UNL     1     -45.829  60.806 -53.355  1.00  0.00     0.008 A 
HETATM   31  C   UNL     1     -44.722  59.913 -53.358  1.00  0.00     0.017 A 
ENDBRANCH   2  27
BRANCH   3  32
HETATM   32  C   UNL     1     -41.972  59.966 -51.393  1.00  0.00     0.153 C 
BRANCH  32  33
HETATM   33  C   UNL     1     -42.471  60.838 -50.243  1.00  0.00     0.187 C 
BRANCH  33  34
HETATM   34  O   UNL     1     -43.081  62.011 -50.791  1.00  0.00    -0.394 OA
HETATM   35  C   UNL     1     -44.024  62.583 -49.897  1.00  0.00     0.201 C 
ENDBRANCH  33  34
ENDBRANCH  32  33
ENDBRANCH   3  32
TORSDOF 8
ENDMDL
MODEL 2
REMARK VINA RESULT:      -6.7      3.153      7.116
REMARK  8 active torsions:
REMARK  status: ('A' for Active; 'I' for Inactive)
REMARK    1  A    between atoms: C_2  and  O_3 
REMARK    2  A    between atoms: O_3  and  C_4 
REMARK       I    between atoms: C_4  and  N_5 
REMARK    3  A    between atoms: C_8  and  N_9 
REMARK       I    between atoms: N_9  and  C_10 
REMARK    4  A    between atoms: C_10  and  C_11 
REMARK    5  A    between atoms: C_12  and  C_13 
REMARK    6  A    between atoms: N_18  and  C_19 
REMARK    7  A    between atoms: C_19  and  C_20 
REMARK    8  A    between atoms: C_20  and  O_21 
ROOT
HETATM    1  C   UNL     1     -43.090  58.703 -54.421  1.00  0.00     0.139 C 
HETATM    2  C   UNL     1     -42.870  59.830 -53.391  1.00  0.00     0.145 C 
HETATM    3  N   UNL     1     -44.139  60.409 -52.928  1.00  0.00    -0.335 N 
HETATM    4  C   UNL     1     -45.082  60.793 -53.882  1.00  0.00     0.255 C 
HETATM    5  O   UNL     1     -46.081  61.453 -53.616  1.00  0.00    -0.267 OA
HETATM    6  C   UNL     1     -44.852  60.316 -55.283  1.00  0.00     0.039 A 
HETATM    7  C   UNL     1     -43.918  59.293 -55.556  1.00  0.00    -0.027 A 
HETATM    8  C   UNL     1     -45.612  60.865 -56.321  1.00  0.00     0.017 A 
HETATM    9  C   UNL     1     -45.439  60.411 -57.630  1.00  0.00     0.001 A 
HETATM   10  C   UNL     1     -44.517  59.402 -57.903  1.00  0.00     0.001 A 
HETATM   11  C   UNL     1     -43.760  58.840 -56.874  1.00  0.00     0.009 A 
ENDROOT
BRANCH   1  12
HETATM   12  C   UNL     1     -43.784  57.468 -53.829  1.00  0.00     0.229 C 
HETATM   13  N   UNL     1     -42.962  56.691 -53.029  1.00  0.00    -0.356 N 
HETATM   14  H   UNL     1     -42.064  57.098 -52.799  1.00  0.00     0.162 HD
HETATM   15  O   UNL     1     -44.949  57.175 -54.074  1.00  0.00    -0.273 OA
BRANCH  13  16
HETATM   16  C   UNL     1     -43.427  55.669 -52.081  1.00  0.00     0.087 C 
HETATM   17  C   UNL     1     -43.155  54.198 -52.418  1.00  0.00     0.045 C 
HETATM   18  C   UNL     1     -41.673  53.861 -52.346  1.00  0.00     0.130 C 
HETATM   19  N   UNL     1     -41.113  54.238 -51.048  1.00  0.00    -0.328 N 
HETATM   20  C   UNL     1     -40.059  53.541 -50.474  1.00  0.00     0.362 C 
HETATM   21  C   UNL     1     -41.369  55.601 -50.605  1.00  0.00     0.130 C 
HETATM   22  O   UNL     1     -39.406  53.956 -49.523  1.00  0.00    -0.238 OA
HETATM   23  C   UNL     1     -42.850  55.966 -50.688  1.00  0.00     0.045 C 
BRANCH  20  24
HETATM   24  O   UNL     1     -39.840  52.341 -51.075  1.00  0.00    -0.304 OA
BRANCH  24  25
HETATM   25  C   UNL     1     -40.197  51.174 -50.323  1.00  0.00     0.176 C 
HETATM   26  C   UNL     1     -39.572  49.945 -50.952  1.00  0.00     0.034 C 
ENDBRANCH  24  25
ENDBRANCH  20  24
ENDBRANCH  13  16
ENDBRANCH   1  12
BRANCH   2  27
HETATM   27  C   UNL     1     -41.825  59.608 -52.312  1.00  0.00     0.006 A 
HETATM   28  S   UNL     1     -40.301  58.878 -52.611  1.00  0.00    -0.104 SA
HETATM   29  C   UNL     1     -39.817  59.028 -50.983  1.00  0.00     0.050 A 
HETATM   30  C   UNL     1     -40.777  59.645 -50.216  1.00  0.00     0.008 A 
HETATM   31  C   UNL     1     -41.926  59.986 -50.982  1.00  0.00     0.017 A 
ENDBRANCH   2  27
BRANCH   3  32
HETATM   32  C   UNL     1     -44.580  60.326 -51.533  1.00  0.00     0.153 C 
BRANCH  32  33
HETATM   33  C   UNL     1     -45.526  59.160 -51.256  1.00  0.00     0.187 C 
BRANCH  33  34
HETATM   34  O   UNL     1     -45.937  59.221 -49.886  1.00  0.00    -0.394 OA
HETATM   35  C   UNL     1     -45.570  60.450 -49.279  1.00  0.00     0.201 C 
ENDBRANCH  33  34
ENDBRANCH  32  33
ENDBRANCH   3  32
TORSDOF 8
ENDMDL
MODEL 3
REMARK VINA RESULT:      -6.7      3.265      6.656
REMARK  8 active torsions:
REMARK  status: ('A' for Active; 'I' for Inactive)
REMARK    1  A    between atoms: C_2  and  O_3 
REMARK    2  A    between atoms: O_3  and  C_4 
REMARK       I    between atoms: C_4  and  N_5 
REMARK    3  A    between atoms: C_8  and  N_9 
REMARK       I    between atoms: N_9  and  C_10 
REMARK    4  A    between atoms: C_10  and  C_11 
REMARK    5  A    between atoms: C_12  and  C_13 
REMARK    6  A    between atoms: N_18  and  C_19 
REMARK    7  A    between atoms: C_19  and  C_20 
REMARK    8  A    between atoms: C_20  and  O_21 
ROOT
HETATM    1  C   UNL     1     -42.070  59.367 -55.249  1.00  0.00     0.139 C 
HETATM    2  C   UNL     1     -42.147  60.313 -54.032  1.00  0.00     0.145 C 
HETATM    3  N   UNL     1     -43.444  60.997 -53.949  1.00  0.00    -0.335 N 
HETATM    4  C   UNL     1     -43.939  61.626 -55.092  1.00  0.00     0.255 C 
HETATM    5  O   UNL     1     -44.909  62.378 -55.082  1.00  0.00    -0.267 OA
HETATM    6  C   UNL     1     -43.255  61.304 -56.384  1.00  0.00     0.039 A 
HETATM    7  C   UNL     1     -42.374  60.206 -56.484  1.00  0.00    -0.027 A 
HETATM    8  C   UNL     1     -43.536  62.080 -57.514  1.00  0.00     0.017 A 
HETATM    9  C   UNL     1     -42.936  61.778 -58.737  1.00  0.00     0.001 A 
HETATM   10  C   UNL     1     -42.065  60.694 -58.839  1.00  0.00     0.001 A 
HETATM   11  C   UNL     1     -41.785  59.907 -57.721  1.00  0.00     0.009 A 
ENDROOT
BRANCH   1  12
HETATM   12  C   UNL     1     -43.032  58.175 -55.152  1.00  0.00     0.229 C 
HETATM   13  N   UNL     1     -42.499  57.076 -54.497  1.00  0.00    -0.356 N 
HETATM   14  H   UNL     1     -41.617  57.232 -54.026  1.00  0.00     0.162 HD
HETATM   15  O   UNL     1     -44.154  58.180 -55.645  1.00  0.00    -0.273 OA
BRANCH  13  16
HETATM   16  C   UNL     1     -43.280  55.949 -53.967  1.00  0.00     0.087 C 
HETATM   17  C   UNL     1     -43.203  54.608 -54.708  1.00  0.00     0.045 C 
HETATM   18  C   UNL     1     -41.831  53.964 -54.579  1.00  0.00     0.130 C 
HETATM   19  N   UNL     1     -41.443  53.836 -53.175  1.00  0.00    -0.328 N 
HETATM   20  C   UNL     1     -40.631  52.802 -52.729  1.00  0.00     0.362 C 
HETATM   21  C   UNL     1     -41.540  55.042 -52.364  1.00  0.00     0.130 C 
HETATM   22  O   UNL     1     -40.087  52.788 -51.630  1.00  0.00    -0.238 OA
HETATM   23  C   UNL     1     -42.905  55.716 -52.496  1.00  0.00     0.045 C 
BRANCH  20  24
HETATM   24  O   UNL     1     -40.515  51.801 -53.642  1.00  0.00    -0.304 OA
BRANCH  24  25
HETATM   25  C   UNL     1     -39.487  50.832 -53.402  1.00  0.00     0.176 C 
HETATM   26  C   UNL     1     -39.518  49.770 -54.482  1.00  0.00     0.034 C 
ENDBRANCH  24  25
ENDBRANCH  20  24
ENDBRANCH  13  16
ENDBRANCH   1  12
BRANCH   2  27
HETATM   27  C   UNL     1     -41.590  59.812 -52.712  1.00  0.00     0.006 A 
HETATM   28  S   UNL     1     -40.235  58.766 -52.595  1.00  0.00    -0.104 SA
HETATM   29  C   UNL     1     -40.301  58.734 -50.892  1.00  0.00     0.050 A 
HETATM   30  C   UNL     1     -41.316  59.522 -50.402  1.00  0.00     0.008 A 
HETATM   31  C   UNL     1     -42.049  60.149 -51.448  1.00  0.00     0.017 A 
ENDBRANCH   2  27
BRANCH   3  32
HETATM   32  C   UNL     1     -44.369  60.799 -52.829  1.00  0.00     0.153 C 
BRANCH  32  33
HETATM   33  C   UNL     1     -45.435  59.738 -53.093  1.00  0.00     0.187 C 
BRANCH  33  34
HETATM   34  O   UNL     1     -45.103  58.562 -52.347  1.00  0.00    -0.394 OA
HETATM   35  C   UNL     1     -45.451  58.691 -50.976  1.00  0.00     0.201 C 
ENDBRANCH  33  34
ENDBRANCH  32  33
ENDBRANCH   3  32
TORSDOF 8
ENDMDL
MODEL 4
REMARK VINA RESULT:      -6.6      2.916      6.153
REMARK  8 active torsions:
REMARK  status: ('A' for Active; 'I' for Inactive)
REMARK    1  A    between atoms: C_2  and  O_3 
REMARK    2  A    between atoms: O_3  and  C_4 
REMARK       I    between atoms: C_4  and  N_5 
REMARK    3  A    between atoms: C_8  and  N_9 
REMARK       I    between atoms: N_9  and  C_10 
REMARK    4  A    between atoms: C_10  and  C_11 
REMARK    5  A    between atoms: C_12  and  C_13 
REMARK    6  A    between atoms: N_18  and  C_19 
REMARK    7  A    between atoms: C_19  and  C_20 
REMARK    8  A    between atoms: C_20  and  O_21 
ROOT
HETATM    1  C   UNL     1     -43.364  59.642 -51.364  1.00  0.00     0.139 C 
HETATM    2  C   UNL     1     -43.700  60.535 -52.577  1.00  0.00     0.145 C 
HETATM    3  N   UNL     1     -43.233  59.947 -53.840  1.00  0.00    -0.335 N 
HETATM    4  C   UNL     1     -41.917  59.492 -53.915  1.00  0.00     0.255 C 
HETATM    5  O   UNL     1     -41.375  59.163 -54.966  1.00  0.00    -0.267 OA
HETATM    6  C   UNL     1     -41.174  59.368 -52.621  1.00  0.00     0.039 A 
HETATM    7  C   UNL     1     -41.858  59.412 -51.387  1.00  0.00    -0.027 A 
HETATM    8  C   UNL     1     -39.791  59.161 -52.648  1.00  0.00     0.017 A 
HETATM    9  C   UNL     1     -39.083  59.008 -51.455  1.00  0.00     0.001 A 
HETATM   10  C   UNL     1     -39.755  59.051 -50.233  1.00  0.00     0.001 A 
HETATM   11  C   UNL     1     -41.136  59.249 -50.195  1.00  0.00     0.009 A 
ENDROOT
BRANCH   1  12
HETATM   12  C   UNL     1     -44.117  58.305 -51.368  1.00  0.00     0.229 C 
HETATM   13  N   UNL     1     -43.329  57.218 -51.709  1.00  0.00    -0.356 N 
HETATM   14  H   UNL     1     -42.334  57.397 -51.759  1.00  0.00     0.162 HD
HETATM   15  O   UNL     1     -45.317  58.213 -51.131  1.00  0.00    -0.273 OA
BRANCH  13  16
HETATM   16  C   UNL     1     -43.682  55.812 -51.470  1.00  0.00     0.087 C 
HETATM   17  C   UNL     1     -43.554  54.828 -52.640  1.00  0.00     0.045 C 
HETATM   18  C   UNL     1     -42.102  54.594 -53.033  1.00  0.00     0.130 C 
HETATM   19  N   UNL     1     -41.309  54.176 -51.877  1.00  0.00    -0.328 N 
HETATM   20  C   UNL     1     -40.213  53.334 -52.005  1.00  0.00     0.362 C 
HETATM   21  C   UNL     1     -41.409  55.011 -50.687  1.00  0.00     0.130 C 
HETATM   22  O   UNL     1     -39.385  53.154 -51.120  1.00  0.00    -0.238 OA
HETATM   23  C   UNL     1     -42.860  55.274 -50.288  1.00  0.00     0.045 C 
BRANCH  20  24
HETATM   24  O   UNL     1     -40.167  52.722 -53.219  1.00  0.00    -0.304 OA
BRANCH  24  25
HETATM   25  C   UNL     1     -39.459  51.477 -53.281  1.00  0.00     0.176 C 
HETATM   26  C   UNL     1     -40.123  50.556 -54.285  1.00  0.00     0.034 C 
ENDBRANCH  24  25
ENDBRANCH  20  24
ENDBRANCH  13  16
ENDBRANCH   1  12
BRANCH   2  27
HETATM   27  C   UNL     1     -45.077  61.171 -52.625  1.00  0.00     0.006 A 
HETATM   28  S   UNL     1     -45.370  62.743 -53.250  1.00  0.00    -0.104 SA
HETATM   29  C   UNL     1     -47.044  62.643 -52.944  1.00  0.00     0.050 A 
HETATM   30  C   UNL     1     -47.396  61.430 -52.400  1.00  0.00     0.008 A 
HETATM   31  C   UNL     1     -46.267  60.582 -52.226  1.00  0.00     0.017 A 
ENDBRANCH   2  27
BRANCH   3  32
HETATM   32  C   UNL     1     -44.152  59.545 -54.908  1.00  0.00     0.153 C 
BRANCH  32  33
HETATM   33  C   UNL     1     -44.534  58.067 -54.868  1.00  0.00     0.187 C 
BRANCH  33  34
HETATM   34  O   UNL     1     -44.281  57.495 -56.155  1.00  0.00    -0.394 OA
HETATM   35  C   UNL     1     -43.310  56.461 -56.092  1.00  0.00     0.201 C 
ENDBRANCH  33  34
ENDBRANCH  32  33
ENDBRANCH   3  32
TORSDOF 8
ENDMDL
MODEL 5
REMARK VINA RESULT:      -6.5      3.099      4.832
REMARK  8 active torsions:
REMARK  status: ('A' for Active; 'I' for Inactive)
REMARK    1  A    between atoms: C_2  and  O_3 
REMARK    2  A    between atoms: O_3  and  C_4 
REMARK       I    between atoms: C_4  and  N_5 
REMARK    3  A    between atoms: C_8  and  N_9 
REMARK       I    between atoms: N_9  and  C_10 
REMARK    4  A    between atoms: C_10  and  C_11 
REMARK    5  A    between atoms: C_12  and  C_13 
REMARK    6  A    between atoms: N_18  and  C_19 
REMARK    7  A    between atoms: C_19  and  C_20 
REMARK    8  A    between atoms: C_20  and  O_21 
ROOT
HETATM    1  C   UNL     1     -43.888  56.916 -52.059  1.00  0.00     0.139 C 
HETATM    2  C   UNL     1     -43.770  58.357 -51.519  1.00  0.00     0.145 C 
HETATM    3  N   UNL     1     -42.372  58.799 -51.430  1.00  0.00    -0.335 N 
HETATM    4  C   UNL     1     -41.448  57.962 -50.802  1.00  0.00     0.255 C 
HETATM    5  O   UNL     1     -40.310  58.314 -50.509  1.00  0.00    -0.267 OA
HETATM    6  C   UNL     1     -41.891  56.557 -50.532  1.00  0.00     0.039 A 
HETATM    7  C   UNL     1     -43.046  56.031 -51.148  1.00  0.00    -0.027 A 
HETATM    8  C   UNL     1     -41.116  55.750 -49.691  1.00  0.00     0.017 A 
HETATM    9  C   UNL     1     -41.491  54.428 -49.452  1.00  0.00     0.001 A 
HETATM   10  C   UNL     1     -42.632  53.904 -50.059  1.00  0.00     0.001 A 
HETATM   11  C   UNL     1     -43.407  54.697 -50.906  1.00  0.00     0.009 A 
ENDROOT
BRANCH   1  12
HETATM   12  C   UNL     1     -43.436  56.777 -53.519  1.00  0.00     0.229 C 
HETATM   13  N   UNL     1     -42.173  56.225 -53.666  1.00  0.00    -0.356 N 
HETATM   14  H   UNL     1     -41.765  55.837 -52.825  1.00  0.00     0.162 HD
HETATM   15  O   UNL     1     -44.114  57.156 -54.468  1.00  0.00    -0.273 OA
BRANCH  13  16
HETATM   16  C   UNL     1     -41.634  55.670 -54.915  1.00  0.00     0.087 C 
HETATM   17  C   UNL     1     -40.210  55.100 -54.894  1.00  0.00     0.045 C 
HETATM   18  C   UNL     1     -40.117  53.827 -54.067  1.00  0.00     0.130 C 
HETATM   19  N   UNL     1     -41.096  52.838 -54.518  1.00  0.00    -0.328 N 
HETATM   20  C   UNL     1     -40.858  51.474 -54.422  1.00  0.00     0.362 C 
HETATM   21  C   UNL     1     -42.474  53.297 -54.632  1.00  0.00     0.130 C 
HETATM   22  O   UNL     1     -41.726  50.619 -54.556  1.00  0.00    -0.238 OA
HETATM   23  C   UNL     1     -42.586  54.586 -55.444  1.00  0.00     0.045 C 
BRANCH  20  24
HETATM   24  O   UNL     1     -39.551  51.191 -54.176  1.00  0.00    -0.304 OA
BRANCH  24  25
HETATM   25  C   UNL     1     -39.234  49.819 -53.906  1.00  0.00     0.176 C 
HETATM   26  C   UNL     1     -39.521  49.500 -52.452  1.00  0.00     0.034 C 
ENDBRANCH  24  25
ENDBRANCH  20  24
ENDBRANCH  13  16
ENDBRANCH   1  12
BRANCH   2  27
HETATM   27  C   UNL     1     -44.746  59.391 -52.049  1.00  0.00     0.006 A 
HETATM   28  S   UNL     1     -45.535  60.543 -51.050  1.00  0.00    -0.104 SA
HETATM   29  C   UNL     1     -46.363  61.240 -52.367  1.00  0.00     0.050 A 
HETATM   30  C   UNL     1     -46.037  60.637 -53.559  1.00  0.00     0.008 A 
HETATM   31  C   UNL     1     -45.100  59.581 -53.376  1.00  0.00     0.017 A 
ENDBRANCH   2  27
BRANCH   3  32
HETATM   32  C   UNL     1     -41.847  59.917 -52.220  1.00  0.00     0.153 C 
BRANCH  32  33
HETATM   33  C   UNL     1     -41.337  59.508 -53.600  1.00  0.00     0.187 C 
BRANCH  33  34
HETATM   34  O   UNL     1     -42.066  60.240 -54.591  1.00  0.00    -0.394 OA
HETATM   35  C   UNL     1     -42.031  59.596 -55.856  1.00  0.00     0.201 C 
ENDBRANCH  33  34
ENDBRANCH  32  33
ENDBRANCH   3  32
TORSDOF 8
ENDMDL
MODEL 6
REMARK VINA RESULT:      -6.1      3.655      7.471
REMARK  8 active torsions:
REMARK  status: ('A' for Active; 'I' for Inactive)
REMARK    1  A    between atoms: C_2  and  O_3 
REMARK    2  A    between atoms: O_3  and  C_4 
REMARK       I    between atoms: C_4  and  N_5 
REMARK    3  A    between atoms: C_8  and  N_9 
REMARK       I    between atoms: N_9  and  C_10 
REMARK    4  A    between atoms: C_10  and  C_11 
REMARK    5  A    between atoms: C_12  and  C_13 
REMARK    6  A    between atoms: N_18  and  C_19 
REMARK    7  A    between atoms: C_19  and  C_20 
REMARK    8  A    between atoms: C_20  and  O_21 
ROOT
HETATM    1  C   UNL     1     -44.011  57.043 -54.988  1.00  0.00     0.139 C 
HETATM    2  C   UNL     1     -42.501  56.945 -55.292  1.00  0.00     0.145 C 
HETATM    3  N   UNL     1     -41.780  58.165 -54.904  1.00  0.00    -0.335 N 
HETATM    4  C   UNL     1     -42.286  59.397 -55.321  1.00  0.00     0.255 C 
HETATM    5  O   UNL     1     -41.666  60.451 -55.215  1.00  0.00    -0.267 OA
HETATM    6  C   UNL     1     -43.676  59.398 -55.877  1.00  0.00     0.039 A 
HETATM    7  C   UNL     1     -44.527  58.286 -55.703  1.00  0.00    -0.027 A 
HETATM    8  C   UNL     1     -44.143  60.541 -56.536  1.00  0.00     0.017 A 
HETATM    9  C   UNL     1     -45.447  60.578 -57.033  1.00  0.00     0.001 A 
HETATM   10  C   UNL     1     -46.290  59.480 -56.864  1.00  0.00     0.001 A 
HETATM   11  C   UNL     1     -45.838  58.339 -56.200  1.00  0.00     0.009 A 
ENDROOT
BRANCH   1  12
HETATM   12  C   UNL     1     -44.324  57.112 -53.488  1.00  0.00     0.229 C 
HETATM   13  N   UNL     1     -44.055  55.936 -52.804  1.00  0.00    -0.356 N 
HETATM   14  H   UNL     1     -43.544  55.235 -53.325  1.00  0.00     0.162 HD
HETATM   15  O   UNL     1     -44.807  58.102 -52.950  1.00  0.00    -0.273 OA
BRANCH  13  16
HETATM   16  C   UNL     1     -43.935  55.818 -51.344  1.00  0.00     0.087 C 
HETATM   17  C   UNL     1     -43.962  54.411 -50.732  1.00  0.00     0.045 C 
HETATM   18  C   UNL     1     -42.720  53.609 -51.090  1.00  0.00     0.130 C 
HETATM   19  N   UNL     1     -41.505  54.339 -50.730  1.00  0.00    -0.328 N 
HETATM   20  C   UNL     1     -40.340  53.684 -50.354  1.00  0.00     0.362 C 
HETATM   21  C   UNL     1     -41.407  55.711 -51.211  1.00  0.00     0.130 C 
HETATM   22  O   UNL     1     -39.244  54.230 -50.281  1.00  0.00    -0.238 OA
HETATM   23  C   UNL     1     -42.654  56.528 -50.879  1.00  0.00     0.045 C 
BRANCH  20  24
HETATM   24  O   UNL     1     -40.551  52.373 -50.064  1.00  0.00    -0.304 OA
BRANCH  24  25
HETATM   25  C   UNL     1     -39.931  51.417 -50.935  1.00  0.00     0.176 C 
HETATM   26  C   UNL     1     -39.992  50.037 -50.311  1.00  0.00     0.034 C 
ENDBRANCH  24  25
ENDBRANCH  20  24
ENDBRANCH  13  16
ENDBRANCH   1  12
BRANCH   2  27
HETATM   27  C   UNL     1     -41.798  55.641 -54.961  1.00  0.00     0.006 A 
HETATM   28  S   UNL     1     -42.588  54.118 -54.952  1.00  0.00    -0.104 SA
HETATM   29  C   UNL     1     -41.163  53.288 -54.520  1.00  0.00     0.050 A 
HETATM   30  C   UNL     1     -40.087  54.137 -54.406  1.00  0.00     0.008 A 
HETATM   31  C   UNL     1     -40.451  55.487 -54.669  1.00  0.00     0.017 A 
ENDBRANCH   2  27
BRANCH   3  32
HETATM   32  C   UNL     1     -40.746  58.172 -53.866  1.00  0.00     0.153 C 
BRANCH  32  33
HETATM   33  C   UNL     1     -41.081  59.062 -52.671  1.00  0.00     0.187 C 
BRANCH  33  34
HETATM   34  O   UNL     1     -39.993  59.006 -51.741  1.00  0.00    -0.394 OA
HETATM   35  C   UNL     1     -38.736  59.093 -52.394  1.00  0.00     0.201 C 
ENDBRANCH  33  34
ENDBRANCH  32  33
ENDBRANCH   3  32
TORSDOF 8
ENDMDL
MODEL 7
REMARK VINA RESULT:      -6.0      2.617      7.940
REMARK  8 active torsions:
REMARK  status: ('A' for Active; 'I' for Inactive)
REMARK    1  A    between atoms: C_2  and  O_3 
REMARK    2  A    between atoms: O_3  and  C_4 
REMARK       I    between atoms: C_4  and  N_5 
REMARK    3  A    between atoms: C_8  and  N_9 
REMARK       I    between atoms: N_9  and  C_10 
REMARK    4  A    between atoms: C_10  and  C_11 
REMARK    5  A    between atoms: C_12  and  C_13 
REMARK    6  A    between atoms: N_18  and  C_19 
REMARK    7  A    between atoms: C_19  and  C_20 
REMARK    8  A    between atoms: C_20  and  O_21 
ROOT
HETATM    1  C   UNL     1     -42.532  57.933 -54.501  1.00  0.00     0.139 C 
HETATM    2  C   UNL     1     -42.410  58.285 -55.998  1.00  0.00     0.145 C 
HETATM    3  N   UNL     1     -43.108  57.315 -56.852  1.00  0.00    -0.335 N 
HETATM    4  C   UNL     1     -42.870  55.956 -56.646  1.00  0.00     0.255 C 
HETATM    5  O   UNL     1     -43.250  55.080 -57.418  1.00  0.00    -0.267 OA
HETATM    6  C   UNL     1     -42.152  55.583 -55.386  1.00  0.00     0.039 A 
HETATM    7  C   UNL     1     -42.004  56.513 -54.335  1.00  0.00    -0.027 A 
HETATM    8  C   UNL     1     -41.666  54.279 -55.241  1.00  0.00     0.017 A 
HETATM    9  C   UNL     1     -41.024  53.900 -54.061  1.00  0.00     0.001 A 
HETATM   10  C   UNL     1     -40.876  54.816 -53.021  1.00  0.00     0.001 A 
HETATM   11  C   UNL     1     -41.365  56.117 -53.151  1.00  0.00     0.009 A 
ENDROOT
BRANCH   1  12
HETATM   12  C   UNL     1     -43.967  58.044 -53.968  1.00  0.00     0.229 C 
HETATM   13  N   UNL     1     -44.121  58.987 -52.964  1.00  0.00    -0.356 N 
HETATM   14  H   UNL     1     -43.327  59.595 -52.810  1.00  0.00     0.162 HD
HETATM   15  O   UNL     1     -44.885  57.334 -54.365  1.00  0.00    -0.273 OA
BRANCH  13  16
HETATM   16  C   UNL     1     -45.407  59.540 -52.516  1.00  0.00     0.087 C 
HETATM   17  C   UNL     1     -45.804  59.340 -51.048  1.00  0.00     0.045 C 
HETATM   18  C   UNL     1     -44.916  60.137 -50.103  1.00  0.00     0.130 C 
HETATM   19  N   UNL     1     -44.893  61.551 -50.477  1.00  0.00    -0.328 N 
HETATM   20  C   UNL     1     -44.728  62.556 -49.533  1.00  0.00     0.362 C 
HETATM   21  C   UNL     1     -44.587  61.848 -51.869  1.00  0.00     0.130 C 
HETATM   22  O   UNL     1     -44.462  63.719 -49.815  1.00  0.00    -0.238 OA
HETATM   23  C   UNL     1     -45.455  61.042 -52.834  1.00  0.00     0.045 C 
BRANCH  20  24
HETATM   24  O   UNL     1     -44.908  62.109 -48.261  1.00  0.00    -0.304 OA
BRANCH  24  25
HETATM   25  C   UNL     1     -45.680  62.948 -47.392  1.00  0.00     0.176 C 
HETATM   26  C   UNL     1     -45.307  62.675 -45.948  1.00  0.00     0.034 C 
ENDBRANCH  24  25
ENDBRANCH  20  24
ENDBRANCH  13  16
ENDBRANCH   1  12
BRANCH   2  27
HETATM   27  C   UNL     1     -42.576  59.740 -56.397  1.00  0.00     0.006 A 
HETATM   28  S   UNL     1     -41.711  60.471 -57.687  1.00  0.00    -0.104 SA
HETATM   29  C   UNL     1     -42.464  61.982 -57.446  1.00  0.00     0.050 A 
HETATM   30  C   UNL     1     -43.381  61.942 -56.422  1.00  0.00     0.008 A 
HETATM   31  C   UNL     1     -43.451  60.652 -55.826  1.00  0.00     0.017 A 
ENDBRANCH   2  27
BRANCH   3  32
HETATM   32  C   UNL     1     -44.252  57.684 -57.691  1.00  0.00     0.153 C 
BRANCH  32  33
HETATM   33  C   UNL     1     -43.925  57.753 -59.181  1.00  0.00     0.187 C 
BRANCH  33  34
HETATM   34  O   UNL     1     -44.969  57.100 -59.909  1.00  0.00    -0.394 OA
HETATM   35  C   UNL     1     -44.490  55.965 -60.616  1.00  0.00     0.201 C 
ENDBRANCH  33  34
ENDBRANCH  32  33
ENDBRANCH   3  32
TORSDOF 8
ENDMDL
MODEL 8
REMARK VINA RESULT:      -6.0      2.995      7.928
REMARK  8 active torsions:
REMARK  status: ('A' for Active; 'I' for Inactive)
REMARK    1  A    between atoms: C_2  and  O_3 
REMARK    2  A    between atoms: O_3  and  C_4 
REMARK       I    between atoms: C_4  and  N_5 
REMARK    3  A    between atoms: C_8  and  N_9 
REMARK       I    between atoms: N_9  and  C_10 
REMARK    4  A    between atoms: C_10  and  C_11 
REMARK    5  A    between atoms: C_12  and  C_13 
REMARK    6  A    between atoms: N_18  and  C_19 
REMARK    7  A    between atoms: C_19  and  C_20 
REMARK    8  A    between atoms: C_20  and  O_21 
ROOT
HETATM    1  C   UNL     1     -43.042  58.008 -58.474  1.00  0.00     0.139 C 
HETATM    2  C   UNL     1     -43.061  59.129 -59.534  1.00  0.00     0.145 C 
HETATM    3  N   UNL     1     -44.429  59.489 -59.930  1.00  0.00    -0.335 N 
HETATM    4  C   UNL     1     -45.311  58.467 -60.281  1.00  0.00     0.255 C 
HETATM    5  O   UNL     1     -46.403  58.667 -60.803  1.00  0.00    -0.267 OA
HETATM    6  C   UNL     1     -44.887  57.070 -59.945  1.00  0.00     0.039 A 
HETATM    7  C   UNL     1     -43.815  56.832 -59.058  1.00  0.00    -0.027 A 
HETATM    8  C   UNL     1     -45.599  55.994 -60.487  1.00  0.00     0.017 A 
HETATM    9  C   UNL     1     -45.243  54.685 -60.160  1.00  0.00     0.001 A 
HETATM   10  C   UNL     1     -44.184  54.446 -59.285  1.00  0.00     0.001 A 
HETATM   11  C   UNL     1     -43.473  55.512 -58.731  1.00  0.00     0.009 A 
ENDROOT
BRANCH   1  12
HETATM   12  C   UNL     1     -43.640  58.436 -57.127  1.00  0.00     0.229 C 
HETATM   13  N   UNL     1     -42.693  58.682 -56.145  1.00  0.00    -0.356 N 
HETATM   14  H   UNL     1     -41.732  58.708 -56.461  1.00  0.00     0.162 HD
HETATM   15  O   UNL     1     -44.847  58.515 -56.927  1.00  0.00    -0.273 OA
BRANCH  13  16
HETATM   16  C   UNL     1     -42.943  59.416 -54.897  1.00  0.00     0.087 C 
HETATM   17  C   UNL     1     -44.041  58.893 -53.962  1.00  0.00     0.045 C 
HETATM   18  C   UNL     1     -43.662  57.563 -53.326  1.00  0.00     0.130 C 
HETATM   19  N   UNL     1     -42.367  57.656 -52.653  1.00  0.00    -0.328 N 
HETATM   20  C   UNL     1     -42.068  56.895 -51.531  1.00  0.00     0.362 C 
HETATM   21  C   UNL     1     -41.267  58.201 -53.437  1.00  0.00     0.130 C 
HETATM   22  O   UNL     1     -40.935  56.757 -51.084  1.00  0.00    -0.238 OA
HETATM   23  C   UNL     1     -41.635  59.527 -54.100  1.00  0.00     0.045 C 
BRANCH  20  24
HETATM   24  O   UNL     1     -43.173  56.329 -50.976  1.00  0.00    -0.304 OA
BRANCH  24  25
HETATM   25  C   UNL     1     -43.077  54.941 -50.631  1.00  0.00     0.176 C 
HETATM   26  C   UNL     1     -43.214  54.090 -51.877  1.00  0.00     0.034 C 
ENDBRANCH  24  25
ENDBRANCH  20  24
ENDBRANCH  13  16
ENDBRANCH   1  12
BRANCH   2  27
HETATM   27  C   UNL     1     -42.111  60.298 -59.344  1.00  0.00     0.006 A 
HETATM   28  S   UNL     1     -41.597  61.315 -60.626  1.00  0.00    -0.104 SA
HETATM   29  C   UNL     1     -40.637  62.273 -59.593  1.00  0.00     0.050 A 
HETATM   30  C   UNL     1     -40.716  61.856 -58.285  1.00  0.00     0.008 A 
HETATM   31  C   UNL     1     -41.569  60.727 -58.142  1.00  0.00     0.017 A 
ENDBRANCH   2  27
BRANCH   3  32
HETATM   32  C   UNL     1     -44.995  60.819 -59.688  1.00  0.00     0.153 C 
BRANCH  32  33
HETATM   33  C   UNL     1     -46.059  60.845 -58.593  1.00  0.00     0.187 C 
BRANCH  33  34
HETATM   34  O   UNL     1     -45.936  62.071 -57.864  1.00  0.00    -0.394 OA
HETATM   35  C   UNL     1     -44.801  62.066 -57.011  1.00  0.00     0.201 C 
ENDBRANCH  33  34
ENDBRANCH  32  33
ENDBRANCH   3  32
TORSDOF 8
ENDMDL
MODEL 9
REMARK VINA RESULT:      -5.9      2.978      6.849
REMARK  8 active torsions:
REMARK  status: ('A' for Active; 'I' for Inactive)
REMARK    1  A    between atoms: C_2  and  O_3 
REMARK    2  A    between atoms: O_3  and  C_4 
REMARK       I    between atoms: C_4  and  N_5 
REMARK    3  A    between atoms: C_8  and  N_9 
REMARK       I    between atoms: N_9  and  C_10 
REMARK    4  A    between atoms: C_10  and  C_11 
REMARK    5  A    between atoms: C_12  and  C_13 
REMARK    6  A    between atoms: N_18  and  C_19 
REMARK    7  A    between atoms: C_19  and  C_20 
REMARK    8  A    between atoms: C_20  and  O_21 
ROOT
HETATM    1  C   UNL     1     -43.005  59.090 -56.344  1.00  0.00     0.139 C 
HETATM    2  C   UNL     1     -43.572  60.475 -55.966  1.00  0.00     0.145 C 
HETATM    3  N   UNL     1     -44.855  60.745 -56.630  1.00  0.00    -0.335 N 
HETATM    4  C   UNL     1     -44.949  60.534 -58.005  1.00  0.00     0.255 C 
HETATM    5  O   UNL     1     -45.904  60.904 -58.681  1.00  0.00    -0.267 OA
HETATM    6  C   UNL     1     -43.830  59.773 -58.646  1.00  0.00     0.039 A 
HETATM    7  C   UNL     1     -42.903  59.052 -57.864  1.00  0.00    -0.027 A 
HETATM    8  C   UNL     1     -43.739  59.744 -60.042  1.00  0.00     0.017 A 
HETATM    9  C   UNL     1     -42.725  59.013 -60.662  1.00  0.00     0.001 A 
HETATM   10  C   UNL     1     -41.806  58.301 -59.892  1.00  0.00     0.001 A 
HETATM   11  C   UNL     1     -41.893  58.314 -58.499  1.00  0.00     0.009 A 
ENDROOT
BRANCH   1  12
HETATM   12  C   UNL     1     -43.860  57.924 -55.828  1.00  0.00     0.229 C 
HETATM   13  N   UNL     1     -43.136  56.954 -55.153  1.00  0.00    -0.356 N 
HETATM   14  H   UNL     1     -42.176  57.194 -54.939  1.00  0.00     0.162 HD
HETATM   15  O   UNL     1     -45.066  57.839 -56.031  1.00  0.00    -0.273 OA
BRANCH  13  16
HETATM   16  C   UNL     1     -43.716  55.927 -54.276  1.00  0.00     0.087 C 
HETATM   17  C   UNL     1     -43.669  54.468 -54.749  1.00  0.00     0.045 C 
HETATM   18  C   UNL     1     -42.249  53.920 -54.769  1.00  0.00     0.130 C 
HETATM   19  N   UNL     1     -41.603  54.096 -53.468  1.00  0.00    -0.328 N 
HETATM   20  C   UNL     1     -40.644  53.208 -53.001  1.00  0.00     0.362 C 
HETATM   21  C   UNL     1     -41.646  55.436 -52.899  1.00  0.00     0.130 C 
HETATM   22  O   UNL     1     -39.910  53.438 -52.046  1.00  0.00    -0.238 OA
HETATM   23  C   UNL     1     -43.062  56.012 -52.889  1.00  0.00     0.045 C 
BRANCH  20  24
HETATM   24  O   UNL     1     -40.618  52.049 -53.711  1.00  0.00    -0.304 OA
BRANCH  24  25
HETATM   25  C   UNL     1     -39.561  51.132 -53.400  1.00  0.00     0.176 C 
HETATM   26  C   UNL     1     -39.694  49.884 -54.250  1.00  0.00     0.034 C 
ENDBRANCH  24  25
ENDBRANCH  20  24
ENDBRANCH  13  16
ENDBRANCH   1  12
BRANCH   2  27
HETATM   27  C   UNL     1     -43.491  60.898 -54.511  1.00  0.00     0.006 A 
HETATM   28  S   UNL     1     -43.741  59.821 -53.199  1.00  0.00    -0.104 SA
HETATM   29  C   UNL     1     -43.473  61.040 -52.038  1.00  0.00     0.050 A 
HETATM   30  C   UNL     1     -43.170  62.248 -52.621  1.00  0.00     0.008 A 
HETATM   31  C   UNL     1     -43.172  62.163 -54.042  1.00  0.00     0.017 A 
ENDBRANCH   2  27
BRANCH   3  32
HETATM   32  C   UNL     1     -46.103  60.930 -55.885  1.00  0.00     0.153 C 
BRANCH  32  33
HETATM   33  C   UNL     1     -46.514  62.393 -55.728  1.00  0.00     0.187 C 
BRANCH  33  34
HETATM   34  O   UNL     1     -47.474  62.486 -54.670  1.00  0.00    -0.394 OA
HETATM   35  C   UNL     1     -46.905  62.167 -53.410  1.00  0.00     0.201 C 
ENDBRANCH  33  34
ENDBRANCH  32  33
ENDBRANCH   3  32
TORSDOF 8
ENDMDL
MODEL 10
REMARK VINA RESULT:      -5.8      4.642      7.908
REMARK  8 active torsions:
REMARK  status: ('A' for Active; 'I' for Inactive)
REMARK    1  A    between atoms: C_2  and  O_3 
REMARK    2  A    between atoms: O_3  and  C_4 
REMARK       I    between atoms: C_4  and  N_5 
REMARK    3  A    between atoms: C_8  and  N_9 
REMARK       I    between atoms: N_9  and  C_10 
REMARK    4  A    between atoms: C_10  and  C_11 
REMARK    5  A    between atoms: C_12  and  C_13 
REMARK    6  A    between atoms: N_18  and  C_19 
REMARK    7  A    between atoms: C_19  and  C_20 
REMARK    8  A    between atoms: C_20  and  O_21 
ROOT
HETATM    1  C   UNL     1     -42.973  62.472 -50.921  1.00  0.00     0.139 C 
HETATM    2  C   UNL     1     -42.972  60.936 -50.771  1.00  0.00     0.145 C 
HETATM    3  N   UNL     1     -44.326  60.402 -50.572  1.00  0.00    -0.335 N 
HETATM    4  C   UNL     1     -45.137  60.989 -49.601  1.00  0.00     0.255 C 
HETATM    5  O   UNL     1     -46.201  60.505 -49.227  1.00  0.00    -0.267 OA
HETATM    6  C   UNL     1     -44.675  62.300 -49.044  1.00  0.00     0.039 A 
HETATM    7  C   UNL     1     -43.654  63.038 -49.681  1.00  0.00    -0.027 A 
HETATM    8  C   UNL     1     -45.302  62.813 -47.903  1.00  0.00     0.017 A 
HETATM    9  C   UNL     1     -44.911  64.049 -47.387  1.00  0.00     0.001 A 
HETATM   10  C   UNL     1     -43.902  64.781 -48.013  1.00  0.00     0.001 A 
HETATM   11  C   UNL     1     -43.276  64.283 -49.157  1.00  0.00     0.009 A 
ENDROOT
BRANCH   1  12
HETATM   12  C   UNL     1     -43.676  62.957 -52.196  1.00  0.00     0.229 C 
HETATM   13  N   UNL     1     -45.043  63.132 -52.050  1.00  0.00    -0.356 N 
HETATM   14  H   UNL     1     -45.393  63.078 -51.102  1.00  0.00     0.162 HD
HETATM   15  O   UNL     1     -43.089  63.134 -53.257  1.00  0.00    -0.273 OA
BRANCH  13  16
HETATM   16  C   UNL     1     -45.899  63.893 -52.971  1.00  0.00     0.087 C 
HETATM   17  C   UNL     1     -46.705  63.110 -54.017  1.00  0.00     0.045 C 
HETATM   18  C   UNL     1     -47.807  62.276 -53.380  1.00  0.00     0.130 C 
HETATM   19  N   UNL     1     -48.666  63.104 -52.534  1.00  0.00    -0.328 N 
HETATM   20  C   UNL     1     -50.012  62.817 -52.352  1.00  0.00     0.362 C 
HETATM   21  C   UNL     1     -47.993  63.936 -51.545  1.00  0.00     0.130 C 
HETATM   22  O   UNL     1     -50.705  63.325 -51.477  1.00  0.00    -0.238 OA
HETATM   23  C   UNL     1     -46.869  64.767 -52.162  1.00  0.00     0.045 C 
BRANCH  20  24
HETATM   24  O   UNL     1     -50.479  61.920 -53.260  1.00  0.00    -0.304 OA
BRANCH  24  25
HETATM   25  C   UNL     1     -51.836  61.486 -53.091  1.00  0.00     0.176 C 
HETATM   26  C   UNL     1     -52.699  62.052 -54.201  1.00  0.00     0.034 C 
ENDBRANCH  24  25
ENDBRANCH  20  24
ENDBRANCH  13  16
ENDBRANCH   1  12
BRANCH   2  27
HETATM   27  C   UNL     1     -42.089  60.136 -51.711  1.00  0.00     0.006 A 
HETATM   28  S   UNL     1     -42.353  60.040 -53.404  1.00  0.00    -0.104 SA
HETATM   29  C   UNL     1     -41.001  59.029 -53.641  1.00  0.00     0.050 A 
HETATM   30  C   UNL     1     -40.332  58.779 -52.466  1.00  0.00     0.008 A 
HETATM   31  C   UNL     1     -40.952  59.423 -51.359  1.00  0.00     0.017 A 
ENDBRANCH   2  27
BRANCH   3  32
HETATM   32  C   UNL     1     -44.965  59.497 -51.533  1.00  0.00     0.153 C 
BRANCH  32  33
HETATM   33  C   UNL     1     -44.943  58.031 -51.105  1.00  0.00     0.187 C 
BRANCH  33  34
HETATM   34  O   UNL     1     -44.641  57.226 -52.249  1.00  0.00    -0.394 OA
HETATM   35  C   UNL     1     -43.384  56.577 -52.122  1.00  0.00     0.201 C 
ENDBRANCH  33  34
ENDBRANCH  32  33
ENDBRANCH   3  32
TORSDOF 8
ENDMDL
