MODEL 1
REMARK VINA RESULT:      -9.6      0.000      0.000
REMARK  7 active torsions:
REMARK  status: ('A' for Active; 'I' for Inactive)
REMARK    1  A    between atoms: C_6  and  N_7 
REMARK    2  A    between atoms: C_10  and  C_11 
REMARK       I    between atoms: C_11  and  N_12 
REMARK    3  A    between atoms: N_12  and  C_13 
REMARK    4  A    between atoms: C_16  and  C_17 
REMARK    5  A    between atoms: C_17  and  N_18 
REMARK    6  A    between atoms: C_21  and  C_22 
REMARK       I    between atoms: C_22  and  N_23 
REMARK    7  A    between atoms: C_31  and  C_32 
ROOT
HETATM    1  C   UNL     1     -43.044  56.651 -53.182  1.00  0.00     0.278 C 
HETATM    2  N   UNL     1     -42.774  57.493 -52.118  1.00  0.00    -0.322 N 
HETATM    3  O   UNL     1     -43.993  56.736 -53.950  1.00  0.00    -0.265 OA
HETATM    4  H   UNL     1     -41.911  57.293 -51.619  1.00  0.00     0.169 HD
ENDROOT
BRANCH   2   5
HETATM    5  C   UNL     1     -43.533  58.597 -51.684  1.00  0.00     0.035 A 
HETATM    6  C   UNL     1     -43.134  59.923 -51.844  1.00  0.00     0.030 A 
HETATM    7  C   UNL     1     -43.934  60.972 -51.380  1.00  0.00     0.011 A 
HETATM    8  C   UNL     1     -45.157  60.715 -50.748  1.00  0.00    -0.032 A 
HETATM    9  C   UNL     1     -45.562  59.384 -50.590  1.00  0.00     0.011 A 
HETATM   10  C   UNL     1     -44.757  58.337 -51.058  1.00  0.00     0.030 A 
BRANCH   8  11
HETATM   11  C   UNL     1     -46.006  61.856 -50.253  1.00  0.00     0.273 C 
BRANCH  11  12
HETATM   12  N   UNL     1     -46.154  61.886 -48.749  1.00  0.00    -0.066 N 
HETATM   13  H   UNL     1     -46.629  60.997 -48.492  1.00  0.00     0.280 HD
HETATM   14  C   UNL     1     -44.829  61.836 -48.019  1.00  0.00     0.249 C 
HETATM   15  C   UNL     1     -45.048  61.711 -46.510  1.00  0.00     0.103 C 
HETATM   16  C   UNL     1     -45.964  62.823 -45.991  1.00  0.00     0.017 C 
HETATM   17  C   UNL     1     -47.267  62.918 -46.788  1.00  0.00     0.029 C 
HETATM   18  C   UNL     1     -47.026  63.020 -48.288  1.00  0.00     0.235 C 
BRANCH  15  19
HETATM   19  C   UNL     1     -45.644  60.350 -46.205  1.00  0.00     0.221 C 
HETATM   20  N   UNL     1     -45.416  59.856 -44.962  1.00  0.00    -0.370 N 
HETATM   21  H   UNL     1     -44.788  60.275 -44.286  1.00  0.00     0.159 HD
HETATM   22  H   UNL     1     -45.798  58.945 -44.728  1.00  0.00     0.159 HD
HETATM   23  O   UNL     1     -46.368  59.772 -47.014  1.00  0.00    -0.273 OA
ENDBRANCH  15  19
ENDBRANCH  11  12
ENDBRANCH   8  11
ENDBRANCH   2   5
BRANCH   1  24
HETATM   24  C   UNL     1     -42.033  55.613 -53.350  1.00  0.00     0.175 C 
HETATM   25  N   UNL     1     -41.009  55.713 -54.250  1.00  0.00    -0.152 NA
HETATM   26  N   UNL     1     -40.285  54.610 -54.165  1.00  0.00     0.011 NA
HETATM   27  N   UNL     1     -40.900  53.746 -53.306  1.00  0.00    -0.231 N 
HETATM   28  C   UNL     1     -41.906  54.425 -52.654  1.00  0.00     0.174 C 
BRANCH  27  29
HETATM   29  C   UNL     1     -40.482  52.386 -53.266  1.00  0.00     0.058 A 
HETATM   30  C   UNL     1     -39.829  51.912 -52.116  1.00  0.00     0.073 A 
HETATM   31  C   UNL     1     -39.402  50.589 -52.058  1.00  0.00     0.118 A 
HETATM   32  C   UNL     1     -39.590  49.725 -53.130  1.00  0.00     0.042 A 
HETATM   33  F   UNL     1     -38.800  50.141 -50.950  1.00  0.00    -0.206 F 
HETATM   34  C   UNL     1     -40.209  50.195 -54.284  1.00  0.00     0.005 A 
HETATM   35  C   UNL     1     -40.649  51.522 -54.358  1.00  0.00     0.031 A 
ENDBRANCH  27  29
BRANCH  28  36
HETATM   36  C   UNL     1     -42.597  53.966 -51.454  1.00  0.00     0.436 C 
HETATM   37  F   UNL     1     -41.958  52.931 -50.852  1.00  0.00    -0.165 F 
HETATM   38  F   UNL     1     -42.680  54.930 -50.506  1.00  0.00    -0.165 F 
HETATM   39  F   UNL     1     -43.856  53.550 -51.726  1.00  0.00    -0.165 F 
ENDBRANCH  28  36
ENDBRANCH   1  24
TORSDOF 7
ENDMDL
MODEL 2
REMARK VINA RESULT:      -9.0      1.902      2.553
REMARK  7 active torsions:
REMARK  status: ('A' for Active; 'I' for Inactive)
REMARK    1  A    between atoms: C_6  and  N_7 
REMARK    2  A    between atoms: C_10  and  C_11 
REMARK       I    between atoms: C_11  and  N_12 
REMARK    3  A    between atoms: N_12  and  C_13 
REMARK    4  A    between atoms: C_16  and  C_17 
REMARK    5  A    between atoms: C_17  and  N_18 
REMARK    6  A    between atoms: C_21  and  C_22 
REMARK       I    between atoms: C_22  and  N_23 
REMARK    7  A    between atoms: C_31  and  C_32 
ROOT
HETATM    1  C   UNL     1     -41.898  57.174 -51.567  1.00  0.00     0.278 C 
HETATM    2  N   UNL     1     -43.039  57.510 -50.861  1.00  0.00    -0.322 N 
HETATM    3  O   UNL     1     -41.369  57.839 -52.447  1.00  0.00    -0.265 OA
HETATM    4  H   UNL     1     -43.304  56.854 -50.132  1.00  0.00     0.169 HD
ENDROOT
BRANCH   2   5
HETATM    5  C   UNL     1     -43.836  58.661 -51.018  1.00  0.00     0.035 A 
HETATM    6  C   UNL     1     -45.221  58.631 -51.170  1.00  0.00     0.030 A 
HETATM    7  C   UNL     1     -45.950  59.814 -51.331  1.00  0.00     0.011 A 
HETATM    8  C   UNL     1     -45.305  61.057 -51.337  1.00  0.00    -0.032 A 
HETATM    9  C   UNL     1     -43.914  61.090 -51.180  1.00  0.00     0.011 A 
HETATM   10  C   UNL     1     -43.190  59.902 -51.019  1.00  0.00     0.030 A 
BRANCH   8  11
HETATM   11  C   UNL     1     -46.104  62.321 -51.513  1.00  0.00     0.273 C 
BRANCH  11  12
HETATM   12  N   UNL     1     -46.804  62.771 -50.251  1.00  0.00    -0.066 N 
HETATM   13  H   UNL     1     -47.123  61.901 -49.778  1.00  0.00     0.280 HD
HETATM   14  C   UNL     1     -45.873  63.428 -49.255  1.00  0.00     0.249 C 
HETATM   15  C   UNL     1     -46.602  63.718 -47.942  1.00  0.00     0.103 C 
HETATM   16  C   UNL     1     -47.874  64.535 -48.186  1.00  0.00     0.017 C 
HETATM   17  C   UNL     1     -48.771  63.904 -49.254  1.00  0.00     0.029 C 
HETATM   18  C   UNL     1     -48.020  63.604 -50.544  1.00  0.00     0.235 C 
BRANCH  15  19
HETATM   19  C   UNL     1     -46.940  62.405 -47.262  1.00  0.00     0.221 C 
HETATM   20  N   UNL     1     -47.687  62.486 -46.131  1.00  0.00    -0.370 N 
HETATM   21  H   UNL     1     -47.922  63.354 -45.663  1.00  0.00     0.159 HD
HETATM   22  H   UNL     1     -47.926  61.626 -45.649  1.00  0.00     0.159 HD
HETATM   23  O   UNL     1     -46.628  61.326 -47.760  1.00  0.00    -0.273 OA
ENDBRANCH  15  19
ENDBRANCH  11  12
ENDBRANCH   8  11
ENDBRANCH   2   5
BRANCH   1  24
HETATM   24  C   UNL     1     -41.320  55.907 -51.131  1.00  0.00     0.175 C 
HETATM   25  N   UNL     1     -40.361  55.825 -50.160  1.00  0.00    -0.152 NA
HETATM   26  N   UNL     1     -40.042  54.550 -50.014  1.00  0.00     0.011 NA
HETATM   27  N   UNL     1     -40.694  53.822 -50.965  1.00  0.00    -0.231 N 
HETATM   28  C   UNL     1     -41.632  54.632 -51.565  1.00  0.00     0.174 C 
BRANCH  27  29
HETATM   29  C   UNL     1     -40.297  52.476 -51.207  1.00  0.00     0.058 A 
HETATM   30  C   UNL     1     -39.875  52.117 -52.498  1.00  0.00     0.073 A 
HETATM   31  C   UNL     1     -39.493  50.805 -52.761  1.00  0.00     0.118 A 
HETATM   32  C   UNL     1     -39.539  49.830 -51.772  1.00  0.00     0.042 A 
HETATM   33  F   UNL     1     -39.073  50.477 -53.989  1.00  0.00    -0.206 F 
HETATM   34  C   UNL     1     -39.984  50.171 -50.498  1.00  0.00     0.005 A 
HETATM   35  C   UNL     1     -40.369  51.488 -50.215  1.00  0.00     0.031 A 
ENDBRANCH  27  29
BRANCH  28  36
HETATM   36  C   UNL     1     -42.732  54.175 -52.407  1.00  0.00     0.436 C 
HETATM   37  F   UNL     1     -43.383  55.200 -53.011  1.00  0.00    -0.165 F 
HETATM   38  F   UNL     1     -42.311  53.377 -53.419  1.00  0.00    -0.165 F 
HETATM   39  F   UNL     1     -43.655  53.482 -51.698  1.00  0.00    -0.165 F 
ENDBRANCH  28  36
ENDBRANCH   1  24
TORSDOF 7
ENDMDL
MODEL 3
REMARK VINA RESULT:      -9.0      1.405      1.789
REMARK  7 active torsions:
REMARK  status: ('A' for Active; 'I' for Inactive)
REMARK    1  A    between atoms: C_6  and  N_7 
REMARK    2  A    between atoms: C_10  and  C_11 
REMARK       I    between atoms: C_11  and  N_12 
REMARK    3  A    between atoms: N_12  and  C_13 
REMARK    4  A    between atoms: C_16  and  C_17 
REMARK    5  A    between atoms: C_17  and  N_18 
REMARK    6  A    between atoms: C_21  and  C_22 
REMARK       I    between atoms: C_22  and  N_23 
REMARK    7  A    between atoms: C_31  and  C_32 
ROOT
HETATM    1  C   UNL     1     -42.411  57.032 -52.947  1.00  0.00     0.278 C 
HETATM    2  N   UNL     1     -41.680  58.130 -52.530  1.00  0.00    -0.322 N 
HETATM    3  O   UNL     1     -43.627  56.979 -53.074  1.00  0.00    -0.265 OA
HETATM    4  H   UNL     1     -40.671  58.001 -52.531  1.00  0.00     0.169 HD
ENDROOT
BRANCH   2   5
HETATM    5  C   UNL     1     -42.171  59.393 -52.148  1.00  0.00     0.035 A 
HETATM    6  C   UNL     1     -42.618  60.357 -53.050  1.00  0.00     0.030 A 
HETATM    7  C   UNL     1     -43.085  61.597 -52.599  1.00  0.00     0.011 A 
HETATM    8  C   UNL     1     -43.120  61.896 -51.232  1.00  0.00    -0.032 A 
HETATM    9  C   UNL     1     -42.675  60.927 -50.324  1.00  0.00     0.011 A 
HETATM   10  C   UNL     1     -42.209  59.688 -50.780  1.00  0.00     0.030 A 
BRANCH   8  11
HETATM   11  C   UNL     1     -43.624  63.235 -50.765  1.00  0.00     0.273 C 
BRANCH  11  12
HETATM   12  N   UNL     1     -44.720  63.138 -49.729  1.00  0.00    -0.066 N 
HETATM   13  H   UNL     1     -44.807  62.126 -49.502  1.00  0.00     0.280 HD
HETATM   14  C   UNL     1     -44.357  63.794 -48.414  1.00  0.00     0.249 C 
HETATM   15  C   UNL     1     -45.435  63.528 -47.361  1.00  0.00     0.103 C 
HETATM   16  C   UNL     1     -46.817  63.949 -47.867  1.00  0.00     0.017 C 
HETATM   17  C   UNL     1     -47.141  63.344 -49.235  1.00  0.00     0.029 C 
HETATM   18  C   UNL     1     -46.046  63.602 -50.261  1.00  0.00     0.235 C 
BRANCH  15  19
HETATM   19  C   UNL     1     -45.428  62.053 -47.006  1.00  0.00     0.221 C 
HETATM   20  N   UNL     1     -46.495  61.598 -46.300  1.00  0.00    -0.370 N 
HETATM   21  H   UNL     1     -47.213  62.192 -45.904  1.00  0.00     0.159 HD
HETATM   22  H   UNL     1     -46.518  60.617 -46.043  1.00  0.00     0.159 HD
HETATM   23  O   UNL     1     -44.547  61.300 -47.415  1.00  0.00    -0.273 OA
ENDBRANCH  15  19
ENDBRANCH  11  12
ENDBRANCH   8  11
ENDBRANCH   2   5
BRANCH   1  24
HETATM   24  C   UNL     1     -41.570  55.887 -53.276  1.00  0.00     0.175 C 
HETATM   25  N   UNL     1     -40.798  55.834 -54.404  1.00  0.00    -0.152 NA
HETATM   26  N   UNL     1     -40.177  54.666 -54.413  1.00  0.00     0.011 NA
HETATM   27  N   UNL     1     -40.632  53.917 -53.369  1.00  0.00    -0.231 N 
HETATM   28  C   UNL     1     -41.379  54.729 -52.545  1.00  0.00     0.174 C 
BRANCH  27  29
HETATM   29  C   UNL     1     -40.340  52.525 -53.329  1.00  0.00     0.058 A 
HETATM   30  C   UNL     1     -39.767  51.986 -52.165  1.00  0.00     0.073 A 
HETATM   31  C   UNL     1     -39.463  50.629 -52.107  1.00  0.00     0.118 A 
HETATM   32  C   UNL     1     -39.696  49.793 -53.190  1.00  0.00     0.042 A 
HETATM   33  F   UNL     1     -38.937  50.122 -50.985  1.00  0.00    -0.206 F 
HETATM   34  C   UNL     1     -40.235  50.324 -54.358  1.00  0.00     0.005 A 
HETATM   35  C   UNL     1     -40.552  51.686 -54.433  1.00  0.00     0.031 A 
ENDBRANCH  27  29
BRANCH  28  36
HETATM   36  C   UNL     1     -41.787  54.407 -51.181  1.00  0.00     0.436 C 
HETATM   37  F   UNL     1     -42.472  55.420 -50.592  1.00  0.00    -0.165 F 
HETATM   38  F   UNL     1     -42.622  53.340 -51.131  1.00  0.00    -0.165 F 
HETATM   39  F   UNL     1     -40.725  54.133 -50.389  1.00  0.00    -0.165 F 
ENDBRANCH  28  36
ENDBRANCH   1  24
TORSDOF 7
ENDMDL
MODEL 4
REMARK VINA RESULT:      -8.7      1.636      2.046
REMARK  7 active torsions:
REMARK  status: ('A' for Active; 'I' for Inactive)
REMARK    1  A    between atoms: C_6  and  N_7 
REMARK    2  A    between atoms: C_10  and  C_11 
REMARK       I    between atoms: C_11  and  N_12 
REMARK    3  A    between atoms: N_12  and  C_13 
REMARK    4  A    between atoms: C_16  and  C_17 
REMARK    5  A    between atoms: C_17  and  N_18 
REMARK    6  A    between atoms: C_21  and  C_22 
REMARK       I    between atoms: C_22  and  N_23 
REMARK    7  A    between atoms: C_31  and  C_32 
ROOT
HETATM    1  C   UNL     1     -41.650  56.899 -52.973  1.00  0.00     0.278 C 
HETATM    2  N   UNL     1     -43.032  56.838 -53.021  1.00  0.00    -0.322 N 
HETATM    3  O   UNL     1     -40.980  57.859 -52.616  1.00  0.00    -0.265 OA
HETATM    4  H   UNL     1     -43.413  55.938 -53.298  1.00  0.00     0.169 HD
ENDROOT
BRANCH   2   5
HETATM    5  C   UNL     1     -43.947  57.858 -52.697  1.00  0.00     0.035 A 
HETATM    6  C   UNL     1     -44.210  58.954 -53.517  1.00  0.00     0.030 A 
HETATM    7  C   UNL     1     -45.126  59.936 -53.127  1.00  0.00     0.011 A 
HETATM    8  C   UNL     1     -45.804  59.840 -51.906  1.00  0.00    -0.032 A 
HETATM    9  C   UNL     1     -45.544  58.738 -51.082  1.00  0.00     0.011 A 
HETATM   10  C   UNL     1     -44.627  57.757 -51.477  1.00  0.00     0.030 A 
BRANCH   8  11
HETATM   11  C   UNL     1     -46.786  60.907 -51.500  1.00  0.00     0.273 C 
BRANCH  11  12
HETATM   12  N   UNL     1     -46.233  61.878 -50.482  1.00  0.00    -0.066 N 
HETATM   13  H   UNL     1     -47.060  62.286 -50.001  1.00  0.00     0.280 HD
HETATM   14  C   UNL     1     -45.447  61.200 -49.380  1.00  0.00     0.249 C 
HETATM   15  C   UNL     1     -45.049  62.209 -48.301  1.00  0.00     0.103 C 
HETATM   16  C   UNL     1     -44.303  63.401 -48.907  1.00  0.00     0.017 C 
HETATM   17  C   UNL     1     -45.070  64.029 -50.074  1.00  0.00     0.029 C 
HETATM   18  C   UNL     1     -45.475  63.004 -51.125  1.00  0.00     0.235 C 
BRANCH  15  19
HETATM   19  C   UNL     1     -46.296  62.679 -47.576  1.00  0.00     0.221 C 
HETATM   20  N   UNL     1     -46.100  63.440 -46.469  1.00  0.00    -0.370 N 
HETATM   21  H   UNL     1     -45.196  63.606 -46.043  1.00  0.00     0.159 HD
HETATM   22  H   UNL     1     -46.914  63.766 -45.959  1.00  0.00     0.159 HD
HETATM   23  O   UNL     1     -47.419  62.454 -48.022  1.00  0.00    -0.273 OA
ENDBRANCH  15  19
ENDBRANCH  11  12
ENDBRANCH   8  11
ENDBRANCH   2   5
BRANCH   1  24
HETATM   24  C   UNL     1     -41.017  55.647 -53.369  1.00  0.00     0.175 C 
HETATM   25  N   UNL     1     -40.574  55.409 -54.640  1.00  0.00    -0.152 NA
HETATM   26  N   UNL     1     -40.070  54.187 -54.670  1.00  0.00     0.011 NA
HETATM   27  N   UNL     1     -40.294  53.588 -53.466  1.00  0.00    -0.231 N 
HETATM   28  C   UNL     1     -40.734  54.547 -52.580  1.00  0.00     0.174 C 
BRANCH  27  29
HETATM   29  C   UNL     1     -40.112  52.182 -53.340  1.00  0.00     0.058 A 
HETATM   30  C   UNL     1     -39.581  51.672 -52.143  1.00  0.00     0.073 A 
HETATM   31  C   UNL     1     -39.384  50.302 -52.002  1.00  0.00     0.118 A 
HETATM   32  C   UNL     1     -39.684  49.422 -53.034  1.00  0.00     0.042 A 
HETATM   33  F   UNL     1     -38.898  49.824 -50.850  1.00  0.00    -0.206 F 
HETATM   34  C   UNL     1     -40.182  49.921 -54.233  1.00  0.00     0.005 A 
HETATM   35  C   UNL     1     -40.391  51.297 -54.392  1.00  0.00     0.031 A 
ENDBRANCH  27  29
BRANCH  28  36
HETATM   36  C   UNL     1     -40.796  54.395 -51.130  1.00  0.00     0.436 C 
HETATM   37  F   UNL     1     -41.679  53.441 -50.746  1.00  0.00    -0.165 F 
HETATM   38  F   UNL     1     -39.608  54.013 -50.600  1.00  0.00    -0.165 F 
HETATM   39  F   UNL     1     -41.164  55.546 -50.519  1.00  0.00    -0.165 F 
ENDBRANCH  28  36
ENDBRANCH   1  24
TORSDOF 7
ENDMDL
MODEL 5
REMARK VINA RESULT:      -8.7      2.077      2.643
REMARK  7 active torsions:
REMARK  status: ('A' for Active; 'I' for Inactive)
REMARK    1  A    between atoms: C_6  and  N_7 
REMARK    2  A    between atoms: C_10  and  C_11 
REMARK       I    between atoms: C_11  and  N_12 
REMARK    3  A    between atoms: N_12  and  C_13 
REMARK    4  A    between atoms: C_16  and  C_17 
REMARK    5  A    between atoms: C_17  and  N_18 
REMARK    6  A    between atoms: C_21  and  C_22 
REMARK       I    between atoms: C_22  and  N_23 
REMARK    7  A    between atoms: C_31  and  C_32 
ROOT
HETATM    1  C   UNL     1     -43.804  57.136 -51.281  1.00  0.00     0.278 C 
HETATM    2  N   UNL     1     -43.336  58.385 -51.649  1.00  0.00    -0.322 N 
HETATM    3  O   UNL     1     -44.788  56.907 -50.590  1.00  0.00    -0.265 OA
HETATM    4  H   UNL     1     -42.530  58.376 -52.268  1.00  0.00     0.169 HD
ENDROOT
BRANCH   2   5
HETATM    5  C   UNL     1     -43.869  59.639 -51.295  1.00  0.00     0.035 A 
HETATM    6  C   UNL     1     -45.143  60.071 -51.658  1.00  0.00     0.030 A 
HETATM    7  C   UNL     1     -45.605  61.336 -51.280  1.00  0.00     0.011 A 
HETATM    8  C   UNL     1     -44.800  62.195 -50.522  1.00  0.00    -0.032 A 
HETATM    9  C   UNL     1     -43.521  61.762 -50.152  1.00  0.00     0.011 A 
HETATM   10  C   UNL     1     -43.064  60.494 -50.533  1.00  0.00     0.030 A 
BRANCH   8  11
HETATM   11  C   UNL     1     -45.312  63.555 -50.124  1.00  0.00     0.273 C 
BRANCH  11  12
HETATM   12  N   UNL     1     -45.552  63.696 -48.638  1.00  0.00    -0.066 N 
HETATM   13  H   UNL     1     -46.394  64.300 -48.543  1.00  0.00     0.280 HD
HETATM   14  C   UNL     1     -45.939  62.394 -47.971  1.00  0.00     0.249 C 
HETATM   15  C   UNL     1     -46.319  62.628 -46.508  1.00  0.00     0.103 C 
HETATM   16  C   UNL     1     -45.206  63.365 -45.759  1.00  0.00     0.017 C 
HETATM   17  C   UNL     1     -44.766  64.639 -46.484  1.00  0.00     0.029 C 
HETATM   18  C   UNL     1     -44.412  64.387 -47.944  1.00  0.00     0.235 C 
BRANCH  15  19
HETATM   19  C   UNL     1     -47.610  63.423 -46.452  1.00  0.00     0.221 C 
HETATM   20  N   UNL     1     -48.164  63.589 -45.224  1.00  0.00    -0.370 N 
HETATM   21  H   UNL     1     -47.840  63.124 -44.384  1.00  0.00     0.159 HD
HETATM   22  H   UNL     1     -49.030  64.112 -45.154  1.00  0.00     0.159 HD
HETATM   23  O   UNL     1     -48.075  63.960 -47.455  1.00  0.00    -0.273 OA
ENDBRANCH  15  19
ENDBRANCH  11  12
ENDBRANCH   8  11
ENDBRANCH   2   5
BRANCH   1  24
HETATM   24  C   UNL     1     -43.010  56.049 -51.841  1.00  0.00     0.175 C 
HETATM   25  N   UNL     1     -43.208  55.560 -53.102  1.00  0.00    -0.152 NA
HETATM   26  N   UNL     1     -42.343  54.578 -53.295  1.00  0.00     0.011 NA
HETATM   27  N   UNL     1     -41.673  54.346 -52.130  1.00  0.00    -0.231 N 
HETATM   28  C   UNL     1     -41.956  55.372 -51.256  1.00  0.00     0.174 C 
BRANCH  27  29
HETATM   29  C   UNL     1     -40.903  53.157 -51.993  1.00  0.00     0.058 A 
HETATM   30  C   UNL     1     -40.307  52.600 -53.136  1.00  0.00     0.073 A 
HETATM   31  C   UNL     1     -39.558  51.432 -53.028  1.00  0.00     0.118 A 
HETATM   32  C   UNL     1     -39.403  50.788 -51.807  1.00  0.00     0.042 A 
HETATM   33  F   UNL     1     -38.977  50.920 -54.120  1.00  0.00    -0.206 F 
HETATM   34  C   UNL     1     -40.014  51.318 -50.674  1.00  0.00     0.005 A 
HETATM   35  C   UNL     1     -40.768  52.495 -50.764  1.00  0.00     0.031 A 
ENDBRANCH  27  29
BRANCH  28  36
HETATM   36  C   UNL     1     -41.220  55.669 -50.031  1.00  0.00     0.436 C 
HETATM   37  F   UNL     1     -41.707  54.996 -48.958  1.00  0.00    -0.165 F 
HETATM   38  F   UNL     1     -39.916  55.308 -50.113  1.00  0.00    -0.165 F 
HETATM   39  F   UNL     1     -41.261  56.987 -49.726  1.00  0.00    -0.165 F 
ENDBRANCH  28  36
ENDBRANCH   1  24
TORSDOF 7
ENDMDL
MODEL 6
REMARK VINA RESULT:      -8.5      6.600     10.210
REMARK  7 active torsions:
REMARK  status: ('A' for Active; 'I' for Inactive)
REMARK    1  A    between atoms: C_6  and  N_7 
REMARK    2  A    between atoms: C_10  and  C_11 
REMARK       I    between atoms: C_11  and  N_12 
REMARK    3  A    between atoms: N_12  and  C_13 
REMARK    4  A    between atoms: C_16  and  C_17 
REMARK    5  A    between atoms: C_17  and  N_18 
REMARK    6  A    between atoms: C_21  and  C_22 
REMARK       I    between atoms: C_22  and  N_23 
REMARK    7  A    between atoms: C_31  and  C_32 
ROOT
HETATM    1  C   UNL     1     -43.298  56.491 -58.817  1.00  0.00     0.278 C 
HETATM    2  N   UNL     1     -43.538  56.456 -57.455  1.00  0.00    -0.322 N 
HETATM    3  O   UNL     1     -42.513  55.782 -59.432  1.00  0.00    -0.265 OA
HETATM    4  H   UNL     1     -44.263  57.090 -57.130  1.00  0.00     0.169 HD
ENDROOT
BRANCH   2   5
HETATM    5  C   UNL     1     -42.923  55.628 -56.497  1.00  0.00     0.035 A 
HETATM    6  C   UNL     1     -43.380  54.353 -56.166  1.00  0.00     0.030 A 
HETATM    7  C   UNL     1     -42.724  53.588 -55.196  1.00  0.00     0.011 A 
HETATM    8  C   UNL     1     -41.592  54.082 -54.538  1.00  0.00    -0.032 A 
HETATM    9  C   UNL     1     -41.129  55.361 -54.871  1.00  0.00     0.011 A 
HETATM   10  C   UNL     1     -41.788  56.123 -55.844  1.00  0.00     0.030 A 
BRANCH   8  11
HETATM   11  C   UNL     1     -40.900  53.245 -53.494  1.00  0.00     0.273 C 
BRANCH  11  12
HETATM   12  N   UNL     1     -40.836  53.908 -52.137  1.00  0.00    -0.066 N 
HETATM   13  H   UNL     1     -40.496  54.876 -52.310  1.00  0.00     0.280 HD
HETATM   14  C   UNL     1     -42.196  54.088 -51.499  1.00  0.00     0.249 C 
HETATM   15  C   UNL     1     -42.084  54.900 -50.207  1.00  0.00     0.103 C 
HETATM   16  C   UNL     1     -41.062  54.278 -49.251  1.00  0.00     0.017 C 
HETATM   17  C   UNL     1     -39.714  54.025 -49.929  1.00  0.00     0.029 C 
HETATM   18  C   UNL     1     -39.852  53.234 -51.223  1.00  0.00     0.235 C 
BRANCH  15  19
HETATM   19  C   UNL     1     -41.688  56.325 -50.549  1.00  0.00     0.221 C 
HETATM   20  N   UNL     1     -41.321  57.115 -49.508  1.00  0.00    -0.370 N 
HETATM   21  H   UNL     1     -41.408  56.853 -48.533  1.00  0.00     0.159 HD
HETATM   22  H   UNL     1     -41.055  58.075 -49.703  1.00  0.00     0.159 HD
HETATM   23  O   UNL     1     -41.621  56.708 -51.714  1.00  0.00    -0.273 OA
ENDBRANCH  15  19
ENDBRANCH  11  12
ENDBRANCH   8  11
ENDBRANCH   2   5
BRANCH   1  24
HETATM   24  C   UNL     1     -44.128  57.469 -59.511  1.00  0.00     0.175 C 
HETATM   25  N   UNL     1     -43.712  58.746 -59.767  1.00  0.00    -0.152 NA
HETATM   26  N   UNL     1     -44.695  59.375 -60.389  1.00  0.00     0.011 NA
HETATM   27  N   UNL     1     -45.786  58.556 -60.428  1.00  0.00    -0.231 N 
HETATM   28  C   UNL     1     -45.396  57.295 -60.036  1.00  0.00     0.174 C 
BRANCH  27  29
HETATM   29  C   UNL     1     -47.053  59.099 -60.780  1.00  0.00     0.058 A 
HETATM   30  C   UNL     1     -47.743  59.877 -59.835  1.00  0.00     0.073 A 
HETATM   31  C   UNL     1     -48.989  60.409 -60.153  1.00  0.00     0.118 A 
HETATM   32  C   UNL     1     -49.580  60.170 -61.387  1.00  0.00     0.042 A 
HETATM   33  F   UNL     1     -49.629  61.166 -59.253  1.00  0.00    -0.206 F 
HETATM   34  C   UNL     1     -48.916  59.376 -62.318  1.00  0.00     0.005 A 
HETATM   35  C   UNL     1     -47.660  58.836 -62.017  1.00  0.00     0.031 A 
ENDBRANCH  27  29
BRANCH  28  36
HETATM   36  C   UNL     1     -46.169  56.072 -60.225  1.00  0.00     0.436 C 
HETATM   37  F   UNL     1     -47.404  56.149 -59.670  1.00  0.00    -0.165 F 
HETATM   38  F   UNL     1     -46.385  55.796 -61.534  1.00  0.00    -0.165 F 
HETATM   39  F   UNL     1     -45.554  54.998 -59.676  1.00  0.00    -0.165 F 
ENDBRANCH  28  36
ENDBRANCH   1  24
TORSDOF 7
ENDMDL
MODEL 7
REMARK VINA RESULT:      -8.1      6.377      8.997
REMARK  7 active torsions:
REMARK  status: ('A' for Active; 'I' for Inactive)
REMARK    1  A    between atoms: C_6  and  N_7 
REMARK    2  A    between atoms: C_10  and  C_11 
REMARK       I    between atoms: C_11  and  N_12 
REMARK    3  A    between atoms: N_12  and  C_13 
REMARK    4  A    between atoms: C_16  and  C_17 
REMARK    5  A    between atoms: C_17  and  N_18 
REMARK    6  A    between atoms: C_21  and  C_22 
REMARK       I    between atoms: C_22  and  N_23 
REMARK    7  A    between atoms: C_31  and  C_32 
ROOT
HETATM    1  C   UNL     1     -42.702  57.361 -55.882  1.00  0.00     0.278 C 
HETATM    2  N   UNL     1     -41.977  57.435 -57.058  1.00  0.00    -0.322 N 
HETATM    3  O   UNL     1     -43.796  57.868 -55.673  1.00  0.00    -0.265 OA
HETATM    4  H   UNL     1     -41.108  56.908 -57.062  1.00  0.00     0.169 HD
ENDROOT
BRANCH   2   5
HETATM    5  C   UNL     1     -42.327  58.116 -58.240  1.00  0.00     0.035 A 
HETATM    6  C   UNL     1     -42.965  57.513 -59.323  1.00  0.00     0.030 A 
HETATM    7  C   UNL     1     -43.275  58.250 -60.471  1.00  0.00     0.011 A 
HETATM    8  C   UNL     1     -42.956  59.610 -60.558  1.00  0.00    -0.032 A 
HETATM    9  C   UNL     1     -42.319  60.219 -59.469  1.00  0.00     0.011 A 
HETATM   10  C   UNL     1     -42.012  59.477 -58.322  1.00  0.00     0.030 A 
BRANCH   8  11
HETATM   11  C   UNL     1     -43.295  60.388 -61.802  1.00  0.00     0.273 C 
BRANCH  11  12
HETATM   12  N   UNL     1     -44.779  60.453 -62.085  1.00  0.00    -0.066 N 
HETATM   13  H   UNL     1     -45.098  59.465 -62.154  1.00  0.00     0.280 HD
HETATM   14  C   UNL     1     -45.579  61.034 -60.939  1.00  0.00     0.249 C 
HETATM   15  C   UNL     1     -47.079  60.930 -61.220  1.00  0.00     0.103 C 
HETATM   16  C   UNL     1     -47.435  61.565 -62.567  1.00  0.00     0.017 C 
HETATM   17  C   UNL     1     -46.564  61.029 -63.706  1.00  0.00     0.029 C 
HETATM   18  C   UNL     1     -45.076  61.122 -63.397  1.00  0.00     0.235 C 
BRANCH  15  19
HETATM   19  C   UNL     1     -47.487  59.468 -61.200  1.00  0.00     0.221 C 
HETATM   20  N   UNL     1     -48.718  59.180 -61.693  1.00  0.00    -0.370 N 
HETATM   21  H   UNL     1     -49.407  59.875 -61.954  1.00  0.00     0.159 HD
HETATM   22  H   UNL     1     -49.023  58.212 -61.689  1.00  0.00     0.159 HD
HETATM   23  O   UNL     1     -46.707  58.590 -60.838  1.00  0.00    -0.273 OA
ENDBRANCH  15  19
ENDBRANCH  11  12
ENDBRANCH   8  11
ENDBRANCH   2   5
BRANCH   1  24
HETATM   24  C   UNL     1     -42.039  56.556 -54.862  1.00  0.00     0.175 C 
HETATM   25  N   UNL     1     -41.184  57.088 -53.938  1.00  0.00    -0.152 NA
HETATM   26  N   UNL     1     -40.747  56.099 -53.176  1.00  0.00     0.011 NA
HETATM   27  N   UNL     1     -41.215  54.919 -53.674  1.00  0.00    -0.231 N 
HETATM   28  C   UNL     1     -42.167  55.199 -54.630  1.00  0.00     0.174 C 
BRANCH  27  29
HETATM   29  C   UNL     1     -40.653  53.695 -53.213  1.00  0.00     0.058 A 
HETATM   30  C   UNL     1     -40.662  53.423 -51.835  1.00  0.00     0.073 A 
HETATM   31  C   UNL     1     -40.109  52.238 -51.360  1.00  0.00     0.118 A 
HETATM   32  C   UNL     1     -39.527  51.319 -52.224  1.00  0.00     0.042 A 
HETATM   33  F   UNL     1     -40.141  51.978 -50.047  1.00  0.00    -0.206 F 
HETATM   34  C   UNL     1     -39.488  51.594 -53.587  1.00  0.00     0.005 A 
HETATM   35  C   UNL     1     -40.043  52.780 -54.084  1.00  0.00     0.031 A 
ENDBRANCH  27  29
BRANCH  28  36
HETATM   36  C   UNL     1     -43.118  54.241 -55.183  1.00  0.00     0.436 C 
HETATM   37  F   UNL     1     -42.739  52.955 -54.975  1.00  0.00    -0.165 F 
HETATM   38  F   UNL     1     -44.345  54.345 -54.615  1.00  0.00    -0.165 F 
HETATM   39  F   UNL     1     -43.272  54.399 -56.519  1.00  0.00    -0.165 F 
ENDBRANCH  28  36
ENDBRANCH   1  24
TORSDOF 7
ENDMDL
MODEL 8
REMARK VINA RESULT:      -8.1      2.188      2.723
REMARK  7 active torsions:
REMARK  status: ('A' for Active; 'I' for Inactive)
REMARK    1  A    between atoms: C_6  and  N_7 
REMARK    2  A    between atoms: C_10  and  C_11 
REMARK       I    between atoms: C_11  and  N_12 
REMARK    3  A    between atoms: N_12  and  C_13 
REMARK    4  A    between atoms: C_16  and  C_17 
REMARK    5  A    between atoms: C_17  and  N_18 
REMARK    6  A    between atoms: C_21  and  C_22 
REMARK       I    between atoms: C_22  and  N_23 
REMARK    7  A    between atoms: C_31  and  C_32 
ROOT
HETATM    1  C   UNL     1     -42.245  57.101 -52.376  1.00  0.00     0.278 C 
HETATM    2  N   UNL     1     -41.521  58.280 -52.385  1.00  0.00    -0.322 N 
HETATM    3  O   UNL     1     -43.417  56.974 -52.050  1.00  0.00    -0.265 OA
HETATM    4  H   UNL     1     -40.570  58.198 -52.734  1.00  0.00     0.169 HD
ENDROOT
BRANCH   2   5
HETATM    5  C   UNL     1     -41.965  59.562 -52.008  1.00  0.00     0.035 A 
HETATM    6  C   UNL     1     -41.954  60.031 -50.695  1.00  0.00     0.030 A 
HETATM    7  C   UNL     1     -42.421  61.314 -50.390  1.00  0.00     0.011 A 
HETATM    8  C   UNL     1     -42.904  62.159 -51.396  1.00  0.00    -0.032 A 
HETATM    9  C   UNL     1     -42.912  61.692 -52.716  1.00  0.00     0.011 A 
HETATM   10  C   UNL     1     -42.443  60.406 -53.016  1.00  0.00     0.030 A 
BRANCH   8  11
HETATM   11  C   UNL     1     -43.404  63.537 -51.050  1.00  0.00     0.273 C 
BRANCH  11  12
HETATM   12  N   UNL     1     -44.663  63.528 -50.213  1.00  0.00    -0.066 N 
HETATM   13  H   UNL     1     -45.114  64.452 -50.370  1.00  0.00     0.280 HD
HETATM   14  C   UNL     1     -45.685  62.518 -50.688  1.00  0.00     0.249 C 
HETATM   15  C   UNL     1     -46.992  62.663 -49.906  1.00  0.00     0.103 C 
HETATM   16  C   UNL     1     -46.745  62.584 -48.397  1.00  0.00     0.017 C 
HETATM   17  C   UNL     1     -45.651  63.553 -47.940  1.00  0.00     0.029 C 
HETATM   18  C   UNL     1     -44.367  63.406 -48.745  1.00  0.00     0.235 C 
BRANCH  15  19
HETATM   19  C   UNL     1     -47.643  63.985 -50.267  1.00  0.00     0.221 C 
HETATM   20  N   UNL     1     -48.803  64.281 -49.628  1.00  0.00    -0.370 N 
HETATM   21  H   UNL     1     -49.307  63.636 -49.031  1.00  0.00     0.159 HD
HETATM   22  H   UNL     1     -49.265  65.157 -49.851  1.00  0.00     0.159 HD
HETATM   23  O   UNL     1     -47.098  64.779 -51.031  1.00  0.00    -0.273 OA
ENDBRANCH  15  19
ENDBRANCH  11  12
ENDBRANCH   8  11
ENDBRANCH   2   5
BRANCH   1  24
HETATM   24  C   UNL     1     -41.467  55.959 -52.845  1.00  0.00     0.175 C 
HETATM   25  N   UNL     1     -40.840  55.938 -54.059  1.00  0.00    -0.152 NA
HETATM   26  N   UNL     1     -40.242  54.765 -54.185  1.00  0.00     0.011 NA
HETATM   27  N   UNL     1     -40.578  53.983 -53.119  1.00  0.00    -0.231 N 
HETATM   28  C   UNL     1     -41.207  54.774 -52.182  1.00  0.00     0.174 C 
BRANCH  27  29
HETATM   29  C   UNL     1     -40.304  52.587 -53.163  1.00  0.00     0.058 A 
HETATM   30  C   UNL     1     -39.662  51.989 -52.067  1.00  0.00     0.073 A 
HETATM   31  C   UNL     1     -39.374  50.627 -52.092  1.00  0.00     0.118 A 
HETATM   32  C   UNL     1     -39.693  49.845 -53.194  1.00  0.00     0.042 A 
HETATM   33  F   UNL     1     -38.780  50.062 -51.034  1.00  0.00    -0.206 F 
HETATM   34  C   UNL     1     -40.303  50.436 -54.297  1.00  0.00     0.005 A 
HETATM   35  C   UNL     1     -40.604  51.804 -54.287  1.00  0.00     0.031 A 
ENDBRANCH  27  29
BRANCH  28  36
HETATM   36  C   UNL     1     -41.450  54.408 -50.791  1.00  0.00     0.436 C 
HETATM   37  F   UNL     1     -41.667  53.077 -50.636  1.00  0.00    -0.165 F 
HETATM   38  F   UNL     1     -40.394  54.690 -49.990  1.00  0.00    -0.165 F 
HETATM   39  F   UNL     1     -42.531  55.047 -50.284  1.00  0.00    -0.165 F 
ENDBRANCH  28  36
ENDBRANCH   1  24
TORSDOF 7
ENDMDL
MODEL 9
REMARK VINA RESULT:      -8.1      2.542      3.533
REMARK  7 active torsions:
REMARK  status: ('A' for Active; 'I' for Inactive)
REMARK    1  A    between atoms: C_6  and  N_7 
REMARK    2  A    between atoms: C_10  and  C_11 
REMARK       I    between atoms: C_11  and  N_12 
REMARK    3  A    between atoms: N_12  and  C_13 
REMARK    4  A    between atoms: C_16  and  C_17 
REMARK    5  A    between atoms: C_17  and  N_18 
REMARK    6  A    between atoms: C_21  and  C_22 
REMARK       I    between atoms: C_22  and  N_23 
REMARK    7  A    between atoms: C_31  and  C_32 
ROOT
HETATM    1  C   UNL     1     -44.742  58.523 -51.403  1.00  0.00     0.278 C 
HETATM    2  N   UNL     1     -44.391  59.847 -51.596  1.00  0.00    -0.322 N 
HETATM    3  O   UNL     1     -45.499  58.092 -50.543  1.00  0.00    -0.265 OA
HETATM    4  H   UNL     1     -43.786  60.020 -52.394  1.00  0.00     0.169 HD
ENDROOT
BRANCH   2   5
HETATM    5  C   UNL     1     -44.804  60.962 -50.841  1.00  0.00     0.035 A 
HETATM    6  C   UNL     1     -45.963  61.690 -51.104  1.00  0.00     0.030 A 
HETATM    7  C   UNL     1     -46.308  62.795 -50.318  1.00  0.00     0.011 A 
HETATM    8  C   UNL     1     -45.499  63.192 -49.247  1.00  0.00    -0.032 A 
HETATM    9  C   UNL     1     -44.337  62.460 -48.978  1.00  0.00     0.011 A 
HETATM   10  C   UNL     1     -43.997  61.354 -49.767  1.00  0.00     0.030 A 
BRANCH   8  11
HETATM   11  C   UNL     1     -45.884  64.385 -48.412  1.00  0.00     0.273 C 
BRANCH  11  12
HETATM   12  N   UNL     1     -46.051  64.064 -46.944  1.00  0.00    -0.066 N 
HETATM   13  H   UNL     1     -45.812  63.056 -46.845  1.00  0.00     0.280 HD
HETATM   14  C   UNL     1     -45.053  64.781 -46.061  1.00  0.00     0.249 C 
HETATM   15  C   UNL     1     -45.167  64.300 -44.613  1.00  0.00     0.103 C 
HETATM   16  C   UNL     1     -46.604  64.427 -44.101  1.00  0.00     0.017 C 
HETATM   17  C   UNL     1     -47.615  63.768 -45.043  1.00  0.00     0.029 C 
HETATM   18  C   UNL     1     -47.469  64.246 -46.482  1.00  0.00     0.235 C 
BRANCH  15  19
HETATM   19  C   UNL     1     -44.703  62.857 -44.532  1.00  0.00     0.221 C 
HETATM   20  N   UNL     1     -44.125  62.475 -43.365  1.00  0.00    -0.370 N 
HETATM   21  H   UNL     1     -43.883  63.109 -42.612  1.00  0.00     0.159 HD
HETATM   22  H   UNL     1     -43.799  61.517 -43.281  1.00  0.00     0.159 HD
HETATM   23  O   UNL     1     -44.922  62.062 -45.443  1.00  0.00    -0.273 OA
ENDBRANCH  15  19
ENDBRANCH  11  12
ENDBRANCH   8  11
ENDBRANCH   2   5
BRANCH   1  24
HETATM   24  C   UNL     1     -44.134  57.630 -52.384  1.00  0.00     0.175 C 
HETATM   25  N   UNL     1     -44.754  57.278 -53.550  1.00  0.00    -0.152 NA
HETATM   26  N   UNL     1     -43.951  56.454 -54.202  1.00  0.00     0.011 NA
HETATM   27  N   UNL     1     -42.874  56.174 -53.413  1.00  0.00    -0.231 N 
HETATM   28  C   UNL     1     -42.886  57.037 -52.339  1.00  0.00     0.174 C 
BRANCH  27  29
HETATM   29  C   UNL     1     -42.016  55.092 -53.761  1.00  0.00     0.058 A 
HETATM   30  C   UNL     1     -40.856  55.361 -54.507  1.00  0.00     0.073 A 
HETATM   31  C   UNL     1     -40.009  54.318 -54.867  1.00  0.00     0.118 A 
HETATM   32  C   UNL     1     -40.296  53.005 -54.521  1.00  0.00     0.042 A 
HETATM   33  F   UNL     1     -38.895  54.587 -55.560  1.00  0.00    -0.206 F 
HETATM   34  C   UNL     1     -41.458  52.726 -53.807  1.00  0.00     0.005 A 
HETATM   35  C   UNL     1     -42.321  53.764 -53.432  1.00  0.00     0.031 A 
ENDBRANCH  27  29
BRANCH  28  36
HETATM   36  C   UNL     1     -41.769  57.277 -51.433  1.00  0.00     0.436 C 
HETATM   37  F   UNL     1     -42.054  58.216 -50.496  1.00  0.00    -0.165 F 
HETATM   38  F   UNL     1     -41.425  56.169 -50.732  1.00  0.00    -0.165 F 
HETATM   39  F   UNL     1     -40.666  57.701 -52.095  1.00  0.00    -0.165 F 
ENDBRANCH  28  36
ENDBRANCH   1  24
TORSDOF 7
ENDMDL
MODEL 10
REMARK VINA RESULT:      -8.0      2.320      3.352
REMARK  7 active torsions:
REMARK  status: ('A' for Active; 'I' for Inactive)
REMARK    1  A    between atoms: C_6  and  N_7 
REMARK    2  A    between atoms: C_10  and  C_11 
REMARK       I    between atoms: C_11  and  N_12 
REMARK    3  A    between atoms: N_12  and  C_13 
REMARK    4  A    between atoms: C_16  and  C_17 
REMARK    5  A    between atoms: C_17  and  N_18 
REMARK    6  A    between atoms: C_21  and  C_22 
REMARK       I    between atoms: C_22  and  N_23 
REMARK    7  A    between atoms: C_31  and  C_32 
ROOT
HETATM    1  C   UNL     1     -44.404  58.324 -51.504  1.00  0.00     0.278 C 
HETATM    2  N   UNL     1     -44.170  59.626 -51.909  1.00  0.00    -0.322 N 
HETATM    3  O   UNL     1     -45.008  57.976 -50.498  1.00  0.00    -0.265 OA
HETATM    4  H   UNL     1     -43.691  59.719 -52.801  1.00  0.00     0.169 HD
ENDROOT
BRANCH   2   5
HETATM    5  C   UNL     1     -44.550  60.810 -51.250  1.00  0.00     0.035 A 
HETATM    6  C   UNL     1     -45.862  61.277 -51.188  1.00  0.00     0.030 A 
HETATM    7  C   UNL     1     -46.167  62.469 -50.522  1.00  0.00     0.011 A 
HETATM    8  C   UNL     1     -45.163  63.219 -49.899  1.00  0.00    -0.032 A 
HETATM    9  C   UNL     1     -43.844  62.750 -49.957  1.00  0.00     0.011 A 
HETATM   10  C   UNL     1     -43.545  61.556 -50.623  1.00  0.00     0.030 A 
BRANCH   8  11
HETATM   11  C   UNL     1     -45.508  64.501 -49.189  1.00  0.00     0.273 C 
BRANCH  11  12
HETATM   12  N   UNL     1     -45.635  64.344 -47.691  1.00  0.00    -0.066 N 
HETATM   13  H   UNL     1     -46.409  64.977 -47.404  1.00  0.00     0.280 HD
HETATM   14  C   UNL     1     -46.096  62.964 -47.274  1.00  0.00     0.249 C 
HETATM   15  C   UNL     1     -46.356  62.912 -45.767  1.00  0.00     0.103 C 
HETATM   16  C   UNL     1     -45.132  63.387 -44.979  1.00  0.00     0.017 C 
HETATM   17  C   UNL     1     -44.624  64.747 -45.463  1.00  0.00     0.029 C 
HETATM   18  C   UNL     1     -44.393  64.782 -46.968  1.00  0.00     0.235 C 
BRANCH  15  19
HETATM   19  C   UNL     1     -47.561  63.775 -45.442  1.00  0.00     0.221 C 
HETATM   20  N   UNL     1     -48.532  63.837 -46.388  1.00  0.00    -0.370 N 
HETATM   21  H   UNL     1     -48.446  63.449 -47.321  1.00  0.00     0.159 HD
HETATM   22  H   UNL     1     -49.349  64.409 -46.203  1.00  0.00     0.159 HD
HETATM   23  O   UNL     1     -47.685  64.314 -44.344  1.00  0.00    -0.273 OA
ENDBRANCH  15  19
ENDBRANCH  11  12
ENDBRANCH   8  11
ENDBRANCH   2   5
BRANCH   1  24
HETATM   24  C   UNL     1     -43.876  57.339 -52.442  1.00  0.00     0.175 C 
HETATM   25  N   UNL     1     -44.633  56.779 -53.434  1.00  0.00    -0.152 NA
HETATM   26  N   UNL     1     -43.869  55.923 -54.091  1.00  0.00     0.011 NA
HETATM   27  N   UNL     1     -42.664  55.832 -53.457  1.00  0.00    -0.231 N 
HETATM   28  C   UNL     1     -42.589  56.841 -52.522  1.00  0.00     0.174 C 
BRANCH  27  29
HETATM   29  C   UNL     1     -41.778  54.770 -53.791  1.00  0.00     0.058 A 
HETATM   30  C   UNL     1     -41.553  53.754 -52.848  1.00  0.00     0.073 A 
HETATM   31  C   UNL     1     -40.683  52.710 -53.148  1.00  0.00     0.118 A 
HETATM   32  C   UNL     1     -40.010  52.662 -54.362  1.00  0.00     0.042 A 
HETATM   33  F   UNL     1     -40.491  51.736 -52.250  1.00  0.00    -0.206 F 
HETATM   34  C   UNL     1     -40.205  53.679 -55.291  1.00  0.00     0.005 A 
HETATM   35  C   UNL     1     -41.080  54.735 -55.008  1.00  0.00     0.031 A 
ENDBRANCH  27  29
BRANCH  28  36
HETATM   36  C   UNL     1     -41.372  57.284 -51.850  1.00  0.00     0.436 C 
HETATM   37  F   UNL     1     -40.419  57.696 -52.724  1.00  0.00    -0.165 F 
HETATM   38  F   UNL     1     -41.589  58.346 -51.037  1.00  0.00    -0.165 F 
HETATM   39  F   UNL     1     -40.823  56.299 -51.100  1.00  0.00    -0.165 F 
ENDBRANCH  28  36
ENDBRANCH   1  24
TORSDOF 7
ENDMDL
