MODEL 1
REMARK VINA RESULT:      -8.9      0.000      0.000
REMARK  3 active torsions:
REMARK  status: ('A' for Active; 'I' for Inactive)
REMARK    1  A    between atoms: C_3  and  C_4 
REMARK       I    between atoms: C_4  and  N_5 
REMARK    2  A    between atoms: N_5  and  C_6 
REMARK    3  A    between atoms: C_13  and  C_14 
REMARK       I    between atoms: C_14  and  N_15 
ROOT
HETATM    1  C   UNL     1     -42.621  55.937 -56.479  1.00  0.00     0.035 A 
HETATM    2  C   UNL     1     -43.376  55.648 -57.628  1.00  0.00     0.046 A 
HETATM    3  C   UNL     1     -43.616  56.660 -58.582  1.00  0.00     0.030 A 
HETATM    4  C   UNL     1     -43.100  57.928 -58.354  1.00  0.00     0.063 A 
HETATM    5  N   UNL     1     -43.493  58.677 -59.427  1.00  0.00    -0.277 N 
HETATM    6  H   UNL     1     -43.298  59.658 -59.596  1.00  0.00     0.189 HD
HETATM    7  N   UNL     1     -44.215  58.004 -60.341  1.00  0.00    -0.168 NA
HETATM    8  C   UNL     1     -44.298  56.755 -59.830  1.00  0.00     0.156 A 
HETATM    9  C   UNL     1     -42.348  58.251 -57.222  1.00  0.00     0.034 A 
HETATM   10  C   UNL     1     -42.118  57.227 -56.292  1.00  0.00     0.032 A 
ENDROOT
BRANCH   1  11
HETATM   11  N   UNL     1     -42.420  54.880 -55.572  1.00  0.00    -0.325 N 
HETATM   12  C   UNL     1     -41.272  54.558 -54.869  1.00  0.00     0.252 C 
HETATM   13  O   UNL     1     -40.188  55.132 -54.936  1.00  0.00    -0.270 OA
HETATM   14  H   UNL     1     -43.224  54.290 -55.371  1.00  0.00     0.169 HD
BRANCH  12  15
HETATM   15  C   UNL     1     -41.436  53.300 -54.008  1.00  0.00     0.229 C 
HETATM   16  C   UNL     1     -40.683  53.468 -52.674  1.00  0.00     0.056 C 
HETATM   17  C   UNL     1     -41.571  53.998 -51.559  1.00  0.00     0.018 C 
HETATM   18  C   UNL     1     -40.217  52.067 -52.493  1.00  0.00    -0.018 A 
HETATM   19  C   UNL     1     -40.355  51.384 -53.693  1.00  0.00     0.076 A 
HETATM   20  C   UNL     1     -39.657  51.445 -51.391  1.00  0.00     0.010 A 
HETATM   21  O   UNL     1     -40.906  52.135 -54.696  1.00  0.00    -0.335 OA
HETATM   22  C   UNL     1     -39.947  50.075 -53.844  1.00  0.00     0.037 A 
HETATM   23  C   UNL     1     -39.391  49.433 -52.737  1.00  0.00     0.003 A 
HETATM   24  C   UNL     1     -39.248  50.114 -51.517  1.00  0.00     0.001 A 
ENDBRANCH  12  15
ENDBRANCH   1  11
BRANCH   8  25
HETATM   25  C   UNL     1     -45.015  55.684 -60.536  1.00  0.00     0.270 C 
HETATM   26  N   UNL     1     -46.245  55.394 -60.012  1.00  0.00    -0.365 N 
HETATM   27  H   UNL     1     -46.564  55.920 -59.206  1.00  0.00     0.159 HD
HETATM   28  H   UNL     1     -46.815  54.679 -60.433  1.00  0.00     0.159 HD
HETATM   29  O   UNL     1     -44.579  55.085 -61.513  1.00  0.00    -0.266 OA
ENDBRANCH   8  25
TORSDOF 3
ENDMDL
MODEL 2
REMARK VINA RESULT:      -8.7      1.805      2.619
REMARK  3 active torsions:
REMARK  status: ('A' for Active; 'I' for Inactive)
REMARK    1  A    between atoms: C_3  and  C_4 
REMARK       I    between atoms: C_4  and  N_5 
REMARK    2  A    between atoms: N_5  and  C_6 
REMARK    3  A    between atoms: C_13  and  C_14 
REMARK       I    between atoms: C_14  and  N_15 
ROOT
HETATM    1  C   UNL     1     -43.145  57.176 -56.866  1.00  0.00     0.035 A 
HETATM    2  C   UNL     1     -43.595  56.332 -57.894  1.00  0.00     0.046 A 
HETATM    3  C   UNL     1     -44.441  56.844 -58.900  1.00  0.00     0.030 A 
HETATM    4  C   UNL     1     -44.815  58.179 -58.843  1.00  0.00     0.063 A 
HETATM    5  N   UNL     1     -45.623  58.376 -59.927  1.00  0.00    -0.277 N 
HETATM    6  H   UNL     1     -46.083  59.237 -60.203  1.00  0.00     0.189 HD
HETATM    7  N   UNL     1     -45.802  57.285 -60.694  1.00  0.00    -0.168 NA
HETATM    8  C   UNL     1     -45.077  56.330 -60.069  1.00  0.00     0.156 A 
HETATM    9  C   UNL     1     -44.388  59.045 -57.835  1.00  0.00     0.034 A 
HETATM   10  C   UNL     1     -43.543  58.515 -56.850  1.00  0.00     0.032 A 
ENDROOT
BRANCH   1  11
HETATM   11  N   UNL     1     -42.302  56.599 -55.897  1.00  0.00    -0.325 N 
HETATM   12  C   UNL     1     -42.655  55.984 -54.708  1.00  0.00     0.252 C 
HETATM   13  O   UNL     1     -43.791  55.857 -54.260  1.00  0.00    -0.270 OA
HETATM   14  H   UNL     1     -41.305  56.594 -56.102  1.00  0.00     0.169 HD
BRANCH  12  15
HETATM   15  C   UNL     1     -41.440  55.517 -53.898  1.00  0.00     0.229 C 
HETATM   16  C   UNL     1     -41.182  54.018 -54.145  1.00  0.00     0.056 C 
HETATM   17  C   UNL     1     -40.175  53.769 -55.257  1.00  0.00     0.018 C 
HETATM   18  C   UNL     1     -40.721  53.635 -52.783  1.00  0.00    -0.018 A 
HETATM   19  C   UNL     1     -41.053  54.645 -51.891  1.00  0.00     0.076 A 
HETATM   20  C   UNL     1     -40.117  52.473 -52.337  1.00  0.00     0.010 A 
HETATM   21  O   UNL     1     -41.663  55.722 -52.477  1.00  0.00    -0.335 OA
HETATM   22  C   UNL     1     -40.802  54.541 -50.538  1.00  0.00     0.037 A 
HETATM   23  C   UNL     1     -40.181  53.379 -50.078  1.00  0.00     0.003 A 
HETATM   24  C   UNL     1     -39.840  52.351 -50.972  1.00  0.00     0.001 A 
ENDBRANCH  12  15
ENDBRANCH   1  11
BRANCH   8  25
HETATM   25  C   UNL     1     -44.999  54.960 -60.594  1.00  0.00     0.270 C 
HETATM   26  N   UNL     1     -45.075  53.987 -59.635  1.00  0.00    -0.365 N 
HETATM   27  H   UNL     1     -45.179  54.269 -58.667  1.00  0.00     0.159 HD
HETATM   28  H   UNL     1     -45.039  53.017 -59.900  1.00  0.00     0.159 HD
HETATM   29  O   UNL     1     -44.879  54.678 -61.781  1.00  0.00    -0.266 OA
ENDBRANCH   8  25
TORSDOF 3
ENDMDL
MODEL 3
REMARK VINA RESULT:      -8.6      1.450      1.709
REMARK  3 active torsions:
REMARK  status: ('A' for Active; 'I' for Inactive)
REMARK    1  A    between atoms: C_3  and  C_4 
REMARK       I    between atoms: C_4  and  N_5 
REMARK    2  A    between atoms: N_5  and  C_6 
REMARK    3  A    between atoms: C_13  and  C_14 
REMARK       I    between atoms: C_14  and  N_15 
ROOT
HETATM    1  C   UNL     1     -43.205  56.444 -55.450  1.00  0.00     0.035 A 
HETATM    2  C   UNL     1     -42.969  56.438 -56.834  1.00  0.00     0.046 A 
HETATM    3  C   UNL     1     -43.265  57.585 -57.601  1.00  0.00     0.030 A 
HETATM    4  C   UNL     1     -43.793  58.697 -56.961  1.00  0.00     0.063 A 
HETATM    5  N   UNL     1     -43.975  59.628 -57.944  1.00  0.00    -0.277 N 
HETATM    6  H   UNL     1     -44.349  60.565 -57.841  1.00  0.00     0.189 HD
HETATM    7  N   UNL     1     -43.603  59.222 -59.171  1.00  0.00    -0.168 NA
HETATM    8  C   UNL     1     -43.162  57.959 -58.972  1.00  0.00     0.156 A 
HETATM    9  C   UNL     1     -44.043  58.737 -55.588  1.00  0.00     0.034 A 
HETATM   10  C   UNL     1     -43.734  57.587 -54.846  1.00  0.00     0.032 A 
ENDROOT
BRANCH   1  11
HETATM   11  N   UNL     1     -42.884  55.266 -54.748  1.00  0.00    -0.325 N 
HETATM   12  C   UNL     1     -41.675  54.909 -54.177  1.00  0.00     0.252 C 
HETATM   13  O   UNL     1     -40.632  55.558 -54.207  1.00  0.00    -0.270 OA
HETATM   14  H   UNL     1     -43.639  54.599 -54.605  1.00  0.00     0.169 HD
BRANCH  12  15
HETATM   15  C   UNL     1     -41.710  53.518 -53.534  1.00  0.00     0.229 C 
HETATM   16  C   UNL     1     -40.807  53.487 -52.285  1.00  0.00     0.056 C 
HETATM   17  C   UNL     1     -41.567  53.784 -51.002  1.00  0.00     0.018 C 
HETATM   18  C   UNL     1     -40.295  52.096 -52.404  1.00  0.00    -0.018 A 
HETATM   19  C   UNL     1     -40.561  51.621 -53.681  1.00  0.00     0.076 A 
HETATM   20  C   UNL     1     -39.595  51.319 -51.497  1.00  0.00     0.010 A 
HETATM   21  O   UNL     1     -41.242  52.509 -54.470  1.00  0.00    -0.335 OA
HETATM   22  C   UNL     1     -40.146  50.375 -54.102  1.00  0.00     0.037 A 
HETATM   23  C   UNL     1     -39.451  49.577 -53.193  1.00  0.00     0.003 A 
HETATM   24  C   UNL     1     -39.177  50.047 -51.897  1.00  0.00     0.001 A 
ENDBRANCH  12  15
ENDBRANCH   1  11
BRANCH   8  25
HETATM   25  C   UNL     1     -42.651  57.143 -60.081  1.00  0.00     0.270 C 
HETATM   26  N   UNL     1     -41.307  57.272 -60.300  1.00  0.00    -0.365 N 
HETATM   27  H   UNL     1     -40.777  57.897 -59.702  1.00  0.00     0.159 HD
HETATM   28  H   UNL     1     -40.864  56.745 -61.035  1.00  0.00     0.159 HD
HETATM   29  O   UNL     1     -43.341  56.397 -60.769  1.00  0.00    -0.266 OA
ENDBRANCH   8  25
TORSDOF 3
ENDMDL
MODEL 4
REMARK VINA RESULT:      -8.5      2.931      8.702
REMARK  3 active torsions:
REMARK  status: ('A' for Active; 'I' for Inactive)
REMARK    1  A    between atoms: C_3  and  C_4 
REMARK       I    between atoms: C_4  and  N_5 
REMARK    2  A    between atoms: N_5  and  C_6 
REMARK    3  A    between atoms: C_13  and  C_14 
REMARK       I    between atoms: C_14  and  N_15 
ROOT
HETATM    1  C   UNL     1     -41.311  54.277 -54.514  1.00  0.00     0.035 A 
HETATM    2  C   UNL     1     -41.610  54.487 -53.158  1.00  0.00     0.046 A 
HETATM    3  C   UNL     1     -41.006  53.676 -52.174  1.00  0.00     0.030 A 
HETATM    4  C   UNL     1     -40.129  52.679 -52.576  1.00  0.00     0.063 A 
HETATM    5  N   UNL     1     -39.717  52.071 -51.424  1.00  0.00    -0.277 N 
HETATM    6  H   UNL     1     -39.072  51.293 -51.336  1.00  0.00     0.189 HD
HETATM    7  N   UNL     1     -40.244  52.593 -50.301  1.00  0.00    -0.168 NA
HETATM    8  C   UNL     1     -41.043  53.586 -50.752  1.00  0.00     0.156 A 
HETATM    9  C   UNL     1     -39.812  52.441 -53.915  1.00  0.00     0.034 A 
HETATM   10  C   UNL     1     -40.419  53.264 -54.874  1.00  0.00     0.032 A 
ENDROOT
BRANCH   1  11
HETATM   11  N   UNL     1     -41.948  55.125 -55.440  1.00  0.00    -0.325 N 
HETATM   12  C   UNL     1     -43.036  54.849 -56.250  1.00  0.00     0.252 C 
HETATM   13  O   UNL     1     -43.636  53.780 -56.329  1.00  0.00    -0.270 OA
HETATM   14  H   UNL     1     -41.595  56.077 -55.507  1.00  0.00     0.169 HD
BRANCH  12  15
HETATM   15  C   UNL     1     -43.412  56.024 -57.160  1.00  0.00     0.229 C 
HETATM   16  C   UNL     1     -42.993  55.725 -58.613  1.00  0.00     0.056 C 
HETATM   17  C   UNL     1     -44.113  55.104 -59.433  1.00  0.00     0.018 C 
HETATM   18  C   UNL     1     -42.597  57.097 -59.027  1.00  0.00    -0.018 A 
HETATM   19  C   UNL     1     -42.455  57.889 -57.897  1.00  0.00     0.076 A 
HETATM   20  C   UNL     1     -42.319  57.608 -60.283  1.00  0.00     0.010 A 
HETATM   21  O   UNL     1     -42.746  57.240 -56.727  1.00  0.00    -0.335 OA
HETATM   22  C   UNL     1     -42.036  59.202 -57.968  1.00  0.00     0.037 A 
HETATM   23  C   UNL     1     -41.764  59.732 -59.230  1.00  0.00     0.003 A 
HETATM   24  C   UNL     1     -41.906  58.939 -60.381  1.00  0.00     0.001 A 
ENDBRANCH  12  15
ENDBRANCH   1  11
BRANCH   8  25
HETATM   25  C   UNL     1     -41.816  54.426 -49.827  1.00  0.00     0.270 C 
HETATM   26  N   UNL     1     -41.101  54.886 -48.756  1.00  0.00    -0.365 N 
HETATM   27  H   UNL     1     -40.123  54.627 -48.679  1.00  0.00     0.159 HD
HETATM   28  H   UNL     1     -41.544  55.476 -48.071  1.00  0.00     0.159 HD
HETATM   29  O   UNL     1     -43.000  54.711 -49.974  1.00  0.00    -0.266 OA
ENDBRANCH   8  25
TORSDOF 3
ENDMDL
MODEL 5
REMARK VINA RESULT:      -8.4      2.848      8.303
REMARK  3 active torsions:
REMARK  status: ('A' for Active; 'I' for Inactive)
REMARK    1  A    between atoms: C_3  and  C_4 
REMARK       I    between atoms: C_4  and  N_5 
REMARK    2  A    between atoms: N_5  and  C_6 
REMARK    3  A    between atoms: C_13  and  C_14 
REMARK       I    between atoms: C_14  and  N_15 
ROOT
HETATM    1  C   UNL     1     -41.718  54.789 -55.290  1.00  0.00     0.035 A 
HETATM    2  C   UNL     1     -42.405  54.924 -54.073  1.00  0.00     0.046 A 
HETATM    3  C   UNL     1     -41.919  54.276 -52.918  1.00  0.00     0.030 A 
HETATM    4  C   UNL     1     -40.767  53.508 -53.018  1.00  0.00     0.063 A 
HETATM    5  N   UNL     1     -40.551  53.013 -51.764  1.00  0.00    -0.277 N 
HETATM    6  H   UNL     1     -39.796  52.405 -51.465  1.00  0.00     0.189 HD
HETATM    7  N   UNL     1     -41.460  53.399 -50.849  1.00  0.00    -0.168 NA
HETATM    8  C   UNL     1     -42.311  54.180 -51.551  1.00  0.00     0.156 A 
HETATM    9  C   UNL     1     -40.061  53.350 -54.213  1.00  0.00     0.034 A 
HETATM   10  C   UNL     1     -40.560  54.010 -55.345  1.00  0.00     0.032 A 
ENDROOT
BRANCH   1  11
HETATM   11  N   UNL     1     -42.259  55.466 -56.400  1.00  0.00    -0.325 N 
HETATM   12  C   UNL     1     -42.397  56.830 -56.591  1.00  0.00     0.252 C 
HETATM   13  O   UNL     1     -42.094  57.714 -55.794  1.00  0.00    -0.270 OA
HETATM   14  H   UNL     1     -42.558  54.892 -57.185  1.00  0.00     0.169 HD
BRANCH  12  15
HETATM   15  C   UNL     1     -43.077  57.178 -57.920  1.00  0.00     0.229 C 
HETATM   16  C   UNL     1     -44.517  57.667 -57.668  1.00  0.00     0.056 C 
HETATM   17  C   UNL     1     -44.612  59.180 -57.553  1.00  0.00     0.018 C 
HETATM   18  C   UNL     1     -45.172  57.085 -58.870  1.00  0.00    -0.018 A 
HETATM   19  C   UNL     1     -44.329  56.139 -59.434  1.00  0.00     0.076 A 
HETATM   20  C   UNL     1     -46.431  57.311 -59.399  1.00  0.00     0.010 A 
HETATM   21  O   UNL     1     -43.128  56.014 -58.789  1.00  0.00    -0.335 OA
HETATM   22  C   UNL     1     -44.698  55.389 -60.532  1.00  0.00     0.037 A 
HETATM   23  C   UNL     1     -45.959  55.616 -61.083  1.00  0.00     0.003 A 
HETATM   24  C   UNL     1     -46.821  56.572 -60.520  1.00  0.00     0.001 A 
ENDBRANCH  12  15
ENDBRANCH   1  11
BRANCH   8  25
HETATM   25  C   UNL     1     -43.469  54.818 -50.911  1.00  0.00     0.270 C 
HETATM   26  N   UNL     1     -44.518  53.971 -50.676  1.00  0.00    -0.365 N 
HETATM   27  H   UNL     1     -44.425  52.999 -50.948  1.00  0.00     0.159 HD
HETATM   28  H   UNL     1     -45.353  54.316 -50.234  1.00  0.00     0.159 HD
HETATM   29  O   UNL     1     -43.524  56.003 -50.598  1.00  0.00    -0.266 OA
ENDBRANCH   8  25
TORSDOF 3
ENDMDL
MODEL 6
REMARK VINA RESULT:      -8.4      3.478      4.267
REMARK  3 active torsions:
REMARK  status: ('A' for Active; 'I' for Inactive)
REMARK    1  A    between atoms: C_3  and  C_4 
REMARK       I    between atoms: C_4  and  N_5 
REMARK    2  A    between atoms: N_5  and  C_6 
REMARK    3  A    between atoms: C_13  and  C_14 
REMARK       I    between atoms: C_14  and  N_15 
ROOT
HETATM    1  C   UNL     1     -42.411  57.202 -52.737  1.00  0.00     0.035 A 
HETATM    2  C   UNL     1     -43.219  57.493 -53.848  1.00  0.00     0.046 A 
HETATM    3  C   UNL     1     -44.084  58.608 -53.812  1.00  0.00     0.030 A 
HETATM    4  C   UNL     1     -44.117  59.390 -52.666  1.00  0.00     0.063 A 
HETATM    5  N   UNL     1     -45.032  60.371 -52.923  1.00  0.00    -0.277 N 
HETATM    6  H   UNL     1     -45.317  61.123 -52.305  1.00  0.00     0.189 HD
HETATM    7  N   UNL     1     -45.594  60.303 -54.144  1.00  0.00    -0.168 NA
HETATM    8  C   UNL     1     -45.015  59.216 -54.703  1.00  0.00     0.156 A 
HETATM    9  C   UNL     1     -43.329  59.127 -51.543  1.00  0.00     0.034 A 
HETATM   10  C   UNL     1     -42.474  58.018 -51.605  1.00  0.00     0.032 A 
ENDROOT
BRANCH   1  11
HETATM   11  N   UNL     1     -41.572  56.076 -52.844  1.00  0.00    -0.325 N 
HETATM   12  C   UNL     1     -41.723  54.833 -52.254  1.00  0.00     0.252 C 
HETATM   13  O   UNL     1     -42.621  54.491 -51.489  1.00  0.00    -0.270 OA
HETATM   14  H   UNL     1     -40.766  56.163 -53.460  1.00  0.00     0.169 HD
BRANCH  12  15
HETATM   15  C   UNL     1     -40.569  53.878 -52.580  1.00  0.00     0.229 C 
HETATM   16  C   UNL     1     -40.815  53.190 -53.936  1.00  0.00     0.056 C 
HETATM   17  C   UNL     1     -40.156  53.921 -55.095  1.00  0.00     0.018 C 
HETATM   18  C   UNL     1     -40.238  51.854 -53.627  1.00  0.00    -0.018 A 
HETATM   19  C   UNL     1     -40.082  51.734 -52.254  1.00  0.00     0.076 A 
HETATM   20  C   UNL     1     -39.930  50.797 -54.465  1.00  0.00     0.010 A 
HETATM   21  O   UNL     1     -40.448  52.853 -51.556  1.00  0.00    -0.335 OA
HETATM   22  C   UNL     1     -39.621  50.574 -51.666  1.00  0.00     0.037 A 
HETATM   23  C   UNL     1     -39.295  49.505 -52.501  1.00  0.00     0.003 A 
HETATM   24  C   UNL     1     -39.447  49.616 -53.893  1.00  0.00     0.001 A 
ENDBRANCH  12  15
ENDBRANCH   1  11
BRANCH   8  25
HETATM   25  C   UNL     1     -45.355  58.783 -56.066  1.00  0.00     0.270 C 
HETATM   26  N   UNL     1     -46.383  57.883 -56.128  1.00  0.00    -0.365 N 
HETATM   27  H   UNL     1     -46.824  57.591 -55.263  1.00  0.00     0.159 HD
HETATM   28  H   UNL     1     -46.693  57.534 -57.020  1.00  0.00     0.159 HD
HETATM   29  O   UNL     1     -44.789  59.176 -57.080  1.00  0.00    -0.266 OA
ENDBRANCH   8  25
TORSDOF 3
ENDMDL
MODEL 7
REMARK VINA RESULT:      -8.4      2.559      8.227
REMARK  3 active torsions:
REMARK  status: ('A' for Active; 'I' for Inactive)
REMARK    1  A    between atoms: C_3  and  C_4 
REMARK       I    between atoms: C_4  and  N_5 
REMARK    2  A    between atoms: N_5  and  C_6 
REMARK    3  A    between atoms: C_13  and  C_14 
REMARK       I    between atoms: C_14  and  N_15 
ROOT
HETATM    1  C   UNL     1     -41.244  54.642 -54.604  1.00  0.00     0.035 A 
HETATM    2  C   UNL     1     -40.896  53.283 -54.675  1.00  0.00     0.046 A 
HETATM    3  C   UNL     1     -40.428  52.618 -53.522  1.00  0.00     0.030 A 
HETATM    4  C   UNL     1     -40.315  53.334 -52.338  1.00  0.00     0.063 A 
HETATM    5  N   UNL     1     -39.841  52.441 -51.419  1.00  0.00    -0.277 N 
HETATM    6  H   UNL     1     -39.634  52.617 -50.442  1.00  0.00     0.189 HD
HETATM    7  N   UNL     1     -39.642  51.200 -51.899  1.00  0.00    -0.168 NA
HETATM    8  C   UNL     1     -40.001  51.297 -53.199  1.00  0.00     0.156 A 
HETATM    9  C   UNL     1     -40.649  54.685 -52.233  1.00  0.00     0.034 A 
HETATM   10  C   UNL     1     -41.119  55.322 -53.390  1.00  0.00     0.032 A 
ENDROOT
BRANCH   1  11
HETATM   11  N   UNL     1     -41.706  55.239 -55.792  1.00  0.00    -0.325 N 
HETATM   12  C   UNL     1     -42.358  56.450 -55.948  1.00  0.00     0.252 C 
HETATM   13  O   UNL     1     -42.686  57.224 -55.052  1.00  0.00    -0.270 OA
HETATM   14  H   UNL     1     -41.510  54.744 -56.659  1.00  0.00     0.169 HD
BRANCH  12  15
HETATM   15  C   UNL     1     -42.741  56.735 -57.404  1.00  0.00     0.229 C 
HETATM   16  C   UNL     1     -44.081  57.494 -57.462  1.00  0.00     0.056 C 
HETATM   17  C   UNL     1     -43.901  59.003 -57.515  1.00  0.00     0.018 C 
HETATM   18  C   UNL     1     -44.639  56.884 -58.699  1.00  0.00    -0.018 A 
HETATM   19  C   UNL     1     -43.916  55.742 -59.009  1.00  0.00     0.076 A 
HETATM   20  C   UNL     1     -45.732  57.254 -59.464  1.00  0.00     0.010 A 
HETATM   21  O   UNL     1     -42.878  55.496 -58.150  1.00  0.00    -0.335 OA
HETATM   22  C   UNL     1     -44.243  54.931 -60.076  1.00  0.00     0.037 A 
HETATM   23  C   UNL     1     -45.335  55.300 -60.863  1.00  0.00     0.003 A 
HETATM   24  C   UNL     1     -46.075  56.455 -60.559  1.00  0.00     0.001 A 
ENDBRANCH  12  15
ENDBRANCH   1  11
BRANCH   8  25
HETATM   25  C   UNL     1     -39.936  50.138 -54.100  1.00  0.00     0.270 C 
HETATM   26  N   UNL     1     -41.127  49.822 -54.694  1.00  0.00    -0.365 N 
HETATM   27  H   UNL     1     -41.940  50.389 -54.480  1.00  0.00     0.159 HD
HETATM   28  H   UNL     1     -41.180  49.047 -55.334  1.00  0.00     0.159 HD
HETATM   29  O   UNL     1     -38.918  49.491 -54.325  1.00  0.00    -0.266 OA
ENDBRANCH   8  25
TORSDOF 3
ENDMDL
MODEL 8
REMARK VINA RESULT:      -8.4      5.432      6.881
REMARK  3 active torsions:
REMARK  status: ('A' for Active; 'I' for Inactive)
REMARK    1  A    between atoms: C_3  and  C_4 
REMARK       I    between atoms: C_4  and  N_5 
REMARK    2  A    between atoms: N_5  and  C_6 
REMARK    3  A    between atoms: C_13  and  C_14 
REMARK       I    between atoms: C_14  and  N_15 
ROOT
HETATM    1  C   UNL     1     -44.563  57.900 -52.295  1.00  0.00     0.035 A 
HETATM    2  C   UNL     1     -44.742  58.527 -51.051  1.00  0.00     0.046 A 
HETATM    3  C   UNL     1     -45.308  59.818 -50.993  1.00  0.00     0.030 A 
HETATM    4  C   UNL     1     -45.670  60.443 -52.178  1.00  0.00     0.063 A 
HETATM    5  N   UNL     1     -46.174  61.658 -51.808  1.00  0.00    -0.277 N 
HETATM    6  H   UNL     1     -46.534  62.385 -52.417  1.00  0.00     0.189 HD
HETATM    7  N   UNL     1     -46.181  61.877 -50.481  1.00  0.00    -0.168 NA
HETATM    8  C   UNL     1     -45.648  60.746 -49.965  1.00  0.00     0.156 A 
HETATM    9  C   UNL     1     -45.503  59.850 -53.431  1.00  0.00     0.034 A 
HETATM   10  C   UNL     1     -44.945  58.564 -53.463  1.00  0.00     0.032 A 
ENDROOT
BRANCH   1  11
HETATM   11  N   UNL     1     -43.995  56.612 -52.278  1.00  0.00    -0.325 N 
HETATM   12  C   UNL     1     -42.779  56.202 -52.797  1.00  0.00     0.252 C 
HETATM   13  O   UNL     1     -41.973  56.899 -53.408  1.00  0.00    -0.270 OA
HETATM   14  H   UNL     1     -44.519  55.887 -51.792  1.00  0.00     0.169 HD
BRANCH  12  15
HETATM   15  C   UNL     1     -42.532  54.700 -52.616  1.00  0.00     0.229 C 
HETATM   16  C   UNL     1     -41.441  54.465 -51.554  1.00  0.00     0.056 C 
HETATM   17  C   UNL     1     -42.012  54.246 -50.162  1.00  0.00     0.018 C 
HETATM   18  C   UNL     1     -40.784  53.275 -52.157  1.00  0.00    -0.018 A 
HETATM   19  C   UNL     1     -41.192  53.150 -53.477  1.00  0.00     0.076 A 
HETATM   20  C   UNL     1     -39.852  52.401 -51.624  1.00  0.00     0.010 A 
HETATM   21  O   UNL     1     -42.100  54.098 -53.867  1.00  0.00    -0.335 OA
HETATM   22  C   UNL     1     -40.698  52.167 -54.309  1.00  0.00     0.037 A 
HETATM   23  C   UNL     1     -39.768  51.272 -53.780  1.00  0.00     0.003 A 
HETATM   24  C   UNL     1     -39.348  51.388 -52.444  1.00  0.00     0.001 A 
ENDBRANCH  12  15
ENDBRANCH   1  11
BRANCH   8  25
HETATM   25  C   UNL     1     -45.477  60.571 -48.516  1.00  0.00     0.270 C 
HETATM   26  N   UNL     1     -44.371  61.191 -48.003  1.00  0.00    -0.365 N 
HETATM   27  H   UNL     1     -43.771  61.711 -48.634  1.00  0.00     0.159 HD
HETATM   28  H   UNL     1     -44.175  61.134 -47.018  1.00  0.00     0.159 HD
HETATM   29  O   UNL     1     -46.242  59.933 -47.800  1.00  0.00    -0.266 OA
ENDBRANCH   8  25
TORSDOF 3
ENDMDL
MODEL 9
REMARK VINA RESULT:      -8.3      2.387      3.678
REMARK  3 active torsions:
REMARK  status: ('A' for Active; 'I' for Inactive)
REMARK    1  A    between atoms: C_3  and  C_4 
REMARK       I    between atoms: C_4  and  N_5 
REMARK    2  A    between atoms: N_5  and  C_6 
REMARK    3  A    between atoms: C_13  and  C_14 
REMARK       I    between atoms: C_14  and  N_15 
ROOT
HETATM    1  C   UNL     1     -43.088  56.226 -57.785  1.00  0.00     0.035 A 
HETATM    2  C   UNL     1     -44.080  57.207 -57.621  1.00  0.00     0.046 A 
HETATM    3  C   UNL     1     -44.918  57.544 -58.705  1.00  0.00     0.030 A 
HETATM    4  C   UNL     1     -44.734  56.895 -59.918  1.00  0.00     0.063 A 
HETATM    5  N   UNL     1     -45.671  57.425 -60.759  1.00  0.00    -0.277 N 
HETATM    6  H   UNL     1     -45.827  57.188 -61.733  1.00  0.00     0.189 HD
HETATM    7  N   UNL     1     -46.458  58.360 -60.196  1.00  0.00    -0.168 NA
HETATM    8  C   UNL     1     -46.002  58.442 -58.926  1.00  0.00     0.156 A 
HETATM    9  C   UNL     1     -43.756  55.918 -60.116  1.00  0.00     0.034 A 
HETATM   10  C   UNL     1     -42.940  55.596 -59.022  1.00  0.00     0.032 A 
ENDROOT
BRANCH   1  11
HETATM   11  N   UNL     1     -42.291  55.940 -56.661  1.00  0.00    -0.325 N 
HETATM   12  C   UNL     1     -42.425  54.903 -55.753  1.00  0.00     0.252 C 
HETATM   13  O   UNL     1     -43.304  54.045 -55.749  1.00  0.00    -0.270 OA
HETATM   14  H   UNL     1     -41.487  56.545 -56.503  1.00  0.00     0.169 HD
BRANCH  12  15
HETATM   15  C   UNL     1     -41.380  54.955 -54.633  1.00  0.00     0.229 C 
HETATM   16  C   UNL     1     -41.306  53.595 -53.913  1.00  0.00     0.056 C 
HETATM   17  C   UNL     1     -40.229  52.685 -54.483  1.00  0.00     0.018 C 
HETATM   18  C   UNL     1     -41.051  54.079 -52.530  1.00  0.00    -0.018 A 
HETATM   19  C   UNL     1     -41.334  55.436 -52.463  1.00  0.00     0.076 A 
HETATM   20  C   UNL     1     -40.663  53.386 -51.396  1.00  0.00     0.010 A 
HETATM   21  O   UNL     1     -41.724  55.978 -53.659  1.00  0.00    -0.335 OA
HETATM   22  C   UNL     1     -41.246  56.148 -51.285  1.00  0.00     0.037 A 
HETATM   23  C   UNL     1     -40.844  55.463 -50.138  1.00  0.00     0.003 A 
HETATM   24  C   UNL     1     -40.554  54.090 -50.194  1.00  0.00     0.001 A 
ENDBRANCH  12  15
ENDBRANCH   1  11
BRANCH   8  25
HETATM   25  C   UNL     1     -46.606  59.364 -57.954  1.00  0.00     0.270 C 
HETATM   26  N   UNL     1     -47.755  58.897 -57.378  1.00  0.00    -0.365 N 
HETATM   27  H   UNL     1     -48.096  57.981 -57.649  1.00  0.00     0.159 HD
HETATM   28  H   UNL     1     -48.237  59.455 -56.693  1.00  0.00     0.159 HD
HETATM   29  O   UNL     1     -46.145  60.461 -57.659  1.00  0.00    -0.266 OA
ENDBRANCH   8  25
TORSDOF 3
ENDMDL
MODEL 10
REMARK VINA RESULT:      -8.2      2.145      3.309
REMARK  3 active torsions:
REMARK  status: ('A' for Active; 'I' for Inactive)
REMARK    1  A    between atoms: C_3  and  C_4 
REMARK       I    between atoms: C_4  and  N_5 
REMARK    2  A    between atoms: N_5  and  C_6 
REMARK    3  A    between atoms: C_13  and  C_14 
REMARK       I    between atoms: C_14  and  N_15 
ROOT
HETATM    1  C   UNL     1     -43.256  57.081 -55.496  1.00  0.00     0.035 A 
HETATM    2  C   UNL     1     -42.817  57.041 -56.829  1.00  0.00     0.046 A 
HETATM    3  C   UNL     1     -43.622  57.594 -57.848  1.00  0.00     0.030 A 
HETATM    4  C   UNL     1     -44.839  58.162 -57.503  1.00  0.00     0.063 A 
HETATM    5  N   UNL     1     -45.381  58.599 -58.679  1.00  0.00    -0.277 N 
HETATM    6  H   UNL     1     -46.273  59.065 -58.809  1.00  0.00     0.189 HD
HETATM    7  N   UNL     1     -44.617  58.373 -59.763  1.00  0.00    -0.168 NA
HETATM    8  C   UNL     1     -43.526  57.751 -59.262  1.00  0.00     0.156 A 
HETATM    9  C   UNL     1     -45.307  58.217 -56.189  1.00  0.00     0.034 A 
HETATM   10  C   UNL     1     -44.488  57.667 -55.193  1.00  0.00     0.032 A 
ENDROOT
BRANCH   1  11
HETATM   11  N   UNL     1     -42.402  56.513 -54.532  1.00  0.00    -0.325 N 
HETATM   12  C   UNL     1     -42.480  55.261 -53.946  1.00  0.00     0.252 C 
HETATM   13  O   UNL     1     -43.347  54.414 -54.145  1.00  0.00    -0.270 OA
HETATM   14  H   UNL     1     -41.599  57.070 -54.246  1.00  0.00     0.169 HD
BRANCH  12  15
HETATM   15  C   UNL     1     -41.382  55.025 -52.902  1.00  0.00     0.229 C 
HETATM   16  C   UNL     1     -41.283  53.524 -52.567  1.00  0.00     0.056 C 
HETATM   17  C   UNL     1     -40.240  52.802 -53.406  1.00  0.00     0.018 C 
HETATM   18  C   UNL     1     -40.960  53.631 -51.119  1.00  0.00    -0.018 A 
HETATM   19  C   UNL     1     -41.231  54.921 -50.687  1.00  0.00     0.076 A 
HETATM   20  C   UNL     1     -40.523  52.668 -50.226  1.00  0.00     0.010 A 
HETATM   21  O   UNL     1     -41.673  55.755 -51.679  1.00  0.00    -0.335 OA
HETATM   22  C   UNL     1     -41.083  55.301 -49.369  1.00  0.00     0.037 A 
HETATM   23  C   UNL     1     -40.631  54.342 -48.461  1.00  0.00     0.003 A 
HETATM   24  C   UNL     1     -40.352  53.033 -48.888  1.00  0.00     0.001 A 
ENDBRANCH  12  15
ENDBRANCH   1  11
BRANCH   8  25
HETATM   25  C   UNL     1     -42.420  57.326 -60.131  1.00  0.00     0.270 C 
HETATM   26  N   UNL     1     -41.735  58.358 -60.712  1.00  0.00    -0.365 N 
HETATM   27  H   UNL     1     -42.026  59.308 -60.508  1.00  0.00     0.159 HD
HETATM   28  H   UNL     1     -40.956  58.166 -61.319  1.00  0.00     0.159 HD
HETATM   29  O   UNL     1     -42.109  56.158 -60.338  1.00  0.00    -0.266 OA
ENDBRANCH   8  25
TORSDOF 3
ENDMDL
