MODEL 1
REMARK VINA RESULT:      -8.5      0.000      0.000
REMARK  8 active torsions:
REMARK  status: ('A' for Active; 'I' for Inactive)
REMARK    1  A    between atoms: C_2  and  N_3 
REMARK    2  A    between atoms: C_2  and  C_36 
REMARK       I    between atoms: N_3  and  C_4 
REMARK    3  A    between atoms: C_4  and  C_5 
REMARK    4  A    between atoms: C_5  and  N_6 
REMARK       I    between atoms: N_12  and  C_13 
REMARK    5  A    between atoms: C_13  and  C_14 
REMARK    6  A    between atoms: C_15  and  O_16 
REMARK    7  A    between atoms: C_21  and  O_22 
REMARK    8  A    between atoms: N_27  and  C_28 
ROOT
HETATM    1  N   UNL     1     -43.950  56.972 -52.602  1.00  0.00    -0.325 N 
HETATM    2  C   UNL     1     -44.111  56.964 -53.971  1.00  0.00     0.250 C 
HETATM    3  O   UNL     1     -43.868  56.019 -54.705  1.00  0.00    -0.270 OA
HETATM    4  C   UNL     1     -44.503  58.394 -54.390  1.00  0.00     0.118 C 
HETATM    5  C   UNL     1     -45.656  58.334 -55.407  1.00  0.00     0.061 C 
HETATM    6  C   UNL     1     -45.176  58.100 -56.835  1.00  0.00     0.129 C 
HETATM    7  N   UNL     1     -44.018  58.921 -57.152  1.00  0.00    -0.348 N 
HETATM    8  C   UNL     1     -44.193  60.100 -57.886  1.00  0.00     0.259 C 
HETATM    9  O   UNL     1     -45.296  60.550 -58.184  1.00  0.00    -0.267 OA
HETATM   10  C   UNL     1     -42.857  58.647 -56.319  1.00  0.00     0.129 C 
HETATM   11  C   UNL     1     -43.180  59.033 -54.878  1.00  0.00     0.061 C 
HETATM   12  N   UNL     1     -44.927  58.977 -53.081  1.00  0.00    -0.346 N 
HETATM   13  C   UNL     1     -44.461  58.153 -51.974  1.00  0.00     0.254 C 
ENDROOT
BRANCH  12  14
HETATM   14  C   UNL     1     -45.421  60.249 -52.849  1.00  0.00     0.032 A 
HETATM   15  C   UNL     1     -46.595  60.499 -52.120  1.00  0.00     0.029 A 
HETATM   16  C   UNL     1     -47.072  61.796 -51.873  1.00  0.00     0.002 A 
HETATM   17  C   UNL     1     -46.377  62.897 -52.350  1.00  0.00     0.000 A 
HETATM   18  C   UNL     1     -45.210  62.697 -53.071  1.00  0.00     0.002 A 
HETATM   19  C   UNL     1     -44.745  61.395 -53.313  1.00  0.00     0.029 A 
ENDBRANCH  12  14
BRANCH   1  20
HETATM   20  C   UNL     1     -43.195  55.981 -51.856  1.00  0.00     0.230 C 
BRANCH  20  21
HETATM   21  C   UNL     1     -41.810  55.648 -52.404  1.00  0.00     0.236 C 
HETATM   22  N   UNL     1     -41.654  54.340 -52.805  1.00  0.00    -0.351 N 
HETATM   23  H   UNL     1     -42.508  53.796 -52.835  1.00  0.00     0.163 HD
HETATM   24  O   UNL     1     -40.976  56.532 -52.578  1.00  0.00    -0.272 OA
BRANCH  22  25
HETATM   25  C   UNL     1     -40.584  53.875 -53.680  1.00  0.00     0.113 C 
HETATM   26  C   UNL     1     -40.774  54.193 -55.165  1.00  0.00     0.037 C 
BRANCH  25  27
HETATM   27  C   UNL     1     -40.265  52.417 -53.394  1.00  0.00    -0.036 A 
HETATM   28  C   UNL     1     -40.376  51.462 -54.419  1.00  0.00     0.009 A 
HETATM   29  C   UNL     1     -40.049  50.125 -54.191  1.00  0.00     0.001 A 
HETATM   30  C   UNL     1     -39.598  49.720 -52.937  1.00  0.00     0.000 A 
HETATM   31  C   UNL     1     -39.472  50.654 -51.912  1.00  0.00     0.001 A 
HETATM   32  C   UNL     1     -39.802  51.992 -52.137  1.00  0.00     0.009 A 
ENDBRANCH  25  27
ENDBRANCH  22  25
ENDBRANCH  20  21
ENDBRANCH   1  20
BRANCH   8  33
HETATM   33  C   UNL     1     -42.987  60.767 -58.434  1.00  0.00     0.098 A 
HETATM   34  C   UNL     1     -42.433  61.832 -57.704  1.00  0.00     0.086 A 
HETATM   35  C   UNL     1     -41.300  62.495 -58.176  1.00  0.00     0.038 A 
HETATM   36  C   UNL     1     -40.733  62.117 -59.389  1.00  0.00     0.005 A 
HETATM   37  C   UNL     1     -41.273  61.051 -60.116  1.00  0.00     0.038 A 
HETATM   38  C   UNL     1     -42.394  60.355 -59.640  1.00  0.00     0.086 A 
BRANCH  34  39
HETATM   39  O   UNL     1     -42.905  62.179 -56.465  1.00  0.00    -0.355 OA
HETATM   40  C   UNL     1     -43.350  63.533 -56.443  1.00  0.00     0.210 C 
ENDBRANCH  34  39
BRANCH  38  41
HETATM   41  O   UNL     1     -42.958  59.283 -60.280  1.00  0.00    -0.355 OA
HETATM   42  C   UNL     1     -42.189  58.089 -60.375  1.00  0.00     0.210 C 
ENDBRANCH  38  41
ENDBRANCH   8  33
TORSDOF 8
ENDMDL
MODEL 2
REMARK VINA RESULT:      -8.4      0.356      2.016
REMARK  8 active torsions:
REMARK  status: ('A' for Active; 'I' for Inactive)
REMARK    1  A    between atoms: C_2  and  N_3 
REMARK    2  A    between atoms: C_2  and  C_36 
REMARK       I    between atoms: N_3  and  C_4 
REMARK    3  A    between atoms: C_4  and  C_5 
REMARK    4  A    between atoms: C_5  and  N_6 
REMARK       I    between atoms: N_12  and  C_13 
REMARK    5  A    between atoms: C_13  and  C_14 
REMARK    6  A    between atoms: C_15  and  O_16 
REMARK    7  A    between atoms: C_21  and  O_22 
REMARK    8  A    between atoms: N_27  and  C_28 
ROOT
HETATM    1  N   UNL     1     -43.961  56.904 -52.618  1.00  0.00    -0.325 N 
HETATM    2  C   UNL     1     -44.039  56.903 -53.994  1.00  0.00     0.250 C 
HETATM    3  O   UNL     1     -43.682  55.990 -54.722  1.00  0.00    -0.270 OA
HETATM    4  C   UNL     1     -44.512  58.306 -54.421  1.00  0.00     0.118 C 
HETATM    5  C   UNL     1     -45.594  58.176 -55.507  1.00  0.00     0.061 C 
HETATM    6  C   UNL     1     -45.014  57.999 -56.906  1.00  0.00     0.129 C 
HETATM    7  N   UNL     1     -43.903  58.909 -57.143  1.00  0.00    -0.348 N 
HETATM    8  C   UNL     1     -44.123  60.083 -57.874  1.00  0.00     0.259 C 
HETATM    9  O   UNL     1     -45.237  60.454 -58.234  1.00  0.00    -0.267 OA
HETATM   10  C   UNL     1     -42.777  58.711 -56.244  1.00  0.00     0.129 C 
HETATM   11  C   UNL     1     -43.214  59.050 -54.821  1.00  0.00     0.061 C 
HETATM   12  N   UNL     1     -45.056  58.837 -53.135  1.00  0.00    -0.346 N 
HETATM   13  C   UNL     1     -44.596  58.034 -52.010  1.00  0.00     0.254 C 
ENDROOT
BRANCH  12  14
HETATM   14  C   UNL     1     -45.657  60.065 -52.920  1.00  0.00     0.032 A 
HETATM   15  C   UNL     1     -46.190  60.457 -51.680  1.00  0.00     0.029 A 
HETATM   16  C   UNL     1     -46.777  61.714 -51.471  1.00  0.00     0.002 A 
HETATM   17  C   UNL     1     -46.845  62.633 -52.507  1.00  0.00     0.000 A 
HETATM   18  C   UNL     1     -46.328  62.290 -53.747  1.00  0.00     0.002 A 
HETATM   19  C   UNL     1     -45.746  61.028 -53.944  1.00  0.00     0.029 A 
ENDBRANCH  12  14
BRANCH   1  20
HETATM   20  C   UNL     1     -43.180  55.961 -51.837  1.00  0.00     0.230 C 
BRANCH  20  21
HETATM   21  C   UNL     1     -41.791  55.637 -52.382  1.00  0.00     0.236 C 
HETATM   22  N   UNL     1     -41.620  54.327 -52.767  1.00  0.00    -0.351 N 
HETATM   23  H   UNL     1     -42.468  53.772 -52.792  1.00  0.00     0.163 HD
HETATM   24  O   UNL     1     -40.966  56.528 -52.565  1.00  0.00    -0.272 OA
BRANCH  22  25
HETATM   25  C   UNL     1     -40.545  53.863 -53.637  1.00  0.00     0.113 C 
HETATM   26  C   UNL     1     -40.715  54.203 -55.120  1.00  0.00     0.037 C 
BRANCH  25  27
HETATM   27  C   UNL     1     -40.242  52.398 -53.367  1.00  0.00    -0.036 A 
HETATM   28  C   UNL     1     -40.364  51.457 -54.402  1.00  0.00     0.009 A 
HETATM   29  C   UNL     1     -40.053  50.113 -54.189  1.00  0.00     0.001 A 
HETATM   30  C   UNL     1     -39.605  49.690 -52.941  1.00  0.00     0.000 A 
HETATM   31  C   UNL     1     -39.468  50.610 -51.905  1.00  0.00     0.001 A 
HETATM   32  C   UNL     1     -39.782  51.955 -52.116  1.00  0.00     0.009 A 
ENDBRANCH  25  27
ENDBRANCH  22  25
ENDBRANCH  20  21
ENDBRANCH   1  20
BRANCH   8  33
HETATM   33  C   UNL     1     -42.940  60.846 -58.341  1.00  0.00     0.098 A 
HETATM   34  C   UNL     1     -42.360  60.479 -59.567  1.00  0.00     0.086 A 
HETATM   35  C   UNL     1     -41.244  61.163 -60.050  1.00  0.00     0.038 A 
HETATM   36  C   UNL     1     -40.687  62.194 -59.301  1.00  0.00     0.005 A 
HETATM   37  C   UNL     1     -41.266  62.572 -58.085  1.00  0.00     0.038 A 
HETATM   38  C   UNL     1     -42.406  61.914 -57.600  1.00  0.00     0.086 A 
BRANCH  34  39
HETATM   39  O   UNL     1     -42.927  59.530 -60.377  1.00  0.00    -0.355 OA
HETATM   40  C   UNL     1     -42.062  58.408 -60.540  1.00  0.00     0.210 C 
ENDBRANCH  34  39
BRANCH  38  41
HETATM   41  O   UNL     1     -43.045  62.249 -56.436  1.00  0.00    -0.355 OA
HETATM   42  C   UNL     1     -43.684  63.519 -56.372  1.00  0.00     0.210 C 
ENDBRANCH  38  41
ENDBRANCH   8  33
TORSDOF 8
ENDMDL
MODEL 3
REMARK VINA RESULT:      -8.4      1.419      2.642
REMARK  8 active torsions:
REMARK  status: ('A' for Active; 'I' for Inactive)
REMARK    1  A    between atoms: C_2  and  N_3 
REMARK    2  A    between atoms: C_2  and  C_36 
REMARK       I    between atoms: N_3  and  C_4 
REMARK    3  A    between atoms: C_4  and  C_5 
REMARK    4  A    between atoms: C_5  and  N_6 
REMARK       I    between atoms: N_12  and  C_13 
REMARK    5  A    between atoms: C_13  and  C_14 
REMARK    6  A    between atoms: C_15  and  O_16 
REMARK    7  A    between atoms: C_21  and  O_22 
REMARK    8  A    between atoms: N_27  and  C_28 
ROOT
HETATM    1  N   UNL     1     -42.187  58.126 -52.153  1.00  0.00    -0.325 N 
HETATM    2  C   UNL     1     -42.469  57.626 -53.406  1.00  0.00     0.250 C 
HETATM    3  O   UNL     1     -41.953  56.638 -53.905  1.00  0.00    -0.270 OA
HETATM    4  C   UNL     1     -43.424  58.624 -54.088  1.00  0.00     0.118 C 
HETATM    5  C   UNL     1     -44.559  57.856 -54.786  1.00  0.00     0.061 C 
HETATM    6  C   UNL     1     -44.171  57.355 -56.173  1.00  0.00     0.129 C 
HETATM    7  N   UNL     1     -43.459  58.373 -56.930  1.00  0.00    -0.348 N 
HETATM    8  C   UNL     1     -44.150  59.122 -57.890  1.00  0.00     0.259 C 
HETATM    9  O   UNL     1     -45.365  59.052 -58.053  1.00  0.00    -0.267 OA
HETATM   10  C   UNL     1     -42.206  58.791 -56.321  1.00  0.00     0.129 C 
HETATM   11  C   UNL     1     -42.508  59.483 -54.994  1.00  0.00     0.061 C 
HETATM   12  N   UNL     1     -43.907  59.415 -52.916  1.00  0.00    -0.346 N 
HETATM   13  C   UNL     1     -43.050  59.198 -51.758  1.00  0.00     0.254 C 
ENDROOT
BRANCH  12  14
HETATM   14  C   UNL     1     -44.829  60.447 -52.922  1.00  0.00     0.032 A 
HETATM   15  C   UNL     1     -46.143  60.311 -52.444  1.00  0.00     0.029 A 
HETATM   16  C   UNL     1     -47.061  61.372 -52.435  1.00  0.00     0.002 A 
HETATM   17  C   UNL     1     -46.686  62.622 -52.906  1.00  0.00     0.000 A 
HETATM   18  C   UNL     1     -45.397  62.803 -53.384  1.00  0.00     0.002 A 
HETATM   19  C   UNL     1     -44.490  61.732 -53.389  1.00  0.00     0.029 A 
ENDBRANCH  12  14
BRANCH   1  20
HETATM   20  C   UNL     1     -41.037  57.743 -51.353  1.00  0.00     0.230 C 
BRANCH  20  21
HETATM   21  C   UNL     1     -41.157  56.416 -50.608  1.00  0.00     0.236 C 
HETATM   22  N   UNL     1     -40.890  55.305 -51.374  1.00  0.00    -0.351 N 
HETATM   23  H   UNL     1     -40.497  55.498 -52.289  1.00  0.00     0.163 HD
HETATM   24  O   UNL     1     -41.351  56.394 -49.395  1.00  0.00    -0.272 OA
BRANCH  22  25
HETATM   25  C   UNL     1     -40.581  53.989 -50.826  1.00  0.00     0.113 C 
HETATM   26  C   UNL     1     -39.475  53.968 -49.767  1.00  0.00     0.037 C 
BRANCH  25  27
HETATM   27  C   UNL     1     -40.383  52.983 -51.949  1.00  0.00    -0.036 A 
HETATM   28  C   UNL     1     -40.788  53.304 -53.255  1.00  0.00     0.009 A 
HETATM   29  C   UNL     1     -40.580  52.413 -54.309  1.00  0.00     0.001 A 
HETATM   30  C   UNL     1     -39.956  51.190 -54.077  1.00  0.00     0.000 A 
HETATM   31  C   UNL     1     -39.539  50.859 -52.790  1.00  0.00     0.001 A 
HETATM   32  C   UNL     1     -39.749  51.748 -51.734  1.00  0.00     0.009 A 
ENDBRANCH  25  27
ENDBRANCH  22  25
ENDBRANCH  20  21
ENDBRANCH   1  20
BRANCH   8  33
HETATM   33  C   UNL     1     -43.358  59.946 -58.835  1.00  0.00     0.098 A 
HETATM   34  C   UNL     1     -42.862  59.327 -59.995  1.00  0.00     0.086 A 
HETATM   35  C   UNL     1     -42.109  60.057 -60.915  1.00  0.00     0.038 A 
HETATM   36  C   UNL     1     -41.824  61.396 -60.669  1.00  0.00     0.005 A 
HETATM   37  C   UNL     1     -42.323  62.021 -59.521  1.00  0.00     0.038 A 
HETATM   38  C   UNL     1     -43.107  61.309 -58.601  1.00  0.00     0.086 A 
BRANCH  34  39
HETATM   39  O   UNL     1     -43.192  58.037 -60.320  1.00  0.00    -0.355 OA
HETATM   40  C   UNL     1     -42.092  57.156 -60.111  1.00  0.00     0.210 C 
ENDBRANCH  34  39
BRANCH  38  41
HETATM   41  O   UNL     1     -43.655  61.862 -57.475  1.00  0.00    -0.355 OA
HETATM   42  C   UNL     1     -42.931  62.903 -56.827  1.00  0.00     0.210 C 
ENDBRANCH  38  41
ENDBRANCH   8  33
TORSDOF 8
ENDMDL
MODEL 4
REMARK VINA RESULT:      -8.2      2.010      3.686
REMARK  8 active torsions:
REMARK  status: ('A' for Active; 'I' for Inactive)
REMARK    1  A    between atoms: C_2  and  N_3 
REMARK    2  A    between atoms: C_2  and  C_36 
REMARK       I    between atoms: N_3  and  C_4 
REMARK    3  A    between atoms: C_4  and  C_5 
REMARK    4  A    between atoms: C_5  and  N_6 
REMARK       I    between atoms: N_12  and  C_13 
REMARK    5  A    between atoms: C_13  and  C_14 
REMARK    6  A    between atoms: C_15  and  O_16 
REMARK    7  A    between atoms: C_21  and  O_22 
REMARK    8  A    between atoms: N_27  and  C_28 
ROOT
HETATM    1  N   UNL     1     -42.874  55.886 -56.010  1.00  0.00    -0.325 N 
HETATM    2  C   UNL     1     -43.211  56.436 -57.228  1.00  0.00     0.250 C 
HETATM    3  O   UNL     1     -43.195  55.849 -58.298  1.00  0.00    -0.270 OA
HETATM    4  C   UNL     1     -43.457  57.940 -56.994  1.00  0.00     0.118 C 
HETATM    5  C   UNL     1     -44.728  58.376 -57.741  1.00  0.00     0.061 C 
HETATM    6  C   UNL     1     -44.473  58.696 -59.210  1.00  0.00     0.129 C 
HETATM    7  N   UNL     1     -43.265  59.488 -59.382  1.00  0.00    -0.348 N 
HETATM    8  C   UNL     1     -43.373  60.872 -59.567  1.00  0.00     0.259 C 
HETATM    9  O   UNL     1     -44.434  61.483 -59.475  1.00  0.00    -0.267 OA
HETATM   10  C   UNL     1     -42.054  58.821 -58.931  1.00  0.00     0.129 C 
HETATM   11  C   UNL     1     -42.134  58.622 -57.419  1.00  0.00     0.061 C 
HETATM   12  N   UNL     1     -43.625  57.981 -55.509  1.00  0.00    -0.346 N 
HETATM   13  C   UNL     1     -43.136  56.752 -54.900  1.00  0.00     0.254 C 
ENDROOT
BRANCH  12  14
HETATM   14  C   UNL     1     -43.908  59.087 -54.727  1.00  0.00     0.032 A 
HETATM   15  C   UNL     1     -42.944  60.045 -54.367  1.00  0.00     0.029 A 
HETATM   16  C   UNL     1     -43.250  61.173 -53.592  1.00  0.00     0.002 A 
HETATM   17  C   UNL     1     -44.548  61.385 -53.151  1.00  0.00     0.000 A 
HETATM   18  C   UNL     1     -45.532  60.468 -53.486  1.00  0.00     0.002 A 
HETATM   19  C   UNL     1     -45.212  59.342 -54.260  1.00  0.00     0.029 A 
ENDBRANCH  12  14
BRANCH   1  20
HETATM   20  C   UNL     1     -42.171  54.627 -55.842  1.00  0.00     0.230 C 
BRANCH  20  21
HETATM   21  C   UNL     1     -41.089  54.609 -54.764  1.00  0.00     0.236 C 
HETATM   22  N   UNL     1     -41.323  53.726 -53.734  1.00  0.00    -0.351 N 
HETATM   23  H   UNL     1     -42.096  53.087 -53.884  1.00  0.00     0.163 HD
HETATM   24  O   UNL     1     -40.051  55.249 -54.908  1.00  0.00    -0.272 OA
BRANCH  22  25
HETATM   25  C   UNL     1     -40.299  53.263 -52.805  1.00  0.00     0.113 C 
HETATM   26  C   UNL     1     -39.974  51.769 -52.887  1.00  0.00     0.037 C 
BRANCH  25  27
HETATM   27  C   UNL     1     -40.600  53.756 -51.399  1.00  0.00    -0.036 A 
HETATM   28  C   UNL     1     -39.625  53.641 -50.394  1.00  0.00     0.009 A 
HETATM   29  C   UNL     1     -39.863  54.123 -49.106  1.00  0.00     0.001 A 
HETATM   30  C   UNL     1     -41.076  54.736 -48.804  1.00  0.00     0.000 A 
HETATM   31  C   UNL     1     -42.050  54.868 -49.789  1.00  0.00     0.001 A 
HETATM   32  C   UNL     1     -41.815  54.384 -51.078  1.00  0.00     0.009 A 
ENDBRANCH  25  27
ENDBRANCH  22  25
ENDBRANCH  20  21
ENDBRANCH   1  20
BRANCH   8  33
HETATM   33  C   UNL     1     -42.169  61.612 -60.017  1.00  0.00     0.098 A 
HETATM   34  C   UNL     1     -41.842  61.573 -61.382  1.00  0.00     0.086 A 
HETATM   35  C   UNL     1     -40.718  62.250 -61.857  1.00  0.00     0.038 A 
HETATM   36  C   UNL     1     -39.902  62.943 -60.969  1.00  0.00     0.005 A 
HETATM   37  C   UNL     1     -40.227  62.994 -59.610  1.00  0.00     0.038 A 
HETATM   38  C   UNL     1     -41.369  62.344 -59.121  1.00  0.00     0.086 A 
BRANCH  34  39
HETATM   39  O   UNL     1     -42.665  60.978 -62.303  1.00  0.00    -0.355 OA
HETATM   40  C   UNL     1     -43.284  61.948 -63.144  1.00  0.00     0.210 C 
ENDBRANCH  34  39
BRANCH  38  41
HETATM   41  O   UNL     1     -41.767  62.377 -57.812  1.00  0.00    -0.355 OA
HETATM   42  C   UNL     1     -42.369  63.574 -57.331  1.00  0.00     0.210 C 
ENDBRANCH  38  41
ENDBRANCH   8  33
TORSDOF 8
ENDMDL
MODEL 5
REMARK VINA RESULT:      -8.2      1.347      1.913
REMARK  8 active torsions:
REMARK  status: ('A' for Active; 'I' for Inactive)
REMARK    1  A    between atoms: C_2  and  N_3 
REMARK    2  A    between atoms: C_2  and  C_36 
REMARK       I    between atoms: N_3  and  C_4 
REMARK    3  A    between atoms: C_4  and  C_5 
REMARK    4  A    between atoms: C_5  and  N_6 
REMARK       I    between atoms: N_12  and  C_13 
REMARK    5  A    between atoms: C_13  and  C_14 
REMARK    6  A    between atoms: C_15  and  O_16 
REMARK    7  A    between atoms: C_21  and  O_22 
REMARK    8  A    between atoms: N_27  and  C_28 
ROOT
HETATM    1  N   UNL     1     -42.446  58.112 -52.371  1.00  0.00    -0.325 N 
HETATM    2  C   UNL     1     -42.756  57.642 -53.629  1.00  0.00     0.250 C 
HETATM    3  O   UNL     1     -42.346  56.600 -54.115  1.00  0.00    -0.270 OA
HETATM    4  C   UNL     1     -43.577  58.740 -54.333  1.00  0.00     0.118 C 
HETATM    5  C   UNL     1     -44.778  58.102 -55.053  1.00  0.00     0.061 C 
HETATM    6  C   UNL     1     -44.421  57.554 -56.431  1.00  0.00     0.129 C 
HETATM    7  N   UNL     1     -43.582  58.482 -57.174  1.00  0.00    -0.348 N 
HETATM    8  C   UNL     1     -44.164  59.301 -58.150  1.00  0.00     0.259 C 
HETATM    9  O   UNL     1     -45.375  59.368 -58.338  1.00  0.00    -0.267 OA
HETATM   10  C   UNL     1     -42.303  58.757 -56.540  1.00  0.00     0.129 C 
HETATM   11  C   UNL     1     -42.551  59.485 -55.221  1.00  0.00     0.061 C 
HETATM   12  N   UNL     1     -43.992  59.585 -53.172  1.00  0.00    -0.346 N 
HETATM   13  C   UNL     1     -43.189  59.277 -51.997  1.00  0.00     0.254 C 
ENDROOT
BRANCH  12  14
HETATM   14  C   UNL     1     -44.790  60.715 -53.200  1.00  0.00     0.032 A 
HETATM   15  C   UNL     1     -44.369  61.945 -53.734  1.00  0.00     0.029 A 
HETATM   16  C   UNL     1     -45.197  63.077 -53.775  1.00  0.00     0.002 A 
HETATM   17  C   UNL     1     -46.491  63.012 -53.282  1.00  0.00     0.000 A 
HETATM   18  C   UNL     1     -46.951  61.817 -52.749  1.00  0.00     0.002 A 
HETATM   19  C   UNL     1     -46.111  60.693 -52.711  1.00  0.00     0.029 A 
ENDBRANCH  12  14
BRANCH   1  20
HETATM   20  C   UNL     1     -41.363  57.605 -51.547  1.00  0.00     0.230 C 
BRANCH  20  21
HETATM   21  C   UNL     1     -41.571  56.210 -50.961  1.00  0.00     0.236 C 
HETATM   22  N   UNL     1     -40.883  55.210 -51.609  1.00  0.00    -0.351 N 
HETATM   23  H   UNL     1     -40.205  55.529 -52.292  1.00  0.00     0.163 HD
HETATM   24  O   UNL     1     -42.204  56.056 -49.919  1.00  0.00    -0.272 OA
BRANCH  22  25
HETATM   25  C   UNL     1     -40.624  53.893 -51.039  1.00  0.00     0.113 C 
HETATM   26  C   UNL     1     -39.593  53.865 -49.907  1.00  0.00     0.037 C 
BRANCH  25  27
HETATM   27  C   UNL     1     -40.360  52.882 -52.143  1.00  0.00    -0.036 A 
HETATM   28  C   UNL     1     -39.725  51.666 -51.841  1.00  0.00     0.009 A 
HETATM   29  C   UNL     1     -39.509  50.706 -52.830  1.00  0.00     0.001 A 
HETATM   30  C   UNL     1     -39.931  50.941 -54.136  1.00  0.00     0.000 A 
HETATM   31  C   UNL     1     -40.571  52.136 -54.452  1.00  0.00     0.001 A 
HETATM   32  C   UNL     1     -40.786  53.100 -53.464  1.00  0.00     0.009 A 
ENDBRANCH  25  27
ENDBRANCH  22  25
ENDBRANCH  20  21
ENDBRANCH   1  20
BRANCH   8  33
HETATM   33  C   UNL     1     -43.264  60.026 -59.079  1.00  0.00     0.098 A 
HETATM   34  C   UNL     1     -42.947  61.362 -58.783  1.00  0.00     0.086 A 
HETATM   35  C   UNL     1     -42.107  62.090 -59.626  1.00  0.00     0.038 A 
HETATM   36  C   UNL     1     -41.603  61.497 -60.780  1.00  0.00     0.005 A 
HETATM   37  C   UNL     1     -41.906  60.164 -61.075  1.00  0.00     0.038 A 
HETATM   38  C   UNL     1     -42.725  59.410 -60.223  1.00  0.00     0.086 A 
BRANCH  34  39
HETATM   39  O   UNL     1     -43.349  61.956 -57.615  1.00  0.00    -0.355 OA
HETATM   40  C   UNL     1     -44.230  63.047 -57.868  1.00  0.00     0.210 C 
ENDBRANCH  34  39
BRANCH  38  41
HETATM   41  O   UNL     1     -43.038  58.093 -60.430  1.00  0.00    -0.355 OA
HETATM   42  C   UNL     1     -42.036  57.121 -60.152  1.00  0.00     0.210 C 
ENDBRANCH  38  41
ENDBRANCH   8  33
TORSDOF 8
ENDMDL
MODEL 6
REMARK VINA RESULT:      -8.1      2.602      5.053
REMARK  8 active torsions:
REMARK  status: ('A' for Active; 'I' for Inactive)
REMARK    1  A    between atoms: C_2  and  N_3 
REMARK    2  A    between atoms: C_2  and  C_36 
REMARK       I    between atoms: N_3  and  C_4 
REMARK    3  A    between atoms: C_4  and  C_5 
REMARK    4  A    between atoms: C_5  and  N_6 
REMARK       I    between atoms: N_12  and  C_13 
REMARK    5  A    between atoms: C_13  and  C_14 
REMARK    6  A    between atoms: C_15  and  O_16 
REMARK    7  A    between atoms: C_21  and  O_22 
REMARK    8  A    between atoms: N_27  and  C_28 
ROOT
HETATM    1  N   UNL     1     -42.010  58.226 -53.842  1.00  0.00    -0.325 N 
HETATM    2  C   UNL     1     -42.493  59.462 -54.216  1.00  0.00     0.250 C 
HETATM    3  O   UNL     1     -42.558  60.444 -53.493  1.00  0.00    -0.270 OA
HETATM    4  C   UNL     1     -43.058  59.315 -55.642  1.00  0.00     0.118 C 
HETATM    5  C   UNL     1     -42.607  60.509 -56.500  1.00  0.00     0.061 C 
HETATM    6  C   UNL     1     -43.497  61.735 -56.326  1.00  0.00     0.129 C 
HETATM    7  N   UNL     1     -44.907  61.377 -56.328  1.00  0.00    -0.348 N 
HETATM    8  C   UNL     1     -45.659  61.558 -57.495  1.00  0.00     0.259 C 
HETATM    9  O   UNL     1     -45.166  61.897 -58.568  1.00  0.00    -0.267 OA
HETATM   10  C   UNL     1     -45.289  60.482 -55.246  1.00  0.00     0.129 C 
HETATM   11  C   UNL     1     -44.583  59.142 -55.440  1.00  0.00     0.061 C 
HETATM   12  N   UNL     1     -42.429  58.031 -56.076  1.00  0.00    -0.346 N 
HETATM   13  C   UNL     1     -41.900  57.302 -54.931  1.00  0.00     0.254 C 
ENDROOT
BRANCH  12  14
HETATM   14  C   UNL     1     -42.552  57.409 -57.306  1.00  0.00     0.032 A 
HETATM   15  C   UNL     1     -43.235  56.195 -57.492  1.00  0.00     0.029 A 
HETATM   16  C   UNL     1     -43.371  55.587 -58.749  1.00  0.00     0.002 A 
HETATM   17  C   UNL     1     -42.826  56.185 -59.876  1.00  0.00     0.000 A 
HETATM   18  C   UNL     1     -42.147  57.386 -59.739  1.00  0.00     0.002 A 
HETATM   19  C   UNL     1     -42.016  57.983 -58.476  1.00  0.00     0.029 A 
ENDBRANCH  12  14
BRANCH   1  20
HETATM   20  C   UNL     1     -41.782  57.812 -52.469  1.00  0.00     0.230 C 
BRANCH  20  21
HETATM   21  C   UNL     1     -42.099  56.353 -52.153  1.00  0.00     0.236 C 
HETATM   22  N   UNL     1     -40.998  55.575 -51.878  1.00  0.00    -0.351 N 
HETATM   23  H   UNL     1     -40.129  56.085 -51.764  1.00  0.00     0.163 HD
HETATM   24  O   UNL     1     -43.263  55.975 -52.038  1.00  0.00    -0.272 OA
BRANCH  22  25
HETATM   25  C   UNL     1     -41.056  54.283 -51.204  1.00  0.00     0.113 C 
HETATM   26  C   UNL     1     -40.382  54.234 -49.830  1.00  0.00     0.037 C 
BRANCH  25  27
HETATM   27  C   UNL     1     -40.620  53.175 -52.148  1.00  0.00    -0.036 A 
HETATM   28  C   UNL     1     -39.861  52.098 -51.660  1.00  0.00     0.009 A 
HETATM   29  C   UNL     1     -39.483  51.049 -52.500  1.00  0.00     0.001 A 
HETATM   30  C   UNL     1     -39.866  51.053 -53.838  1.00  0.00     0.000 A 
HETATM   31  C   UNL     1     -40.627  52.107 -54.338  1.00  0.00     0.001 A 
HETATM   32  C   UNL     1     -41.003  53.159 -53.500  1.00  0.00     0.009 A 
ENDBRANCH  25  27
ENDBRANCH  22  25
ENDBRANCH  20  21
ENDBRANCH   1  20
BRANCH   8  33
HETATM   33  C   UNL     1     -47.135  61.455 -57.398  1.00  0.00     0.098 A 
HETATM   34  C   UNL     1     -47.835  62.532 -56.829  1.00  0.00     0.086 A 
HETATM   35  C   UNL     1     -49.224  62.484 -56.711  1.00  0.00     0.038 A 
HETATM   36  C   UNL     1     -49.916  61.354 -57.134  1.00  0.00     0.005 A 
HETATM   37  C   UNL     1     -49.226  60.283 -57.711  1.00  0.00     0.038 A 
HETATM   38  C   UNL     1     -47.833  60.327 -57.863  1.00  0.00     0.086 A 
BRANCH  34  39
HETATM   39  O   UNL     1     -47.205  63.698 -56.481  1.00  0.00    -0.355 OA
HETATM   40  C   UNL     1     -47.256  63.911 -55.073  1.00  0.00     0.210 C 
ENDBRANCH  34  39
BRANCH  38  41
HETATM   41  O   UNL     1     -47.095  59.332 -58.446  1.00  0.00    -0.355 OA
HETATM   42  C   UNL     1     -47.104  58.049 -57.828  1.00  0.00     0.210 C 
ENDBRANCH  38  41
ENDBRANCH   8  33
TORSDOF 8
ENDMDL
MODEL 7
REMARK VINA RESULT:      -8.1      2.604      5.412
REMARK  8 active torsions:
REMARK  status: ('A' for Active; 'I' for Inactive)
REMARK    1  A    between atoms: C_2  and  N_3 
REMARK    2  A    between atoms: C_2  and  C_36 
REMARK       I    between atoms: N_3  and  C_4 
REMARK    3  A    between atoms: C_4  and  C_5 
REMARK    4  A    between atoms: C_5  and  N_6 
REMARK       I    between atoms: N_12  and  C_13 
REMARK    5  A    between atoms: C_13  and  C_14 
REMARK    6  A    between atoms: C_15  and  O_16 
REMARK    7  A    between atoms: C_21  and  O_22 
REMARK    8  A    between atoms: N_27  and  C_28 
ROOT
HETATM    1  N   UNL     1     -42.150  58.169 -53.549  1.00  0.00    -0.325 N 
HETATM    2  C   UNL     1     -42.606  59.421 -53.899  1.00  0.00     0.250 C 
HETATM    3  O   UNL     1     -42.696  60.378 -53.145  1.00  0.00    -0.270 OA
HETATM    4  C   UNL     1     -43.107  59.331 -55.354  1.00  0.00     0.118 C 
HETATM    5  C   UNL     1     -42.607  60.551 -56.147  1.00  0.00     0.061 C 
HETATM    6  C   UNL     1     -43.494  61.778 -55.970  1.00  0.00     0.129 C 
HETATM    7  N   UNL     1     -44.906  61.434 -56.049  1.00  0.00    -0.348 N 
HETATM    8  C   UNL     1     -45.602  61.663 -57.242  1.00  0.00     0.259 C 
HETATM    9  O   UNL     1     -45.058  62.036 -58.278  1.00  0.00    -0.267 OA
HETATM   10  C   UNL     1     -45.344  60.505 -55.018  1.00  0.00     0.129 C 
HETATM   11  C   UNL     1     -44.641  59.166 -55.228  1.00  0.00     0.061 C 
HETATM   12  N   UNL     1     -42.468  58.057 -55.805  1.00  0.00    -0.346 N 
HETATM   13  C   UNL     1     -41.998  57.283 -54.664  1.00  0.00     0.254 C 
ENDROOT
BRANCH  12  14
HETATM   14  C   UNL     1     -42.540  57.481 -57.061  1.00  0.00     0.032 A 
HETATM   15  C   UNL     1     -42.038  58.095 -58.221  1.00  0.00     0.029 A 
HETATM   16  C   UNL     1     -42.097  57.489 -59.485  1.00  0.00     0.002 A 
HETATM   17  C   UNL     1     -42.664  56.231 -59.630  1.00  0.00     0.000 A 
HETATM   18  C   UNL     1     -43.168  55.587 -58.511  1.00  0.00     0.002 A 
HETATM   19  C   UNL     1     -43.105  56.205 -57.253  1.00  0.00     0.029 A 
ENDBRANCH  12  14
BRANCH   1  20
HETATM   20  C   UNL     1     -41.989  57.704 -52.183  1.00  0.00     0.230 C 
BRANCH  20  21
HETATM   21  C   UNL     1     -42.195  56.208 -51.961  1.00  0.00     0.236 C 
HETATM   22  N   UNL     1     -41.043  55.506 -51.690  1.00  0.00    -0.351 N 
HETATM   23  H   UNL     1     -40.223  56.077 -51.516  1.00  0.00     0.163 HD
HETATM   24  O   UNL     1     -43.326  55.732 -51.909  1.00  0.00    -0.272 OA
BRANCH  22  25
HETATM   25  C   UNL     1     -41.016  54.176 -51.092  1.00  0.00     0.113 C 
HETATM   26  C   UNL     1     -40.270  54.077 -49.759  1.00  0.00     0.037 C 
BRANCH  25  27
HETATM   27  C   UNL     1     -40.586  53.143 -52.121  1.00  0.00    -0.036 A 
HETATM   28  C   UNL     1     -39.874  52.003 -51.712  1.00  0.00     0.009 A 
HETATM   29  C   UNL     1     -39.504  51.021 -52.633  1.00  0.00     0.001 A 
HETATM   30  C   UNL     1     -39.847  51.158 -53.975  1.00  0.00     0.000 A 
HETATM   31  C   UNL     1     -40.561  52.276 -54.397  1.00  0.00     0.001 A 
HETATM   32  C   UNL     1     -40.930  53.261 -53.478  1.00  0.00     0.009 A 
ENDBRANCH  25  27
ENDBRANCH  22  25
ENDBRANCH  20  21
ENDBRANCH   1  20
BRANCH   8  33
HETATM   33  C   UNL     1     -47.082  61.571 -57.215  1.00  0.00     0.098 A 
HETATM   34  C   UNL     1     -47.685  60.468 -57.842  1.00  0.00     0.086 A 
HETATM   35  C   UNL     1     -49.074  60.335 -57.848  1.00  0.00     0.038 A 
HETATM   36  C   UNL     1     -49.865  61.313 -57.254  1.00  0.00     0.005 A 
HETATM   37  C   UNL     1     -49.271  62.408 -56.619  1.00  0.00     0.038 A 
HETATM   38  C   UNL     1     -47.875  62.542 -56.579  1.00  0.00     0.086 A 
BRANCH  34  39
HETATM   39  O   UNL     1     -46.943  59.439 -58.361  1.00  0.00    -0.355 OA
HETATM   40  C   UNL     1     -47.271  58.201 -57.735  1.00  0.00     0.210 C 
ENDBRANCH  34  39
BRANCH  38  41
HETATM   41  O   UNL     1     -47.222  63.568 -55.950  1.00  0.00    -0.355 OA
HETATM   42  C   UNL     1     -47.639  63.910 -54.632  1.00  0.00     0.210 C 
ENDBRANCH  38  41
ENDBRANCH   8  33
TORSDOF 8
ENDMDL
MODEL 8
REMARK VINA RESULT:      -8.1      2.600      5.502
REMARK  8 active torsions:
REMARK  status: ('A' for Active; 'I' for Inactive)
REMARK    1  A    between atoms: C_2  and  N_3 
REMARK    2  A    between atoms: C_2  and  C_36 
REMARK       I    between atoms: N_3  and  C_4 
REMARK    3  A    between atoms: C_4  and  C_5 
REMARK    4  A    between atoms: C_5  and  N_6 
REMARK       I    between atoms: N_12  and  C_13 
REMARK    5  A    between atoms: C_13  and  C_14 
REMARK    6  A    between atoms: C_15  and  O_16 
REMARK    7  A    between atoms: C_21  and  O_22 
REMARK    8  A    between atoms: N_27  and  C_28 
ROOT
HETATM    1  N   UNL     1     -43.370  56.788 -52.846  1.00  0.00    -0.325 N 
HETATM    2  C   UNL     1     -43.147  58.060 -52.367  1.00  0.00     0.250 C 
HETATM    3  O   UNL     1     -42.578  58.332 -51.321  1.00  0.00    -0.270 OA
HETATM    4  C   UNL     1     -43.876  59.035 -53.312  1.00  0.00     0.118 C 
HETATM    5  C   UNL     1     -42.961  60.232 -53.622  1.00  0.00     0.061 C 
HETATM    6  C   UNL     1     -43.013  61.313 -52.548  1.00  0.00     0.129 C 
HETATM    7  N   UNL     1     -44.379  61.579 -52.123  1.00  0.00    -0.348 N 
HETATM    8  C   UNL     1     -45.052  62.694 -52.637  1.00  0.00     0.259 C 
HETATM    9  O   UNL     1     -44.594  63.406 -53.526  1.00  0.00    -0.267 OA
HETATM   10  C   UNL     1     -45.046  60.431 -51.528  1.00  0.00     0.129 C 
HETATM   11  C   UNL     1     -45.211  59.349 -52.594  1.00  0.00     0.061 C 
HETATM   12  N   UNL     1     -44.105  58.167 -54.507  1.00  0.00    -0.346 N 
HETATM   13  C   UNL     1     -43.917  56.763 -54.169  1.00  0.00     0.254 C 
ENDROOT
BRANCH  12  14
HETATM   14  C   UNL     1     -44.700  58.527 -55.704  1.00  0.00     0.032 A 
HETATM   15  C   UNL     1     -45.920  57.992 -56.151  1.00  0.00     0.029 A 
HETATM   16  C   UNL     1     -46.522  58.382 -57.356  1.00  0.00     0.002 A 
HETATM   17  C   UNL     1     -45.918  59.336 -58.161  1.00  0.00     0.000 A 
HETATM   18  C   UNL     1     -44.715  59.895 -57.757  1.00  0.00     0.002 A 
HETATM   19  C   UNL     1     -44.122  59.494 -56.550  1.00  0.00     0.029 A 
ENDBRANCH  12  14
BRANCH   1  20
HETATM   20  C   UNL     1     -43.232  55.575 -52.059  1.00  0.00     0.230 C 
BRANCH  20  21
HETATM   21  C   UNL     1     -41.867  54.895 -52.120  1.00  0.00     0.236 C 
HETATM   22  N   UNL     1     -41.681  54.085 -53.217  1.00  0.00    -0.351 N 
HETATM   23  H   UNL     1     -42.399  54.154 -53.929  1.00  0.00     0.163 HD
HETATM   24  O   UNL     1     -40.991  55.174 -51.306  1.00  0.00    -0.272 OA
BRANCH  22  25
HETATM   25  C   UNL     1     -40.377  53.632 -53.687  1.00  0.00     0.113 C 
HETATM   26  C   UNL     1     -40.084  53.911 -55.164  1.00  0.00     0.037 C 
BRANCH  25  27
HETATM   27  C   UNL     1     -40.137  52.190 -53.270  1.00  0.00    -0.036 A 
HETATM   28  C   UNL     1     -40.234  51.161 -54.221  1.00  0.00     0.009 A 
HETATM   29  C   UNL     1     -39.978  49.834 -53.870  1.00  0.00     0.001 A 
HETATM   30  C   UNL     1     -39.612  49.515 -52.565  1.00  0.00     0.000 A 
HETATM   31  C   UNL     1     -39.501  50.523 -51.611  1.00  0.00     0.001 A 
HETATM   32  C   UNL     1     -39.760  51.851 -51.959  1.00  0.00     0.009 A 
ENDBRANCH  25  27
ENDBRANCH  22  25
ENDBRANCH  20  21
ENDBRANCH   1  20
BRANCH   8  33
HETATM   33  C   UNL     1     -46.322  63.103 -51.988  1.00  0.00     0.098 A 
HETATM   34  C   UNL     1     -46.245  63.836 -50.792  1.00  0.00     0.086 A 
HETATM   35  C   UNL     1     -47.410  64.242 -50.140  1.00  0.00     0.038 A 
HETATM   36  C   UNL     1     -48.652  63.897 -50.663  1.00  0.00     0.005 A 
HETATM   37  C   UNL     1     -48.735  63.177 -51.859  1.00  0.00     0.038 A 
HETATM   38  C   UNL     1     -47.574  62.786 -52.542  1.00  0.00     0.086 A 
BRANCH  34  39
HETATM   39  O   UNL     1     -45.047  64.272 -50.290  1.00  0.00    -0.355 OA
HETATM   40  C   UNL     1     -44.762  63.662 -49.034  1.00  0.00     0.210 C 
ENDBRANCH  34  39
BRANCH  38  41
HETATM   41  O   UNL     1     -47.578  62.108 -53.732  1.00  0.00    -0.355 OA
HETATM   42  C   UNL     1     -48.044  62.798 -54.887  1.00  0.00     0.210 C 
ENDBRANCH  38  41
ENDBRANCH   8  33
TORSDOF 8
ENDMDL
MODEL 9
REMARK VINA RESULT:      -8.0      2.512      5.735
REMARK  8 active torsions:
REMARK  status: ('A' for Active; 'I' for Inactive)
REMARK    1  A    between atoms: C_2  and  N_3 
REMARK    2  A    between atoms: C_2  and  C_36 
REMARK       I    between atoms: N_3  and  C_4 
REMARK    3  A    between atoms: C_4  and  C_5 
REMARK    4  A    between atoms: C_5  and  N_6 
REMARK       I    between atoms: N_12  and  C_13 
REMARK    5  A    between atoms: C_13  and  C_14 
REMARK    6  A    between atoms: C_15  and  O_16 
REMARK    7  A    between atoms: C_21  and  O_22 
REMARK    8  A    between atoms: N_27  and  C_28 
ROOT
HETATM    1  N   UNL     1     -43.276  56.768 -52.816  1.00  0.00    -0.325 N 
HETATM    2  C   UNL     1     -43.098  58.041 -52.321  1.00  0.00     0.250 C 
HETATM    3  O   UNL     1     -42.592  58.317 -51.244  1.00  0.00    -0.270 OA
HETATM    4  C   UNL     1     -43.785  59.010 -53.303  1.00  0.00     0.118 C 
HETATM    5  C   UNL     1     -42.870  60.220 -53.557  1.00  0.00     0.061 C 
HETATM    6  C   UNL     1     -42.997  61.296 -52.484  1.00  0.00     0.129 C 
HETATM    7  N   UNL     1     -44.388  61.543 -52.136  1.00  0.00    -0.348 N 
HETATM    8  C   UNL     1     -45.046  62.651 -52.684  1.00  0.00     0.259 C 
HETATM    9  O   UNL     1     -44.548  63.372 -53.544  1.00  0.00    -0.267 OA
HETATM   10  C   UNL     1     -45.072  60.383 -51.584  1.00  0.00     0.129 C 
HETATM   11  C   UNL     1     -45.163  59.304 -52.661  1.00  0.00     0.061 C 
HETATM   12  N   UNL     1     -43.935  58.144 -54.512  1.00  0.00    -0.346 N 
HETATM   13  C   UNL     1     -43.747  56.741 -54.168  1.00  0.00     0.254 C 
ENDROOT
BRANCH  12  14
HETATM   14  C   UNL     1     -44.465  58.500 -55.739  1.00  0.00     0.032 A 
HETATM   15  C   UNL     1     -45.820  58.330 -56.073  1.00  0.00     0.029 A 
HETATM   16  C   UNL     1     -46.349  58.716 -57.314  1.00  0.00     0.002 A 
HETATM   17  C   UNL     1     -45.530  59.298 -58.270  1.00  0.00     0.000 A 
HETATM   18  C   UNL     1     -44.188  59.489 -57.982  1.00  0.00     0.002 A 
HETATM   19  C   UNL     1     -43.670  59.096 -56.738  1.00  0.00     0.029 A 
ENDBRANCH  12  14
BRANCH   1  20
HETATM   20  C   UNL     1     -43.167  55.554 -52.026  1.00  0.00     0.230 C 
BRANCH  20  21
HETATM   21  C   UNL     1     -41.819  54.841 -52.085  1.00  0.00     0.236 C 
HETATM   22  N   UNL     1     -41.625  54.080 -53.216  1.00  0.00    -0.351 N 
HETATM   23  H   UNL     1     -42.323  54.202 -53.941  1.00  0.00     0.163 HD
HETATM   24  O   UNL     1     -40.957  55.058 -51.238  1.00  0.00    -0.272 OA
BRANCH  22  25
HETATM   25  C   UNL     1     -40.321  53.614 -53.675  1.00  0.00     0.113 C 
HETATM   26  C   UNL     1     -40.013  53.892 -55.149  1.00  0.00     0.037 C 
BRANCH  25  27
HETATM   27  C   UNL     1     -40.098  52.170 -53.256  1.00  0.00    -0.036 A 
HETATM   28  C   UNL     1     -40.213  51.141 -54.205  1.00  0.00     0.009 A 
HETATM   29  C   UNL     1     -39.974  49.812 -53.854  1.00  0.00     0.001 A 
HETATM   30  C   UNL     1     -39.606  49.490 -52.550  1.00  0.00     0.000 A 
HETATM   31  C   UNL     1     -39.478  50.498 -51.598  1.00  0.00     0.001 A 
HETATM   32  C   UNL     1     -39.720  51.828 -51.947  1.00  0.00     0.009 A 
ENDBRANCH  25  27
ENDBRANCH  22  25
ENDBRANCH  20  21
ENDBRANCH   1  20
BRANCH   8  33
HETATM   33  C   UNL     1     -46.355  63.041 -52.108  1.00  0.00     0.098 A 
HETATM   34  C   UNL     1     -47.516  62.720 -52.830  1.00  0.00     0.086 A 
HETATM   35  C   UNL     1     -48.773  63.066 -52.334  1.00  0.00     0.038 A 
HETATM   36  C   UNL     1     -48.875  63.756 -51.130  1.00  0.00     0.005 A 
HETATM   37  C   UNL     1     -47.724  64.070 -50.400  1.00  0.00     0.038 A 
HETATM   38  C   UNL     1     -46.455  63.703 -50.872  1.00  0.00     0.086 A 
BRANCH  34  39
HETATM   39  O   UNL     1     -47.468  61.965 -53.973  1.00  0.00    -0.355 OA
HETATM   40  C   UNL     1     -47.946  62.699 -55.097  1.00  0.00     0.210 C 
ENDBRANCH  34  39
BRANCH  38  41
HETATM   41  O   UNL     1     -45.288  63.947 -50.198  1.00  0.00    -0.355 OA
HETATM   42  C   UNL     1     -45.364  64.143 -48.790  1.00  0.00     0.210 C 
ENDBRANCH  38  41
ENDBRANCH   8  33
TORSDOF 8
ENDMDL
MODEL 10
REMARK VINA RESULT:      -8.0      2.732      5.221
REMARK  8 active torsions:
REMARK  status: ('A' for Active; 'I' for Inactive)
REMARK    1  A    between atoms: C_2  and  N_3 
REMARK    2  A    between atoms: C_2  and  C_36 
REMARK       I    between atoms: N_3  and  C_4 
REMARK    3  A    between atoms: C_4  and  C_5 
REMARK    4  A    between atoms: C_5  and  N_6 
REMARK       I    between atoms: N_12  and  C_13 
REMARK    5  A    between atoms: C_13  and  C_14 
REMARK    6  A    between atoms: C_15  and  O_16 
REMARK    7  A    between atoms: C_21  and  O_22 
REMARK    8  A    between atoms: N_27  and  C_28 
ROOT
HETATM    1  N   UNL     1     -42.506  57.944 -55.451  1.00  0.00    -0.325 N 
HETATM    2  C   UNL     1     -42.129  58.976 -56.282  1.00  0.00     0.250 C 
HETATM    3  O   UNL     1     -41.414  59.915 -55.965  1.00  0.00    -0.270 OA
HETATM    4  C   UNL     1     -42.893  58.793 -57.608  1.00  0.00     0.118 C 
HETATM    5  C   UNL     1     -41.934  59.021 -58.790  1.00  0.00     0.061 C 
HETATM    6  C   UNL     1     -41.769  60.494 -59.145  1.00  0.00     0.129 C 
HETATM    7  N   UNL     1     -43.047  61.190 -59.148  1.00  0.00    -0.348 N 
HETATM    8  C   UNL     1     -43.692  61.434 -60.368  1.00  0.00     0.259 C 
HETATM    9  O   UNL     1     -43.295  60.989 -61.441  1.00  0.00    -0.267 OA
HETATM   10  C   UNL     1     -43.721  61.191 -57.859  1.00  0.00     0.129 C 
HETATM   11  C   UNL     1     -44.100  59.756 -57.499  1.00  0.00     0.061 C 
HETATM   12  N   UNL     1     -43.334  57.370 -57.498  1.00  0.00    -0.346 N 
HETATM   13  C   UNL     1     -43.213  56.897 -56.125  1.00  0.00     0.254 C 
ENDROOT
BRANCH  12  14
HETATM   14  C   UNL     1     -44.043  56.636 -58.432  1.00  0.00     0.032 A 
HETATM   15  C   UNL     1     -45.223  57.097 -59.041  1.00  0.00     0.029 A 
HETATM   16  C   UNL     1     -45.920  56.351 -60.004  1.00  0.00     0.002 A 
HETATM   17  C   UNL     1     -45.450  55.106 -60.396  1.00  0.00     0.000 A 
HETATM   18  C   UNL     1     -44.287  54.614 -59.824  1.00  0.00     0.002 A 
HETATM   19  C   UNL     1     -43.601  55.369 -58.861  1.00  0.00     0.029 A 
ENDBRANCH  12  14
BRANCH   1  20
HETATM   20  C   UNL     1     -42.365  57.957 -54.006  1.00  0.00     0.230 C 
BRANCH  20  21
HETATM   21  C   UNL     1     -42.628  56.628 -53.301  1.00  0.00     0.236 C 
HETATM   22  N   UNL     1     -41.493  55.943 -52.931  1.00  0.00    -0.351 N 
HETATM   23  H   UNL     1     -40.627  56.462 -53.028  1.00  0.00     0.163 HD
HETATM   24  O   UNL     1     -43.770  56.298 -52.992  1.00  0.00    -0.272 OA
BRANCH  22  25
HETATM   25  C   UNL     1     -41.470  54.868 -51.947  1.00  0.00     0.113 C 
HETATM   26  C   UNL     1     -40.943  55.262 -50.564  1.00  0.00     0.037 C 
BRANCH  25  27
HETATM   27  C   UNL     1     -40.811  53.630 -52.532  1.00  0.00    -0.036 A 
HETATM   28  C   UNL     1     -39.985  52.829 -51.724  1.00  0.00     0.009 A 
HETATM   29  C   UNL     1     -39.401  51.666 -52.228  1.00  0.00     0.001 A 
HETATM   30  C   UNL     1     -39.639  51.278 -53.544  1.00  0.00     0.000 A 
HETATM   31  C   UNL     1     -40.462  52.054 -54.356  1.00  0.00     0.001 A 
HETATM   32  C   UNL     1     -41.045  53.220 -53.855  1.00  0.00     0.009 A 
ENDBRANCH  25  27
ENDBRANCH  22  25
ENDBRANCH  20  21
ENDBRANCH   1  20
BRANCH   8  33
HETATM   33  C   UNL     1     -44.836  62.378 -60.375  1.00  0.00     0.098 A 
HETATM   34  C   UNL     1     -46.134  61.841 -60.356  1.00  0.00     0.086 A 
HETATM   35  C   UNL     1     -47.245  62.685 -60.364  1.00  0.00     0.038 A 
HETATM   36  C   UNL     1     -47.066  64.063 -60.419  1.00  0.00     0.005 A 
HETATM   37  C   UNL     1     -45.776  64.605 -60.428  1.00  0.00     0.038 A 
HETATM   38  C   UNL     1     -44.649  63.771 -60.390  1.00  0.00     0.086 A 
BRANCH  34  39
HETATM   39  O   UNL     1     -46.355  60.496 -60.213  1.00  0.00    -0.355 OA
HETATM   40  C   UNL     1     -47.043  59.964 -61.342  1.00  0.00     0.210 C 
ENDBRANCH  34  39
BRANCH  38  41
HETATM   41  O   UNL     1     -43.359  64.229 -60.364  1.00  0.00    -0.355 OA
HETATM   42  C   UNL     1     -42.877  64.782 -59.144  1.00  0.00     0.210 C 
ENDBRANCH  38  41
ENDBRANCH   8  33
TORSDOF 8
ENDMDL
