MODEL 1
REMARK VINA RESULT:      -8.0      0.000      0.000
REMARK  6 active torsions:
REMARK  status: ('A' for Active; 'I' for Inactive)
REMARK    1  A    between atoms: C_2  and  N_3 
REMARK    2  A    between atoms: C_2  and  C_21 
REMARK       I    between atoms: N_3  and  C_4 
REMARK       I    between atoms: C_4  and  N_5 
REMARK    3  A    between atoms: N_5  and  C_6 
REMARK    4  A    between atoms: C_6  and  C_7 
REMARK    5  A    between atoms: C_10  and  O_11 
REMARK    6  A    between atoms: O_11  and  C_12 
ROOT
HETATM    1  N   UNL     1     -44.619  60.981 -47.411  1.00  0.00    -0.332 N 
HETATM    2  C   UNL     1     -44.950  60.855 -48.725  1.00  0.00     0.317 C 
HETATM    3  N   UNL     1     -43.862  60.551 -49.498  1.00  0.00    -0.339 N 
HETATM    4  O   UNL     1     -46.084  60.989 -49.163  1.00  0.00    -0.247 OA
HETATM    5  H   UNL     1     -43.656  61.165 -47.167  1.00  0.00     0.165 HD
HETATM    6  H   UNL     1     -43.132  60.036 -49.032  1.00  0.00     0.164 HD
ENDROOT
BRANCH   3   7
HETATM    7  C   UNL     1     -44.059  60.285 -50.903  1.00  0.00     0.162 C 
BRANCH   7   8
HETATM    8  C   UNL     1     -43.292  59.070 -51.348  1.00  0.00    -0.040 A 
HETATM    9  C   UNL     1     -41.911  58.984 -51.135  1.00  0.00     0.011 A 
HETATM   10  C   UNL     1     -41.194  57.846 -51.525  1.00  0.00     0.037 A 
HETATM   11  C   UNL     1     -41.850  56.780 -52.139  1.00  0.00     0.069 A 
HETATM   12  C   UNL     1     -43.221  56.878 -52.382  1.00  0.00     0.037 A 
HETATM   13  C   UNL     1     -43.940  58.012 -51.994  1.00  0.00     0.011 A 
BRANCH  11  14
HETATM   14  O   UNL     1     -41.284  55.603 -52.541  1.00  0.00    -0.346 OA
BRANCH  14  15
HETATM   15  C   UNL     1     -42.078  54.408 -52.557  1.00  0.00     0.129 C 
HETATM   16  C   UNL     1     -41.972  53.691 -53.913  1.00  0.00     0.032 C 
HETATM   17  C   UNL     1     -40.554  53.199 -54.199  1.00  0.00     0.002 C 
HETATM   18  C   UNL     1     -40.036  52.303 -53.078  1.00  0.00     0.000 C 
HETATM   19  C   UNL     1     -40.129  52.992 -51.720  1.00  0.00     0.002 C 
HETATM   20  C   UNL     1     -41.545  53.498 -51.438  1.00  0.00     0.032 C 
ENDBRANCH  14  15
ENDBRANCH  11  14
ENDBRANCH   7   8
ENDBRANCH   3   7
BRANCH   1  21
HETATM   21  C   UNL     1     -45.602  61.341 -46.394  1.00  0.00     0.155 C 
HETATM   22  C   UNL     1     -45.004  62.262 -45.330  1.00  0.00     0.041 C 
BRANCH  21  23
HETATM   23  C   UNL     1     -46.127  60.075 -45.769  1.00  0.00     0.169 A 
HETATM   24  N   UNL     1     -45.541  59.474 -44.717  1.00  0.00    -0.156 NA
HETATM   25  N   UNL     1     -46.361  58.429 -44.516  1.00  0.00    -0.270 N 
HETATM   26  H   UNL     1     -46.166  57.779 -43.763  1.00  0.00     0.190 HD
HETATM   27  C   UNL     1     -47.381  58.422 -45.411  1.00  0.00     0.227 A 
HETATM   28  N   UNL     1     -47.265  59.449 -46.218  1.00  0.00    -0.223 NA
ENDBRANCH  21  23
ENDBRANCH   1  21
TORSDOF 6
ENDMDL
MODEL 2
REMARK VINA RESULT:      -7.8      1.649      2.646
REMARK  6 active torsions:
REMARK  status: ('A' for Active; 'I' for Inactive)
REMARK    1  A    between atoms: C_2  and  N_3 
REMARK    2  A    between atoms: C_2  and  C_21 
REMARK       I    between atoms: N_3  and  C_4 
REMARK       I    between atoms: C_4  and  N_5 
REMARK    3  A    between atoms: N_5  and  C_6 
REMARK    4  A    between atoms: C_6  and  C_7 
REMARK    5  A    between atoms: C_10  and  O_11 
REMARK    6  A    between atoms: O_11  and  C_12 
ROOT
HETATM    1  N   UNL     1     -44.591  60.255 -49.447  1.00  0.00    -0.332 N 
HETATM    2  C   UNL     1     -45.160  59.622 -50.509  1.00  0.00     0.317 C 
HETATM    3  N   UNL     1     -44.272  58.797 -51.147  1.00  0.00    -0.339 N 
HETATM    4  O   UNL     1     -46.326  59.765 -50.850  1.00  0.00    -0.247 OA
HETATM    5  H   UNL     1     -43.585  60.336 -49.411  1.00  0.00     0.165 HD
HETATM    6  H   UNL     1     -43.544  58.413 -50.564  1.00  0.00     0.164 HD
ENDROOT
BRANCH   3   7
HETATM    7  C   UNL     1     -44.744  57.975 -52.236  1.00  0.00     0.162 C 
BRANCH   7   8
HETATM    8  C   UNL     1     -43.966  56.691 -52.335  1.00  0.00    -0.040 A 
HETATM    9  C   UNL     1     -43.727  56.101 -53.582  1.00  0.00     0.011 A 
HETATM   10  C   UNL     1     -42.984  54.918 -53.685  1.00  0.00     0.037 A 
HETATM   11  C   UNL     1     -42.476  54.307 -52.540  1.00  0.00     0.069 A 
HETATM   12  C   UNL     1     -42.743  54.876 -51.293  1.00  0.00     0.037 A 
HETATM   13  C   UNL     1     -43.483  56.056 -51.186  1.00  0.00     0.011 A 
BRANCH  11  14
HETATM   14  O   UNL     1     -41.714  53.173 -52.495  1.00  0.00    -0.346 OA
BRANCH  14  15
HETATM   15  C   UNL     1     -40.312  53.254 -52.786  1.00  0.00     0.129 C 
HETATM   16  C   UNL     1     -39.489  52.431 -51.782  1.00  0.00     0.032 C 
HETATM   17  C   UNL     1     -39.800  50.936 -51.866  1.00  0.00     0.002 C 
HETATM   18  C   UNL     1     -39.606  50.404 -53.283  1.00  0.00     0.000 C 
HETATM   19  C   UNL     1     -40.412  51.205 -54.300  1.00  0.00     0.002 C 
HETATM   20  C   UNL     1     -40.112  52.702 -54.207  1.00  0.00     0.032 C 
ENDBRANCH  14  15
ENDBRANCH  11  14
ENDBRANCH   7   8
ENDBRANCH   3   7
BRANCH   1  21
HETATM   21  C   UNL     1     -45.327  61.216 -48.633  1.00  0.00     0.155 C 
HETATM   22  C   UNL     1     -44.594  62.555 -48.539  1.00  0.00     0.041 C 
BRANCH  21  23
HETATM   23  C   UNL     1     -45.530  60.624 -47.263  1.00  0.00     0.169 A 
HETATM   24  N   UNL     1     -44.767  60.944 -46.200  1.00  0.00    -0.156 NA
HETATM   25  N   UNL     1     -45.331  60.199 -45.234  1.00  0.00    -0.270 N 
HETATM   26  H   UNL     1     -44.957  60.237 -44.293  1.00  0.00     0.190 HD
HETATM   27  C   UNL     1     -46.376  59.477 -45.713  1.00  0.00     0.227 A 
HETATM   28  N   UNL     1     -46.531  59.722 -46.992  1.00  0.00    -0.223 NA
ENDBRANCH  21  23
ENDBRANCH   1  21
TORSDOF 6
ENDMDL
MODEL 3
REMARK VINA RESULT:      -7.3      5.967      8.856
REMARK  6 active torsions:
REMARK  status: ('A' for Active; 'I' for Inactive)
REMARK    1  A    between atoms: C_2  and  N_3 
REMARK    2  A    between atoms: C_2  and  C_21 
REMARK       I    between atoms: N_3  and  C_4 
REMARK       I    between atoms: C_4  and  N_5 
REMARK    3  A    between atoms: N_5  and  C_6 
REMARK    4  A    between atoms: C_6  and  C_7 
REMARK    5  A    between atoms: C_10  and  O_11 
REMARK    6  A    between atoms: O_11  and  C_12 
ROOT
HETATM    1  N   UNL     1     -45.976  57.690 -57.242  1.00  0.00    -0.332 N 
HETATM    2  C   UNL     1     -45.159  58.037 -56.210  1.00  0.00     0.317 C 
HETATM    3  N   UNL     1     -45.465  57.354 -55.064  1.00  0.00    -0.339 N 
HETATM    4  O   UNL     1     -44.254  58.855 -56.296  1.00  0.00    -0.247 OA
HETATM    5  H   UNL     1     -46.868  57.263 -57.034  1.00  0.00     0.165 HD
HETATM    6  H   UNL     1     -45.871  56.441 -55.201  1.00  0.00     0.164 HD
ENDROOT
BRANCH   3   7
HETATM    7  C   UNL     1     -44.629  57.533 -53.902  1.00  0.00     0.162 C 
BRANCH   7   8
HETATM    8  C   UNL     1     -43.805  56.306 -53.620  1.00  0.00    -0.040 A 
HETATM    9  C   UNL     1     -43.213  56.121 -52.364  1.00  0.00     0.011 A 
HETATM   10  C   UNL     1     -42.463  54.971 -52.088  1.00  0.00     0.037 A 
HETATM   11  C   UNL     1     -42.292  53.992 -53.066  1.00  0.00     0.069 A 
HETATM   12  C   UNL     1     -42.853  54.191 -54.329  1.00  0.00     0.037 A 
HETATM   13  C   UNL     1     -43.602  55.337 -54.610  1.00  0.00     0.011 A 
BRANCH  11  14
HETATM   14  O   UNL     1     -41.616  52.813 -52.924  1.00  0.00    -0.346 OA
BRANCH  14  15
HETATM   15  C   UNL     1     -40.189  52.797 -53.072  1.00  0.00     0.129 C 
HETATM   16  C   UNL     1     -39.517  52.097 -51.880  1.00  0.00     0.032 C 
HETATM   17  C   UNL     1     -39.898  50.620 -51.785  1.00  0.00     0.002 C 
HETATM   18  C   UNL     1     -39.591  49.879 -53.084  1.00  0.00     0.000 C 
HETATM   19  C   UNL     1     -40.247  50.554 -54.284  1.00  0.00     0.002 C 
HETATM   20  C   UNL     1     -39.878  52.036 -54.371  1.00  0.00     0.032 C 
ENDBRANCH  14  15
ENDBRANCH  11  14
ENDBRANCH   7   8
ENDBRANCH   3   7
BRANCH   1  21
HETATM   21  C   UNL     1     -45.870  58.311 -58.558  1.00  0.00     0.155 C 
HETATM   22  C   UNL     1     -47.161  59.033 -58.947  1.00  0.00     0.041 C 
BRANCH  21  23
HETATM   23  C   UNL     1     -45.533  57.243 -59.565  1.00  0.00     0.169 A 
HETATM   24  N   UNL     1     -44.338  57.160 -60.179  1.00  0.00    -0.156 NA
HETATM   25  N   UNL     1     -44.508  56.068 -60.945  1.00  0.00    -0.270 N 
HETATM   26  H   UNL     1     -43.749  55.750 -61.537  1.00  0.00     0.190 HD
HETATM   27  C   UNL     1     -45.748  55.539 -60.781  1.00  0.00     0.227 A 
HETATM   28  N   UNL     1     -46.422  56.256 -59.916  1.00  0.00    -0.223 NA
ENDBRANCH  21  23
ENDBRANCH   1  21
TORSDOF 6
ENDMDL
MODEL 4
REMARK VINA RESULT:      -7.3      2.213      3.091
REMARK  6 active torsions:
REMARK  status: ('A' for Active; 'I' for Inactive)
REMARK    1  A    between atoms: C_2  and  N_3 
REMARK    2  A    between atoms: C_2  and  C_21 
REMARK       I    between atoms: N_3  and  C_4 
REMARK       I    between atoms: C_4  and  N_5 
REMARK    3  A    between atoms: N_5  and  C_6 
REMARK    4  A    between atoms: C_6  and  C_7 
REMARK    5  A    between atoms: C_10  and  O_11 
REMARK    6  A    between atoms: O_11  and  C_12 
ROOT
HETATM    1  N   UNL     1     -45.369  60.183 -48.666  1.00  0.00    -0.332 N 
HETATM    2  C   UNL     1     -45.011  60.040 -49.971  1.00  0.00     0.317 C 
HETATM    3  N   UNL     1     -45.362  58.812 -50.465  1.00  0.00    -0.339 N 
HETATM    4  O   UNL     1     -44.452  60.906 -50.628  1.00  0.00    -0.247 OA
HETATM    5  H   UNL     1     -45.534  59.354 -48.112  1.00  0.00     0.165 HD
HETATM    6  H   UNL     1     -46.169  58.388 -50.034  1.00  0.00     0.164 HD
ENDROOT
BRANCH   3   7
HETATM    7  C   UNL     1     -45.142  58.535 -51.864  1.00  0.00     0.162 C 
BRANCH   7   8
HETATM    8  C   UNL     1     -44.331  57.283 -52.058  1.00  0.00    -0.040 A 
HETATM    9  C   UNL     1     -44.014  56.836 -53.347  1.00  0.00     0.011 A 
HETATM   10  C   UNL     1     -43.240  55.684 -53.535  1.00  0.00     0.037 A 
HETATM   11  C   UNL     1     -42.778  54.961 -52.437  1.00  0.00     0.069 A 
HETATM   12  C   UNL     1     -43.122  55.387 -51.152  1.00  0.00     0.037 A 
HETATM   13  C   UNL     1     -43.894  56.536 -50.959  1.00  0.00     0.011 A 
BRANCH  11  14
HETATM   14  O   UNL     1     -41.993  53.843 -52.473  1.00  0.00    -0.346 OA
BRANCH  14  15
HETATM   15  C   UNL     1     -40.582  53.978 -52.695  1.00  0.00     0.129 C 
HETATM   16  C   UNL     1     -39.780  53.186 -51.650  1.00  0.00     0.032 C 
HETATM   17  C   UNL     1     -40.028  51.681 -51.747  1.00  0.00     0.002 C 
HETATM   18  C   UNL     1     -39.744  51.157 -53.151  1.00  0.00     0.000 C 
HETATM   19  C   UNL     1     -40.529  51.926 -54.208  1.00  0.00     0.002 C 
HETATM   20  C   UNL     1     -40.292  53.434 -54.103  1.00  0.00     0.032 C 
ENDBRANCH  14  15
ENDBRANCH  11  14
ENDBRANCH   7   8
ENDBRANCH   3   7
BRANCH   1  21
HETATM   21  C   UNL     1     -45.067  61.393 -47.907  1.00  0.00     0.155 C 
HETATM   22  C   UNL     1     -44.727  61.076 -46.450  1.00  0.00     0.041 C 
BRANCH  21  23
HETATM   23  C   UNL     1     -46.255  62.316 -47.988  1.00  0.00     0.169 A 
HETATM   24  N   UNL     1     -47.426  62.066 -47.373  1.00  0.00    -0.156 NA
HETATM   25  N   UNL     1     -48.142  63.152 -47.713  1.00  0.00    -0.270 N 
HETATM   26  H   UNL     1     -49.095  63.245 -47.381  1.00  0.00     0.190 HD
HETATM   27  C   UNL     1     -47.418  63.997 -48.490  1.00  0.00     0.227 A 
HETATM   28  N   UNL     1     -46.220  63.500 -48.683  1.00  0.00    -0.223 NA
ENDBRANCH  21  23
ENDBRANCH   1  21
TORSDOF 6
ENDMDL
MODEL 5
REMARK VINA RESULT:      -7.1     17.576     19.135
REMARK  6 active torsions:
REMARK  status: ('A' for Active; 'I' for Inactive)
REMARK    1  A    between atoms: C_2  and  N_3 
REMARK    2  A    between atoms: C_2  and  C_21 
REMARK       I    between atoms: N_3  and  C_4 
REMARK       I    between atoms: C_4  and  N_5 
REMARK    3  A    between atoms: N_5  and  C_6 
REMARK    4  A    between atoms: C_6  and  C_7 
REMARK    5  A    between atoms: C_10  and  O_11 
REMARK    6  A    between atoms: O_11  and  C_12 
ROOT
HETATM    1  N   UNL     1     -40.553  38.756 -47.769  1.00  0.00    -0.332 N 
HETATM    2  C   UNL     1     -39.213  38.542 -47.882  1.00  0.00     0.317 C 
HETATM    3  N   UNL     1     -38.747  38.867 -49.127  1.00  0.00    -0.339 N 
HETATM    4  O   UNL     1     -38.507  38.119 -46.977  1.00  0.00    -0.247 OA
HETATM    5  H   UNL     1     -41.110  38.803 -48.610  1.00  0.00     0.165 HD
HETATM    6  H   UNL     1     -39.262  39.590 -49.606  1.00  0.00     0.164 HD
ENDROOT
BRANCH   3   7
HETATM    7  C   UNL     1     -37.329  38.792 -49.382  1.00  0.00     0.162 C 
BRANCH   7   8
HETATM    8  C   UNL     1     -36.991  39.264 -50.770  1.00  0.00    -0.040 A 
HETATM    9  C   UNL     1     -35.713  39.050 -51.302  1.00  0.00     0.011 A 
HETATM   10  C   UNL     1     -35.398  39.467 -52.601  1.00  0.00     0.037 A 
HETATM   11  C   UNL     1     -36.357  40.107 -53.384  1.00  0.00     0.069 A 
HETATM   12  C   UNL     1     -37.621  40.352 -52.844  1.00  0.00     0.037 A 
HETATM   13  C   UNL     1     -37.940  39.938 -51.547  1.00  0.00     0.011 A 
BRANCH  11  14
HETATM   14  O   UNL     1     -36.198  40.537 -54.672  1.00  0.00    -0.346 OA
BRANCH  14  15
HETATM   15  C   UNL     1     -36.405  41.921 -54.984  1.00  0.00     0.129 C 
HETATM   16  C   UNL     1     -35.170  42.525 -55.672  1.00  0.00     0.032 C 
HETATM   17  C   UNL     1     -34.887  41.877 -57.027  1.00  0.00     0.002 C 
HETATM   18  C   UNL     1     -36.102  41.951 -57.947  1.00  0.00     0.000 C 
HETATM   19  C   UNL     1     -37.343  41.358 -57.287  1.00  0.00     0.002 C 
HETATM   20  C   UNL     1     -37.619  41.995 -55.925  1.00  0.00     0.032 C 
ENDBRANCH  14  15
ENDBRANCH  11  14
ENDBRANCH   7   8
ENDBRANCH   3   7
BRANCH   1  21
HETATM   21  C   UNL     1     -41.287  38.448 -46.547  1.00  0.00     0.155 C 
HETATM   22  C   UNL     1     -42.673  37.878 -46.849  1.00  0.00     0.041 C 
BRANCH  21  23
HETATM   23  C   UNL     1     -41.397  39.706 -45.726  1.00  0.00     0.169 A 
HETATM   24  N   UNL     1     -42.046  40.807 -46.147  1.00  0.00    -0.156 NA
HETATM   25  N   UNL     1     -41.891  41.627 -45.093  1.00  0.00    -0.270 N 
HETATM   26  H   UNL     1     -42.290  42.559 -45.122  1.00  0.00     0.190 HD
HETATM   27  C   UNL     1     -41.182  41.029 -44.102  1.00  0.00     0.227 A 
HETATM   28  N   UNL     1     -40.854  39.814 -44.468  1.00  0.00    -0.223 NA
ENDBRANCH  21  23
ENDBRANCH   1  21
TORSDOF 6
ENDMDL
MODEL 6
REMARK VINA RESULT:      -7.0      7.050      9.530
REMARK  6 active torsions:
REMARK  status: ('A' for Active; 'I' for Inactive)
REMARK    1  A    between atoms: C_2  and  N_3 
REMARK    2  A    between atoms: C_2  and  C_21 
REMARK       I    between atoms: N_3  and  C_4 
REMARK       I    between atoms: C_4  and  N_5 
REMARK    3  A    between atoms: N_5  and  C_6 
REMARK    4  A    between atoms: C_6  and  C_7 
REMARK    5  A    between atoms: C_10  and  O_11 
REMARK    6  A    between atoms: O_11  and  C_12 
ROOT
HETATM    1  N   UNL     1     -41.884  58.836 -58.848  1.00  0.00    -0.332 N 
HETATM    2  C   UNL     1     -42.783  57.925 -58.386  1.00  0.00     0.317 C 
HETATM    3  N   UNL     1     -42.169  56.874 -57.758  1.00  0.00    -0.339 N 
HETATM    4  O   UNL     1     -43.995  58.033 -58.508  1.00  0.00    -0.247 OA
HETATM    5  H   UNL     1     -40.927  58.546 -58.991  1.00  0.00     0.165 HD
HETATM    6  H   UNL     1     -41.284  57.089 -57.324  1.00  0.00     0.164 HD
ENDROOT
BRANCH   3   7
HETATM    7  C   UNL     1     -42.985  55.868 -57.123  1.00  0.00     0.162 C 
BRANCH   7   8
HETATM    8  C   UNL     1     -42.359  55.375 -55.846  1.00  0.00    -0.040 A 
HETATM    9  C   UNL     1     -42.558  54.055 -55.423  1.00  0.00     0.011 A 
HETATM   10  C   UNL     1     -41.960  53.582 -54.248  1.00  0.00     0.037 A 
HETATM   11  C   UNL     1     -41.160  54.425 -53.478  1.00  0.00     0.069 A 
HETATM   12  C   UNL     1     -40.989  55.751 -53.882  1.00  0.00     0.037 A 
HETATM   13  C   UNL     1     -41.584  56.228 -55.053  1.00  0.00     0.011 A 
BRANCH  11  14
HETATM   14  O   UNL     1     -40.495  54.090 -52.333  1.00  0.00    -0.346 OA
BRANCH  14  15
HETATM   15  C   UNL     1     -41.153  53.287 -51.344  1.00  0.00     0.129 C 
HETATM   16  C   UNL     1     -40.214  52.978 -50.167  1.00  0.00     0.032 C 
HETATM   17  C   UNL     1     -39.803  54.239 -49.407  1.00  0.00     0.002 C 
HETATM   18  C   UNL     1     -41.020  55.026 -48.930  1.00  0.00     0.000 C 
HETATM   19  C   UNL     1     -41.969  55.346 -50.080  1.00  0.00     0.002 C 
HETATM   20  C   UNL     1     -42.370  54.087 -50.850  1.00  0.00     0.032 C 
ENDBRANCH  14  15
ENDBRANCH  11  14
ENDBRANCH   7   8
ENDBRANCH   3   7
BRANCH   1  21
HETATM   21  C   UNL     1     -42.296  60.025 -59.587  1.00  0.00     0.155 C 
HETATM   22  C   UNL     1     -42.045  59.872 -61.088  1.00  0.00     0.041 C 
BRANCH  21  23
HETATM   23  C   UNL     1     -41.545  61.211 -59.040  1.00  0.00     0.169 A 
HETATM   24  N   UNL     1     -41.636  61.614 -57.759  1.00  0.00    -0.156 NA
HETATM   25  N   UNL     1     -40.795  62.663 -57.750  1.00  0.00    -0.270 N 
HETATM   26  H   UNL     1     -40.653  63.181 -56.890  1.00  0.00     0.190 HD
HETATM   27  C   UNL     1     -40.239  62.861 -58.973  1.00  0.00     0.227 A 
HETATM   28  N   UNL     1     -40.691  61.961 -59.812  1.00  0.00    -0.223 NA
ENDBRANCH  21  23
ENDBRANCH   1  21
TORSDOF 6
ENDMDL
MODEL 7
REMARK VINA RESULT:      -7.0     19.435     22.053
REMARK  6 active torsions:
REMARK  status: ('A' for Active; 'I' for Inactive)
REMARK    1  A    between atoms: C_2  and  N_3 
REMARK    2  A    between atoms: C_2  and  C_21 
REMARK       I    between atoms: N_3  and  C_4 
REMARK       I    between atoms: C_4  and  N_5 
REMARK    3  A    between atoms: N_5  and  C_6 
REMARK    4  A    between atoms: C_6  and  C_7 
REMARK    5  A    between atoms: C_10  and  O_11 
REMARK    6  A    between atoms: O_11  and  C_12 
ROOT
HETATM    1  N   UNL     1     -37.093  39.030 -60.663  1.00  0.00    -0.332 N 
HETATM    2  C   UNL     1     -37.552  39.930 -59.751  1.00  0.00     0.317 C 
HETATM    3  N   UNL     1     -36.839  41.098 -59.783  1.00  0.00    -0.339 N 
HETATM    4  O   UNL     1     -38.495  39.725 -58.999  1.00  0.00    -0.247 OA
HETATM    5  H   UNL     1     -36.153  39.133 -61.018  1.00  0.00     0.165 HD
HETATM    6  H   UNL     1     -36.433  41.332 -60.676  1.00  0.00     0.164 HD
ENDROOT
BRANCH   3   7
HETATM    7  C   UNL     1     -37.262  42.195 -58.946  1.00  0.00     0.162 C 
BRANCH   7   8
HETATM    8  C   UNL     1     -36.691  42.083 -57.559  1.00  0.00    -0.040 A 
HETATM    9  C   UNL     1     -35.305  42.039 -57.362  1.00  0.00     0.011 A 
HETATM   10  C   UNL     1     -34.767  41.957 -56.072  1.00  0.00     0.037 A 
HETATM   11  C   UNL     1     -35.608  41.914 -54.961  1.00  0.00     0.069 A 
HETATM   12  C   UNL     1     -36.990  41.924 -55.158  1.00  0.00     0.037 A 
HETATM   13  C   UNL     1     -37.532  42.005 -56.443  1.00  0.00     0.011 A 
BRANCH  11  14
HETATM   14  O   UNL     1     -35.221  41.865 -53.652  1.00  0.00    -0.346 OA
BRANCH  14  15
HETATM   15  C   UNL     1     -35.356  40.638 -52.922  1.00  0.00     0.129 C 
HETATM   16  C   UNL     1     -34.192  39.682 -53.226  1.00  0.00     0.032 C 
HETATM   17  C   UNL     1     -32.846  40.242 -52.765  1.00  0.00     0.002 C 
HETATM   18  C   UNL     1     -32.869  40.603 -51.283  1.00  0.00     0.000 C 
HETATM   19  C   UNL     1     -34.016  41.553 -50.954  1.00  0.00     0.002 C 
HETATM   20  C   UNL     1     -35.361  41.000 -51.427  1.00  0.00     0.032 C 
ENDBRANCH  14  15
ENDBRANCH  11  14
ENDBRANCH   7   8
ENDBRANCH   3   7
BRANCH   1  21
HETATM   21  C   UNL     1     -37.668  37.695 -60.793  1.00  0.00     0.155 C 
HETATM   22  C   UNL     1     -36.608  36.658 -61.167  1.00  0.00     0.041 C 
BRANCH  21  23
HETATM   23  C   UNL     1     -38.756  37.743 -61.832  1.00  0.00     0.169 A 
HETATM   24  N   UNL     1     -38.514  37.712 -63.156  1.00  0.00    -0.156 NA
HETATM   25  N   UNL     1     -39.760  37.755 -63.656  1.00  0.00    -0.270 N 
HETATM   26  H   UNL     1     -39.896  37.742 -64.661  1.00  0.00     0.190 HD
HETATM   27  C   UNL     1     -40.688  37.808 -62.667  1.00  0.00     0.227 A 
HETATM   28  N   UNL     1     -40.089  37.802 -61.501  1.00  0.00    -0.223 NA
ENDBRANCH  21  23
ENDBRANCH   1  21
TORSDOF 6
ENDMDL
MODEL 8
REMARK VINA RESULT:      -6.8      7.244      9.239
REMARK  6 active torsions:
REMARK  status: ('A' for Active; 'I' for Inactive)
REMARK    1  A    between atoms: C_2  and  N_3 
REMARK    2  A    between atoms: C_2  and  C_21 
REMARK       I    between atoms: N_3  and  C_4 
REMARK       I    between atoms: C_4  and  N_5 
REMARK    3  A    between atoms: N_5  and  C_6 
REMARK    4  A    between atoms: C_6  and  C_7 
REMARK    5  A    between atoms: C_10  and  O_11 
REMARK    6  A    between atoms: O_11  and  C_12 
ROOT
HETATM    1  N   UNL     1     -42.145  58.731 -58.448  1.00  0.00    -0.332 N 
HETATM    2  C   UNL     1     -42.950  58.423 -57.395  1.00  0.00     0.317 C 
HETATM    3  N   UNL     1     -42.433  57.404 -56.639  1.00  0.00    -0.339 N 
HETATM    4  O   UNL     1     -44.004  58.991 -57.146  1.00  0.00    -0.247 OA
HETATM    5  H   UNL     1     -41.478  58.044 -58.769  1.00  0.00     0.165 HD
HETATM    6  H   UNL     1     -41.427  57.332 -56.643  1.00  0.00     0.164 HD
ENDROOT
BRANCH   3   7
HETATM    7  C   UNL     1     -43.114  57.021 -55.426  1.00  0.00     0.162 C 
BRANCH   7   8
HETATM    8  C   UNL     1     -42.581  55.726 -54.878  1.00  0.00    -0.040 A 
HETATM    9  C   UNL     1     -43.171  55.133 -53.755  1.00  0.00     0.011 A 
HETATM   10  C   UNL     1     -42.694  53.916 -53.253  1.00  0.00     0.037 A 
HETATM   11  C   UNL     1     -41.617  53.277 -53.866  1.00  0.00     0.069 A 
HETATM   12  C   UNL     1     -41.006  53.884 -54.965  1.00  0.00     0.037 A 
HETATM   13  C   UNL     1     -41.478  55.099 -55.469  1.00  0.00     0.011 A 
BRANCH  11  14
HETATM   14  O   UNL     1     -41.072  52.078 -53.503  1.00  0.00    -0.346 OA
BRANCH  14  15
HETATM   15  C   UNL     1     -39.682  52.012 -53.155  1.00  0.00     0.129 C 
HETATM   16  C   UNL     1     -39.476  52.258 -51.652  1.00  0.00     0.032 C 
HETATM   17  C   UNL     1     -40.125  51.174 -50.793  1.00  0.00     0.002 C 
HETATM   18  C   UNL     1     -39.633  49.783 -51.181  1.00  0.00     0.000 C 
HETATM   19  C   UNL     1     -39.827  49.512 -52.669  1.00  0.00     0.002 C 
HETATM   20  C   UNL     1     -39.189  50.604 -53.530  1.00  0.00     0.032 C 
ENDBRANCH  14  15
ENDBRANCH  11  14
ENDBRANCH   7   8
ENDBRANCH   3   7
BRANCH   1  21
HETATM   21  C   UNL     1     -42.502  59.759 -59.421  1.00  0.00     0.155 C 
HETATM   22  C   UNL     1     -42.075  59.369 -60.837  1.00  0.00     0.041 C 
BRANCH  21  23
HETATM   23  C   UNL     1     -41.855  61.054 -59.007  1.00  0.00     0.169 A 
HETATM   24  N   UNL     1     -40.857  61.125 -58.106  1.00  0.00    -0.156 NA
HETATM   25  N   UNL     1     -40.608  62.445 -58.087  1.00  0.00    -0.270 N 
HETATM   26  H   UNL     1     -39.880  62.808 -57.482  1.00  0.00     0.190 HD
HETATM   27  C   UNL     1     -41.425  63.114 -58.941  1.00  0.00     0.227 A 
HETATM   28  N   UNL     1     -42.225  62.265 -59.539  1.00  0.00    -0.223 NA
ENDBRANCH  21  23
ENDBRANCH   1  21
TORSDOF 6
ENDMDL
MODEL 9
REMARK VINA RESULT:      -6.8      4.728      7.429
REMARK  6 active torsions:
REMARK  status: ('A' for Active; 'I' for Inactive)
REMARK    1  A    between atoms: C_2  and  N_3 
REMARK    2  A    between atoms: C_2  and  C_21 
REMARK       I    between atoms: N_3  and  C_4 
REMARK       I    between atoms: C_4  and  N_5 
REMARK    3  A    between atoms: N_5  and  C_6 
REMARK    4  A    between atoms: C_6  and  C_7 
REMARK    5  A    between atoms: C_10  and  O_11 
REMARK    6  A    between atoms: O_11  and  C_12 
ROOT
HETATM    1  N   UNL     1     -43.985  58.581 -54.706  1.00  0.00    -0.332 N 
HETATM    2  C   UNL     1     -43.183  58.462 -53.613  1.00  0.00     0.317 C 
HETATM    3  N   UNL     1     -43.833  57.864 -52.566  1.00  0.00    -0.339 N 
HETATM    4  O   UNL     1     -42.020  58.836 -53.570  1.00  0.00    -0.247 OA
HETATM    5  H   UNL     1     -44.987  58.544 -54.582  1.00  0.00     0.165 HD
HETATM    6  H   UNL     1     -44.563  57.218 -52.824  1.00  0.00     0.164 HD
ENDROOT
BRANCH   3   7
HETATM    7  C   UNL     1     -43.093  57.573 -51.362  1.00  0.00     0.162 C 
BRANCH   7   8
HETATM    8  C   UNL     1     -42.470  56.205 -51.414  1.00  0.00    -0.040 A 
HETATM    9  C   UNL     1     -41.280  55.940 -50.723  1.00  0.00     0.011 A 
HETATM   10  C   UNL     1     -40.706  54.663 -50.749  1.00  0.00     0.037 A 
HETATM   11  C   UNL     1     -41.312  53.635 -51.469  1.00  0.00     0.069 A 
HETATM   12  C   UNL     1     -42.480  53.906 -52.185  1.00  0.00     0.037 A 
HETATM   13  C   UNL     1     -43.056  55.179 -52.163  1.00  0.00     0.011 A 
BRANCH  11  14
HETATM   14  O   UNL     1     -40.881  52.341 -51.555  1.00  0.00    -0.346 OA
BRANCH  14  15
HETATM   15  C   UNL     1     -39.535  52.072 -51.970  1.00  0.00     0.129 C 
HETATM   16  C   UNL     1     -39.120  50.637 -51.609  1.00  0.00     0.032 C 
HETATM   17  C   UNL     1     -39.952  49.590 -52.348  1.00  0.00     0.002 C 
HETATM   18  C   UNL     1     -39.900  49.799 -53.859  1.00  0.00     0.000 C 
HETATM   19  C   UNL     1     -40.308  51.217 -54.245  1.00  0.00     0.002 C 
HETATM   20  C   UNL     1     -39.485  52.266 -53.495  1.00  0.00     0.032 C 
ENDBRANCH  14  15
ENDBRANCH  11  14
ENDBRANCH   7   8
ENDBRANCH   3   7
BRANCH   1  21
HETATM   21  C   UNL     1     -43.529  59.221 -55.935  1.00  0.00     0.155 C 
HETATM   22  C   UNL     1     -44.515  60.286 -56.417  1.00  0.00     0.041 C 
BRANCH  21  23
HETATM   23  C   UNL     1     -43.339  58.158 -56.986  1.00  0.00     0.169 A 
HETATM   24  N   UNL     1     -42.140  57.630 -57.293  1.00  0.00    -0.156 NA
HETATM   25  N   UNL     1     -42.476  56.739 -58.240  1.00  0.00    -0.270 N 
HETATM   26  H   UNL     1     -41.755  56.171 -58.670  1.00  0.00     0.190 HD
HETATM   27  C   UNL     1     -43.814  56.746 -58.474  1.00  0.00     0.227 A 
HETATM   28  N   UNL     1     -44.390  57.631 -57.698  1.00  0.00    -0.223 NA
ENDBRANCH  21  23
ENDBRANCH   1  21
TORSDOF 6
ENDMDL
MODEL 10
REMARK VINA RESULT:      -6.7      5.118      7.541
REMARK  6 active torsions:
REMARK  status: ('A' for Active; 'I' for Inactive)
REMARK    1  A    between atoms: C_2  and  N_3 
REMARK    2  A    between atoms: C_2  and  C_21 
REMARK       I    between atoms: N_3  and  C_4 
REMARK       I    between atoms: C_4  and  N_5 
REMARK    3  A    between atoms: N_5  and  C_6 
REMARK    4  A    between atoms: C_6  and  C_7 
REMARK    5  A    between atoms: C_10  and  O_11 
REMARK    6  A    between atoms: O_11  and  C_12 
ROOT
HETATM    1  N   UNL     1     -40.995  55.419 -50.012  1.00  0.00    -0.332 N 
HETATM    2  C   UNL     1     -42.073  56.068 -50.531  1.00  0.00     0.317 C 
HETATM    3  N   UNL     1     -41.745  57.314 -50.993  1.00  0.00    -0.339 N 
HETATM    4  O   UNL     1     -43.199  55.593 -50.587  1.00  0.00    -0.247 OA
HETATM    5  H   UNL     1     -40.196  55.962 -49.717  1.00  0.00     0.165 HD
HETATM    6  H   UNL     1     -40.795  57.420 -51.313  1.00  0.00     0.164 HD
ENDROOT
BRANCH   3   7
HETATM    7  C   UNL     1     -42.755  58.096 -51.665  1.00  0.00     0.162 C 
BRANCH   7   8
HETATM    8  C   UNL     1     -42.946  57.645 -53.087  1.00  0.00    -0.040 A 
HETATM    9  C   UNL     1     -41.848  57.522 -53.948  1.00  0.00     0.011 A 
HETATM   10  C   UNL     1     -42.016  57.081 -55.266  1.00  0.00     0.037 A 
HETATM   11  C   UNL     1     -43.286  56.761 -55.743  1.00  0.00     0.069 A 
HETATM   12  C   UNL     1     -44.386  56.915 -54.897  1.00  0.00     0.037 A 
HETATM   13  C   UNL     1     -44.223  57.355 -53.580  1.00  0.00     0.011 A 
BRANCH  11  14
HETATM   14  O   UNL     1     -43.590  56.292 -56.990  1.00  0.00    -0.346 OA
BRANCH  14  15
HETATM   15  C   UNL     1     -43.104  56.990 -58.144  1.00  0.00     0.129 C 
HETATM   16  C   UNL     1     -42.792  56.015 -59.290  1.00  0.00     0.032 C 
HETATM   17  C   UNL     1     -44.041  55.292 -59.793  1.00  0.00     0.002 C 
HETATM   18  C   UNL     1     -45.128  56.278 -60.210  1.00  0.00     0.000 C 
HETATM   19  C   UNL     1     -45.458  57.259 -59.089  1.00  0.00     0.002 C 
HETATM   20  C   UNL     1     -44.206  57.972 -58.575  1.00  0.00     0.032 C 
ENDBRANCH  14  15
ENDBRANCH  11  14
ENDBRANCH   7   8
ENDBRANCH   3   7
BRANCH   1  21
HETATM   21  C   UNL     1     -41.101  54.089 -49.421  1.00  0.00     0.155 C 
HETATM   22  C   UNL     1     -40.377  54.009 -48.077  1.00  0.00     0.041 C 
BRANCH  21  23
HETATM   23  C   UNL     1     -40.533  53.089 -50.393  1.00  0.00     0.169 A 
HETATM   24  N   UNL     1     -40.140  53.412 -51.639  1.00  0.00    -0.156 NA
HETATM   25  N   UNL     1     -39.700  52.226 -52.095  1.00  0.00    -0.270 N 
HETATM   26  H   UNL     1     -39.330  52.160 -53.037  1.00  0.00     0.190 HD
HETATM   27  C   UNL     1     -39.831  51.256 -51.155  1.00  0.00     0.227 A 
HETATM   28  N   UNL     1     -40.353  51.766 -50.066  1.00  0.00    -0.223 NA
ENDBRANCH  21  23
ENDBRANCH   1  21
TORSDOF 6
ENDMDL
