MODEL 1
REMARK VINA RESULT:      -7.1      0.000      0.000
REMARK  14 active torsions:
REMARK  status: ('A' for Active; 'I' for Inactive)
REMARK    1  A    between atoms: C_2  and  N_3 
REMARK    2  A    between atoms: N_3  and  C_5 
REMARK    3  A    between atoms: N_3  and  C_37 
REMARK    4  A    between atoms: C_5  and  C_6 
REMARK    5  A    between atoms: C_6  and  N_7 
REMARK    6  A    between atoms: C_10  and  O_11 
REMARK    7  A    between atoms: C_12  and  C_13 
REMARK    8  A    between atoms: C_13  and  C_14 
REMARK    9  A    between atoms: C_18  and  O_19 
REMARK   10  A    between atoms: O_19  and  C_20 
REMARK   11  A    between atoms: C_26  and  C_27 
REMARK   12  A    between atoms: C_29  and  O_30 
REMARK   13  A    between atoms: O_30  and  C_31 
REMARK   14  A    between atoms: C_33  and  O_34 
ROOT
HETATM    1  N   UNL     1     -44.525  59.054 -55.406  1.00  0.00    -0.332 N 
HETATM    2  C   UNL     1     -44.307  60.188 -54.658  1.00  0.00     0.278 C 
HETATM    3  O   UNL     1     -45.092  61.092 -54.433  1.00  0.00    -0.265 OA
HETATM    4  C   UNL     1     -42.955  60.087 -54.075  1.00  0.00     0.146 C 
HETATM    5  C   UNL     1     -42.484  58.876 -54.397  1.00  0.00     0.059 C 
HETATM    6  C   UNL     1     -43.377  58.156 -55.364  1.00  0.00     0.161 C 
ENDROOT
BRANCH   5   7
HETATM    7  C   UNL     1     -41.288  58.173 -53.880  1.00  0.00     0.193 C 
HETATM    8  O   UNL     1     -40.284  58.816 -53.583  1.00  0.00    -0.287 OA
BRANCH   7   9
HETATM    9  C   UNL     1     -41.253  56.693 -53.807  1.00  0.00     0.015 A 
HETATM   10  C   UNL     1     -41.996  55.985 -52.857  1.00  0.00     0.025 A 
HETATM   11  C   UNL     1     -41.919  54.586 -52.787  1.00  0.00    -0.028 A 
HETATM   12  C   UNL     1     -42.668  53.850 -51.709  1.00  0.00     0.051 C 
HETATM   13  C   UNL     1     -41.115  53.889 -53.706  1.00  0.00     0.075 A 
HETATM   14  C   UNL     1     -40.440  54.594 -54.706  1.00  0.00     0.038 A 
HETATM   15  C   UNL     1     -40.507  55.992 -54.756  1.00  0.00     0.018 A 
BRANCH  13  16
HETATM   16  O   UNL     1     -41.078  52.532 -53.533  1.00  0.00    -0.346 OA
BRANCH  16  17
HETATM   17  C   UNL     1     -39.822  51.845 -53.528  1.00  0.00     0.121 C 
HETATM   18  C   UNL     1     -39.380  51.529 -52.099  1.00  0.00     0.040 C 
HETATM   19  C   UNL     1     -40.047  50.543 -54.293  1.00  0.00     0.040 C 
ENDBRANCH  16  17
ENDBRANCH  13  16
ENDBRANCH   7   9
ENDBRANCH   5   7
BRANCH   4  20
HETATM   20  O   UNL     1     -42.423  61.040 -53.264  1.00  0.00    -0.355 OA
HETATM   21  H   UNL     1     -41.472  60.831 -53.161  1.00  0.00     0.218 HD
ENDBRANCH   4  20
BRANCH   6  22
HETATM   22  C   UNL     1     -42.827  57.974 -56.771  1.00  0.00    -0.028 A 
HETATM   23  C   UNL     1     -43.080  56.778 -57.474  1.00  0.00     0.049 A 
HETATM   24  C   UNL     1     -42.634  56.618 -58.788  1.00  0.00     0.102 A 
HETATM   25  C   UNL     1     -41.930  57.662 -59.396  1.00  0.00     0.099 A 
HETATM   26  C   UNL     1     -41.648  58.839 -58.720  1.00  0.00     0.040 A 
HETATM   27  C   UNL     1     -42.093  58.995 -57.409  1.00  0.00     0.012 A 
BRANCH  24  28
HETATM   28  O   UNL     1     -42.833  55.522 -59.585  1.00  0.00    -0.349 OA
BRANCH  28  29
HETATM   29  C   UNL     1     -44.136  55.351 -60.143  1.00  0.00     0.171 C 
HETATM   30  C   UNL     1     -44.673  54.014 -59.662  1.00  0.00     0.034 C 
ENDBRANCH  28  29
ENDBRANCH  24  28
BRANCH  25  31
HETATM   31  O   UNL     1     -41.490  57.541 -60.685  1.00  0.00    -0.358 OA
HETATM   32  H   UNL     1     -41.186  56.617 -60.770  1.00  0.00     0.218 HD
ENDBRANCH  25  31
ENDBRANCH   6  22
BRANCH   1  33
HETATM   33  C   UNL     1     -45.846  58.620 -55.827  1.00  0.00     0.155 C 
BRANCH  33  34
HETATM   34  C   UNL     1     -46.304  59.259 -57.151  1.00  0.00     0.254 C 
BRANCH  34  35
HETATM   35  N   UNL     1     -45.892  58.466 -58.388  1.00  0.00    -0.070 N 
HETATM   36  H   UNL     1     -45.114  57.869 -58.071  1.00  0.00     0.279 HD
BRANCH  35  37
HETATM   37  C   UNL     1     -45.315  59.306 -59.519  1.00  0.00     0.230 C 
HETATM   38  C   UNL     1     -44.969  60.711 -59.062  1.00  0.00     0.034 C 
ENDBRANCH  35  37
BRANCH  35  39
HETATM   39  C   UNL     1     -46.948  57.512 -58.919  1.00  0.00     0.230 C 
HETATM   40  C   UNL     1     -47.010  57.533 -60.433  1.00  0.00     0.034 C 
ENDBRANCH  35  39
ENDBRANCH  34  35
ENDBRANCH  33  34
ENDBRANCH   1  33
TORSDOF 14
ENDMDL
MODEL 2
REMARK VINA RESULT:      -7.0      2.128      6.557
REMARK  14 active torsions:
REMARK  status: ('A' for Active; 'I' for Inactive)
REMARK    1  A    between atoms: C_2  and  N_3 
REMARK    2  A    between atoms: N_3  and  C_5 
REMARK    3  A    between atoms: N_3  and  C_37 
REMARK    4  A    between atoms: C_5  and  C_6 
REMARK    5  A    between atoms: C_6  and  N_7 
REMARK    6  A    between atoms: C_10  and  O_11 
REMARK    7  A    between atoms: C_12  and  C_13 
REMARK    8  A    between atoms: C_13  and  C_14 
REMARK    9  A    between atoms: C_18  and  O_19 
REMARK   10  A    between atoms: O_19  and  C_20 
REMARK   11  A    between atoms: C_26  and  C_27 
REMARK   12  A    between atoms: C_29  and  O_30 
REMARK   13  A    between atoms: O_30  and  C_31 
REMARK   14  A    between atoms: C_33  and  O_34 
ROOT
HETATM    1  N   UNL     1     -41.832  59.417 -53.066  1.00  0.00    -0.332 N 
HETATM    2  C   UNL     1     -42.561  60.579 -52.959  1.00  0.00     0.278 C 
HETATM    3  O   UNL     1     -42.836  61.191 -51.943  1.00  0.00    -0.265 OA
HETATM    4  C   UNL     1     -42.890  61.029 -54.325  1.00  0.00     0.146 C 
HETATM    5  C   UNL     1     -42.259  60.202 -55.168  1.00  0.00     0.059 C 
HETATM    6  C   UNL     1     -41.629  59.038 -54.459  1.00  0.00     0.161 C 
ENDROOT
BRANCH   5   7
HETATM    7  C   UNL     1     -42.058  60.334 -56.629  1.00  0.00     0.193 C 
HETATM    8  O   UNL     1     -41.360  61.243 -57.068  1.00  0.00    -0.287 OA
BRANCH   7   9
HETATM    9  C   UNL     1     -42.768  59.439 -57.574  1.00  0.00     0.015 A 
HETATM   10  C   UNL     1     -42.099  58.433 -58.279  1.00  0.00     0.025 A 
HETATM   11  C   UNL     1     -42.788  57.622 -59.193  1.00  0.00    -0.028 A 
HETATM   12  C   UNL     1     -42.035  56.596 -59.996  1.00  0.00     0.051 C 
HETATM   13  C   UNL     1     -44.172  57.800 -59.373  1.00  0.00     0.075 A 
HETATM   14  C   UNL     1     -44.850  58.751 -58.605  1.00  0.00     0.038 A 
HETATM   15  C   UNL     1     -44.151  59.570 -57.710  1.00  0.00     0.018 A 
BRANCH  13  16
HETATM   16  O   UNL     1     -44.744  56.986 -60.311  1.00  0.00    -0.346 OA
BRANCH  16  17
HETATM   17  C   UNL     1     -45.738  56.033 -59.921  1.00  0.00     0.121 C 
HETATM   18  C   UNL     1     -46.986  56.158 -60.796  1.00  0.00     0.040 C 
HETATM   19  C   UNL     1     -45.110  54.656 -60.124  1.00  0.00     0.040 C 
ENDBRANCH  16  17
ENDBRANCH  13  16
ENDBRANCH   7   9
ENDBRANCH   5   7
BRANCH   4  20
HETATM   20  O   UNL     1     -43.597  62.161 -54.584  1.00  0.00    -0.355 OA
HETATM   21  H   UNL     1     -43.138  62.626 -55.313  1.00  0.00     0.218 HD
ENDBRANCH   4  20
BRANCH   6  22
HETATM   22  C   UNL     1     -42.267  57.680 -54.711  1.00  0.00    -0.028 A 
HETATM   23  C   UNL     1     -41.455  56.568 -55.015  1.00  0.00     0.049 A 
HETATM   24  C   UNL     1     -42.018  55.302 -55.189  1.00  0.00     0.102 A 
HETATM   25  C   UNL     1     -43.402  55.154 -55.061  1.00  0.00     0.099 A 
HETATM   26  C   UNL     1     -44.226  56.234 -54.785  1.00  0.00     0.040 A 
HETATM   27  C   UNL     1     -43.662  57.495 -54.612  1.00  0.00     0.012 A 
BRANCH  24  28
HETATM   28  O   UNL     1     -41.341  54.144 -55.462  1.00  0.00    -0.349 OA
BRANCH  28  29
HETATM   29  C   UNL     1     -40.235  53.821 -54.619  1.00  0.00     0.171 C 
HETATM   30  C   UNL     1     -40.360  52.357 -54.232  1.00  0.00     0.034 C 
ENDBRANCH  28  29
ENDBRANCH  24  28
BRANCH  25  31
HETATM   31  O   UNL     1     -43.983  53.925 -55.214  1.00  0.00    -0.358 OA
HETATM   32  H   UNL     1     -43.246  53.308 -55.383  1.00  0.00     0.218 HD
ENDBRANCH  25  31
ENDBRANCH   6  22
BRANCH   1  33
HETATM   33  C   UNL     1     -41.027  58.879 -51.983  1.00  0.00     0.155 C 
BRANCH  33  34
HETATM   34  C   UNL     1     -41.851  58.103 -50.939  1.00  0.00     0.254 C 
BRANCH  34  35
HETATM   35  N   UNL     1     -42.459  56.811 -51.478  1.00  0.00    -0.070 N 
HETATM   36  H   UNL     1     -42.537  56.960 -52.494  1.00  0.00     0.279 HD
BRANCH  35  37
HETATM   37  C   UNL     1     -43.880  56.533 -51.007  1.00  0.00     0.230 C 
HETATM   38  C   UNL     1     -44.760  57.765 -51.099  1.00  0.00     0.034 C 
ENDBRANCH  35  37
BRANCH  35  39
HETATM   39  C   UNL     1     -41.591  55.576 -51.311  1.00  0.00     0.230 C 
HETATM   40  C   UNL     1     -42.370  54.304 -51.584  1.00  0.00     0.034 C 
ENDBRANCH  35  39
ENDBRANCH  34  35
ENDBRANCH  33  34
ENDBRANCH   1  33
TORSDOF 14
ENDMDL
MODEL 3
REMARK VINA RESULT:      -6.7      2.579      7.676
REMARK  14 active torsions:
REMARK  status: ('A' for Active; 'I' for Inactive)
REMARK    1  A    between atoms: C_2  and  N_3 
REMARK    2  A    between atoms: N_3  and  C_5 
REMARK    3  A    between atoms: N_3  and  C_37 
REMARK    4  A    between atoms: C_5  and  C_6 
REMARK    5  A    between atoms: C_6  and  N_7 
REMARK    6  A    between atoms: C_10  and  O_11 
REMARK    7  A    between atoms: C_12  and  C_13 
REMARK    8  A    between atoms: C_13  and  C_14 
REMARK    9  A    between atoms: C_18  and  O_19 
REMARK   10  A    between atoms: O_19  and  C_20 
REMARK   11  A    between atoms: C_26  and  C_27 
REMARK   12  A    between atoms: C_29  and  O_30 
REMARK   13  A    between atoms: O_30  and  C_31 
REMARK   14  A    between atoms: C_33  and  O_34 
ROOT
HETATM    1  N   UNL     1     -42.266  56.947 -53.139  1.00  0.00    -0.332 N 
HETATM    2  C   UNL     1     -43.632  57.118 -53.127  1.00  0.00     0.278 C 
HETATM    3  O   UNL     1     -44.300  57.690 -52.286  1.00  0.00    -0.265 OA
HETATM    4  C   UNL     1     -44.164  56.558 -54.384  1.00  0.00     0.146 C 
HETATM    5  C   UNL     1     -43.109  56.193 -55.124  1.00  0.00     0.059 C 
HETATM    6  C   UNL     1     -41.819  56.294 -54.364  1.00  0.00     0.161 C 
ENDROOT
BRANCH   5   7
HETATM    7  C   UNL     1     -43.062  55.796 -56.549  1.00  0.00     0.193 C 
HETATM    8  O   UNL     1     -43.228  54.619 -56.859  1.00  0.00    -0.287 OA
BRANCH   7   9
HETATM    9  C   UNL     1     -42.722  56.785 -57.599  1.00  0.00     0.015 A 
HETATM   10  C   UNL     1     -42.260  58.067 -57.281  1.00  0.00     0.025 A 
HETATM   11  C   UNL     1     -41.977  58.996 -58.294  1.00  0.00    -0.028 A 
HETATM   12  C   UNL     1     -41.554  60.393 -57.928  1.00  0.00     0.051 C 
HETATM   13  C   UNL     1     -42.126  58.621 -59.641  1.00  0.00     0.075 A 
HETATM   14  C   UNL     1     -42.509  57.314 -59.954  1.00  0.00     0.038 A 
HETATM   15  C   UNL     1     -42.808  56.398 -58.938  1.00  0.00     0.018 A 
BRANCH  13  16
HETATM   16  O   UNL     1     -41.862  59.607 -60.551  1.00  0.00    -0.346 OA
BRANCH  16  17
HETATM   17  C   UNL     1     -42.882  60.036 -61.459  1.00  0.00     0.121 C 
HETATM   18  C   UNL     1     -44.079  60.611 -60.702  1.00  0.00     0.040 C 
HETATM   19  C   UNL     1     -42.252  61.127 -62.322  1.00  0.00     0.040 C 
ENDBRANCH  16  17
ENDBRANCH  13  16
ENDBRANCH   7   9
ENDBRANCH   5   7
BRANCH   4  20
HETATM   20  O   UNL     1     -45.486  56.574 -54.703  1.00  0.00    -0.355 OA
HETATM   21  H   UNL     1     -45.803  55.649 -54.661  1.00  0.00     0.218 HD
ENDBRANCH   4  20
BRANCH   6  22
HETATM   22  C   UNL     1     -41.147  54.974 -54.015  1.00  0.00    -0.028 A 
HETATM   23  C   UNL     1     -41.112  54.536 -52.675  1.00  0.00     0.049 A 
HETATM   24  C   UNL     1     -40.553  53.300 -52.344  1.00  0.00     0.102 A 
HETATM   25  C   UNL     1     -40.023  52.503 -53.364  1.00  0.00     0.099 A 
HETATM   26  C   UNL     1     -40.023  52.919 -54.686  1.00  0.00     0.040 A 
HETATM   27  C   UNL     1     -40.581  54.153 -55.012  1.00  0.00     0.012 A 
BRANCH  24  28
HETATM   28  O   UNL     1     -40.479  52.751 -51.092  1.00  0.00    -0.349 OA
BRANCH  28  29
HETATM   29  C   UNL     1     -40.942  53.548 -50.003  1.00  0.00     0.171 C 
HETATM   30  C   UNL     1     -39.724  54.120 -49.297  1.00  0.00     0.034 C 
ENDBRANCH  28  29
ENDBRANCH  24  28
BRANCH  25  31
HETATM   31  O   UNL     1     -39.478  51.282 -53.075  1.00  0.00    -0.358 OA
HETATM   32  H   UNL     1     -40.040  50.631 -53.539  1.00  0.00     0.218 HD
ENDBRANCH  25  31
ENDBRANCH   6  22
BRANCH   1  33
HETATM   33  C   UNL     1     -41.364  57.679 -52.267  1.00  0.00     0.155 C 
BRANCH  33  34
HETATM   34  C   UNL     1     -40.946  59.048 -52.833  1.00  0.00     0.254 C 
BRANCH  34  35
HETATM   35  N   UNL     1     -41.654  60.226 -52.167  1.00  0.00    -0.070 N 
HETATM   36  H   UNL     1     -40.949  60.976 -52.141  1.00  0.00     0.279 HD
BRANCH  35  37
HETATM   37  C   UNL     1     -42.041  59.994 -50.713  1.00  0.00     0.230 C 
HETATM   38  C   UNL     1     -43.319  60.723 -50.343  1.00  0.00     0.034 C 
ENDBRANCH  35  37
BRANCH  35  39
HETATM   39  C   UNL     1     -42.827  60.792 -52.947  1.00  0.00     0.230 C 
HETATM   40  C   UNL     1     -42.692  60.523 -54.433  1.00  0.00     0.034 C 
ENDBRANCH  35  39
ENDBRANCH  34  35
ENDBRANCH  33  34
ENDBRANCH   1  33
TORSDOF 14
ENDMDL
MODEL 4
REMARK VINA RESULT:      -6.7      2.408      5.220
REMARK  14 active torsions:
REMARK  status: ('A' for Active; 'I' for Inactive)
REMARK    1  A    between atoms: C_2  and  N_3 
REMARK    2  A    between atoms: N_3  and  C_5 
REMARK    3  A    between atoms: N_3  and  C_37 
REMARK    4  A    between atoms: C_5  and  C_6 
REMARK    5  A    between atoms: C_6  and  N_7 
REMARK    6  A    between atoms: C_10  and  O_11 
REMARK    7  A    between atoms: C_12  and  C_13 
REMARK    8  A    between atoms: C_13  and  C_14 
REMARK    9  A    between atoms: C_18  and  O_19 
REMARK   10  A    between atoms: O_19  and  C_20 
REMARK   11  A    between atoms: C_26  and  C_27 
REMARK   12  A    between atoms: C_29  and  O_30 
REMARK   13  A    between atoms: O_30  and  C_31 
REMARK   14  A    between atoms: C_33  and  O_34 
ROOT
HETATM    1  N   UNL     1     -43.010  59.428 -56.368  1.00  0.00    -0.332 N 
HETATM    2  C   UNL     1     -44.217  59.240 -57.001  1.00  0.00     0.278 C 
HETATM    3  O   UNL     1     -44.926  60.088 -57.512  1.00  0.00    -0.265 OA
HETATM    4  C   UNL     1     -44.479  57.789 -57.046  1.00  0.00     0.146 C 
HETATM    5  C   UNL     1     -43.390  57.183 -56.555  1.00  0.00     0.059 C 
HETATM    6  C   UNL     1     -42.410  58.159 -55.972  1.00  0.00     0.161 C 
ENDROOT
BRANCH   5   7
HETATM    7  C   UNL     1     -43.028  55.749 -56.585  1.00  0.00     0.193 C 
HETATM    8  O   UNL     1     -43.178  55.104 -57.619  1.00  0.00    -0.287 OA
BRANCH   7   9
HETATM    9  C   UNL     1     -42.575  55.057 -55.354  1.00  0.00     0.015 A 
HETATM   10  C   UNL     1     -43.396  54.950 -54.226  1.00  0.00     0.025 A 
HETATM   11  C   UNL     1     -42.931  54.320 -53.062  1.00  0.00    -0.028 A 
HETATM   12  C   UNL     1     -43.802  54.282 -51.835  1.00  0.00     0.051 C 
HETATM   13  C   UNL     1     -41.641  53.759 -53.044  1.00  0.00     0.075 A 
HETATM   14  C   UNL     1     -40.857  53.796 -54.201  1.00  0.00     0.038 A 
HETATM   15  C   UNL     1     -41.321  54.444 -55.352  1.00  0.00     0.018 A 
BRANCH  13  16
HETATM   16  O   UNL     1     -41.267  53.201 -51.853  1.00  0.00    -0.346 OA
BRANCH  16  17
HETATM   17  C   UNL     1     -39.892  53.213 -51.457  1.00  0.00     0.121 C 
HETATM   18  C   UNL     1     -39.726  53.862 -50.083  1.00  0.00     0.040 C 
HETATM   19  C   UNL     1     -39.457  51.751 -51.385  1.00  0.00     0.040 C 
ENDBRANCH  16  17
ENDBRANCH  13  16
ENDBRANCH   7   9
ENDBRANCH   5   7
BRANCH   4  20
HETATM   20  O   UNL     1     -45.588  57.251 -57.620  1.00  0.00    -0.355 OA
HETATM   21  H   UNL     1     -45.928  57.909 -58.260  1.00  0.00     0.218 HD
ENDBRANCH   4  20
BRANCH   6  22
HETATM   22  C   UNL     1     -42.256  58.125 -54.458  1.00  0.00    -0.028 A 
HETATM   23  C   UNL     1     -43.377  58.347 -53.632  1.00  0.00     0.049 A 
HETATM   24  C   UNL     1     -43.266  58.260 -52.243  1.00  0.00     0.102 A 
HETATM   25  C   UNL     1     -42.023  57.952 -51.682  1.00  0.00     0.099 A 
HETATM   26  C   UNL     1     -40.900  57.751 -52.469  1.00  0.00     0.040 A 
HETATM   27  C   UNL     1     -41.013  57.840 -53.854  1.00  0.00     0.012 A 
BRANCH  24  28
HETATM   28  O   UNL     1     -44.277  58.429 -51.336  1.00  0.00    -0.349 OA
BRANCH  28  29
HETATM   29  C   UNL     1     -45.021  59.645 -51.408  1.00  0.00     0.171 C 
HETATM   30  C   UNL     1     -44.180  60.741 -50.777  1.00  0.00     0.034 C 
ENDBRANCH  28  29
ENDBRANCH  24  28
BRANCH  25  31
HETATM   31  O   UNL     1     -41.883  57.847 -50.325  1.00  0.00    -0.358 OA
HETATM   32  H   UNL     1     -42.293  56.994 -50.087  1.00  0.00     0.218 HD
ENDBRANCH  25  31
ENDBRANCH   6  22
BRANCH   1  33
HETATM   33  C   UNL     1     -42.248  60.662 -56.454  1.00  0.00     0.155 C 
BRANCH  33  34
HETATM   34  C   UNL     1     -41.443  60.791 -57.759  1.00  0.00     0.254 C 
BRANCH  34  35
HETATM   35  N   UNL     1     -42.170  61.574 -58.850  1.00  0.00    -0.070 N 
HETATM   36  H   UNL     1     -42.980  61.998 -58.375  1.00  0.00     0.279 HD
BRANCH  35  37
HETATM   37  C   UNL     1     -42.764  60.716 -59.959  1.00  0.00     0.230 C 
HETATM   38  C   UNL     1     -42.085  59.363 -60.056  1.00  0.00     0.034 C 
ENDBRANCH  35  37
BRANCH  35  39
HETATM   39  C   UNL     1     -41.385  62.735 -59.436  1.00  0.00     0.230 C 
HETATM   40  C   UNL     1     -39.913  62.649 -59.083  1.00  0.00     0.034 C 
ENDBRANCH  35  39
ENDBRANCH  34  35
ENDBRANCH  33  34
ENDBRANCH   1  33
TORSDOF 14
ENDMDL
MODEL 5
REMARK VINA RESULT:      -6.6      2.361      5.500
REMARK  14 active torsions:
REMARK  status: ('A' for Active; 'I' for Inactive)
REMARK    1  A    between atoms: C_2  and  N_3 
REMARK    2  A    between atoms: N_3  and  C_5 
REMARK    3  A    between atoms: N_3  and  C_37 
REMARK    4  A    between atoms: C_5  and  C_6 
REMARK    5  A    between atoms: C_6  and  N_7 
REMARK    6  A    between atoms: C_10  and  O_11 
REMARK    7  A    between atoms: C_12  and  C_13 
REMARK    8  A    between atoms: C_13  and  C_14 
REMARK    9  A    between atoms: C_18  and  O_19 
REMARK   10  A    between atoms: O_19  and  C_20 
REMARK   11  A    between atoms: C_26  and  C_27 
REMARK   12  A    between atoms: C_29  and  O_30 
REMARK   13  A    between atoms: O_30  and  C_31 
REMARK   14  A    between atoms: C_33  and  O_34 
ROOT
HETATM    1  N   UNL     1     -42.855  59.031 -56.677  1.00  0.00    -0.332 N 
HETATM    2  C   UNL     1     -43.738  58.823 -57.712  1.00  0.00     0.278 C 
HETATM    3  O   UNL     1     -44.135  59.640 -58.524  1.00  0.00    -0.265 OA
HETATM    4  C   UNL     1     -44.065  57.385 -57.741  1.00  0.00     0.146 C 
HETATM    5  C   UNL     1     -43.294  56.794 -56.820  1.00  0.00     0.059 C 
HETATM    6  C   UNL     1     -42.545  57.788 -55.981  1.00  0.00     0.161 C 
ENDROOT
BRANCH   5   7
HETATM    7  C   UNL     1     -43.050  55.351 -56.594  1.00  0.00     0.193 C 
HETATM    8  O   UNL     1     -43.470  54.528 -57.403  1.00  0.00    -0.287 OA
BRANCH   7   9
HETATM    9  C   UNL     1     -42.388  54.881 -55.353  1.00  0.00     0.015 A 
HETATM   10  C   UNL     1     -43.112  54.628 -54.183  1.00  0.00     0.025 A 
HETATM   11  C   UNL     1     -42.456  54.216 -53.013  1.00  0.00    -0.028 A 
HETATM   12  C   UNL     1     -43.244  54.023 -51.745  1.00  0.00     0.051 C 
HETATM   13  C   UNL     1     -41.064  54.023 -53.029  1.00  0.00     0.075 A 
HETATM   14  C   UNL     1     -40.357  54.197 -54.222  1.00  0.00     0.038 A 
HETATM   15  C   UNL     1     -41.016  54.627 -55.381  1.00  0.00     0.018 A 
BRANCH  13  16
HETATM   16  O   UNL     1     -40.514  53.657 -51.831  1.00  0.00    -0.346 OA
BRANCH  16  17
HETATM   17  C   UNL     1     -40.442  52.275 -51.468  1.00  0.00     0.121 C 
HETATM   18  C   UNL     1     -39.172  51.631 -52.024  1.00  0.00     0.040 C 
HETATM   19  C   UNL     1     -40.407  52.237 -49.942  1.00  0.00     0.040 C 
ENDBRANCH  16  17
ENDBRANCH  13  16
ENDBRANCH   7   9
ENDBRANCH   5   7
BRANCH   4  20
HETATM   20  O   UNL     1     -44.905  56.832 -58.656  1.00  0.00    -0.355 OA
HETATM   21  H   UNL     1     -44.954  55.874 -58.459  1.00  0.00     0.218 HD
ENDBRANCH   4  20
BRANCH   6  22
HETATM   22  C   UNL     1     -42.984  57.900 -54.528  1.00  0.00    -0.028 A 
HETATM   23  C   UNL     1     -42.016  58.013 -53.509  1.00  0.00     0.049 A 
HETATM   24  C   UNL     1     -42.402  58.177 -52.177  1.00  0.00     0.102 A 
HETATM   25  C   UNL     1     -43.765  58.224 -51.868  1.00  0.00     0.099 A 
HETATM   26  C   UNL     1     -44.737  58.094 -52.848  1.00  0.00     0.040 A 
HETATM   27  C   UNL     1     -44.350  57.929 -54.175  1.00  0.00     0.012 A 
BRANCH  24  28
HETATM   28  O   UNL     1     -41.567  58.322 -51.102  1.00  0.00    -0.349 OA
BRANCH  28  29
HETATM   29  C   UNL     1     -40.887  59.570 -50.968  1.00  0.00     0.171 C 
HETATM   30  C   UNL     1     -39.398  59.280 -50.885  1.00  0.00     0.034 C 
ENDBRANCH  28  29
ENDBRANCH  24  28
BRANCH  25  31
HETATM   31  O   UNL     1     -44.176  58.396 -50.575  1.00  0.00    -0.358 OA
HETATM   32  H   UNL     1     -44.429  57.506 -50.263  1.00  0.00     0.218 HD
ENDBRANCH  25  31
ENDBRANCH   6  22
BRANCH   1  33
HETATM   33  C   UNL     1     -42.033  60.222 -56.558  1.00  0.00     0.155 C 
BRANCH  33  34
HETATM   34  C   UNL     1     -42.823  61.466 -56.112  1.00  0.00     0.254 C 
BRANCH  34  35
HETATM   35  N   UNL     1     -43.592  61.266 -54.808  1.00  0.00    -0.070 N 
HETATM   36  H   UNL     1     -43.725  60.247 -54.734  1.00  0.00     0.279 HD
BRANCH  35  37
HETATM   37  C   UNL     1     -44.998  61.852 -54.804  1.00  0.00     0.230 C 
HETATM   38  C   UNL     1     -45.952  61.044 -55.664  1.00  0.00     0.034 C 
ENDBRANCH  35  37
BRANCH  35  39
HETATM   39  C   UNL     1     -42.841  61.673 -53.552  1.00  0.00     0.230 C 
HETATM   40  C   UNL     1     -43.772  61.804 -52.363  1.00  0.00     0.034 C 
ENDBRANCH  35  39
ENDBRANCH  34  35
ENDBRANCH  33  34
ENDBRANCH   1  33
TORSDOF 14
ENDMDL
MODEL 6
REMARK VINA RESULT:      -6.6      2.283      3.361
REMARK  14 active torsions:
REMARK  status: ('A' for Active; 'I' for Inactive)
REMARK    1  A    between atoms: C_2  and  N_3 
REMARK    2  A    between atoms: N_3  and  C_5 
REMARK    3  A    between atoms: N_3  and  C_37 
REMARK    4  A    between atoms: C_5  and  C_6 
REMARK    5  A    between atoms: C_6  and  N_7 
REMARK    6  A    between atoms: C_10  and  O_11 
REMARK    7  A    between atoms: C_12  and  C_13 
REMARK    8  A    between atoms: C_13  and  C_14 
REMARK    9  A    between atoms: C_18  and  O_19 
REMARK   10  A    between atoms: O_19  and  C_20 
REMARK   11  A    between atoms: C_26  and  C_27 
REMARK   12  A    between atoms: C_29  and  O_30 
REMARK   13  A    between atoms: O_30  and  C_31 
REMARK   14  A    between atoms: C_33  and  O_34 
ROOT
HETATM    1  N   UNL     1     -43.365  59.531 -58.145  1.00  0.00    -0.332 N 
HETATM    2  C   UNL     1     -42.247  59.694 -57.360  1.00  0.00     0.278 C 
HETATM    3  O   UNL     1     -41.348  60.502 -57.508  1.00  0.00    -0.265 OA
HETATM    4  C   UNL     1     -42.360  58.765 -56.220  1.00  0.00     0.146 C 
HETATM    5  C   UNL     1     -43.564  58.187 -56.308  1.00  0.00     0.059 C 
HETATM    6  C   UNL     1     -44.265  58.525 -57.592  1.00  0.00     0.161 C 
ENDROOT
BRANCH   5   7
HETATM    7  C   UNL     1     -44.277  57.360 -55.309  1.00  0.00     0.193 C 
HETATM    8  O   UNL     1     -45.387  57.704 -54.913  1.00  0.00    -0.287 OA
BRANCH   7   9
HETATM    9  C   UNL     1     -43.627  56.170 -54.710  1.00  0.00     0.015 A 
HETATM   10  C   UNL     1     -43.714  55.894 -53.341  1.00  0.00     0.025 A 
HETATM   11  C   UNL     1     -43.060  54.780 -52.794  1.00  0.00    -0.028 A 
HETATM   12  C   UNL     1     -43.104  54.545 -51.308  1.00  0.00     0.051 C 
HETATM   13  C   UNL     1     -42.342  53.914 -53.637  1.00  0.00     0.075 A 
HETATM   14  C   UNL     1     -42.327  54.147 -55.014  1.00  0.00     0.038 A 
HETATM   15  C   UNL     1     -42.966  55.273 -55.550  1.00  0.00     0.018 A 
BRANCH  13  16
HETATM   16  O   UNL     1     -41.711  52.879 -53.003  1.00  0.00    -0.346 OA
BRANCH  16  17
HETATM   17  C   UNL     1     -40.281  52.825 -52.970  1.00  0.00     0.121 C 
HETATM   18  C   UNL     1     -39.775  52.649 -51.538  1.00  0.00     0.040 C 
HETATM   19  C   UNL     1     -39.881  51.610 -53.805  1.00  0.00     0.040 C 
ENDBRANCH  16  17
ENDBRANCH  13  16
ENDBRANCH   7   9
ENDBRANCH   5   7
BRANCH   4  20
HETATM   20  O   UNL     1     -41.424  58.677 -55.237  1.00  0.00    -0.355 OA
HETATM   21  H   UNL     1     -40.792  57.979 -55.504  1.00  0.00     0.218 HD
ENDBRANCH   4  20
BRANCH   6  22
HETATM   22  C   UNL     1     -44.419  57.385 -58.587  1.00  0.00    -0.028 A 
HETATM   23  C   UNL     1     -45.648  57.193 -59.251  1.00  0.00     0.049 A 
HETATM   24  C   UNL     1     -45.789  56.190 -60.212  1.00  0.00     0.102 A 
HETATM   25  C   UNL     1     -44.692  55.373 -60.504  1.00  0.00     0.099 A 
HETATM   26  C   UNL     1     -43.479  55.525 -59.850  1.00  0.00     0.040 A 
HETATM   27  C   UNL     1     -43.341  56.526 -58.892  1.00  0.00     0.012 A 
BRANCH  24  28
HETATM   28  O   UNL     1     -46.915  55.917 -60.942  1.00  0.00    -0.349 OA
BRANCH  28  29
HETATM   29  C   UNL     1     -47.792  57.008 -61.219  1.00  0.00     0.171 C 
HETATM   30  C   UNL     1     -48.417  56.766 -62.582  1.00  0.00     0.034 C 
ENDBRANCH  28  29
ENDBRANCH  24  28
BRANCH  25  31
HETATM   31  O   UNL     1     -44.793  54.389 -61.448  1.00  0.00    -0.358 OA
HETATM   32  H   UNL     1     -45.613  53.905 -61.232  1.00  0.00     0.218 HD
ENDBRANCH  25  31
ENDBRANCH   6  22
BRANCH   1  33
HETATM   33  C   UNL     1     -43.791  60.503 -59.137  1.00  0.00     0.155 C 
BRANCH  33  34
HETATM   34  C   UNL     1     -43.252  60.208 -60.548  1.00  0.00     0.254 C 
BRANCH  34  35
HETATM   35  N   UNL     1     -44.345  60.095 -61.608  1.00  0.00    -0.070 N 
HETATM   36  H   UNL     1     -44.224  59.155 -62.012  1.00  0.00     0.279 HD
BRANCH  35  37
HETATM   37  C   UNL     1     -44.195  61.054 -62.781  1.00  0.00     0.230 C 
HETATM   38  C   UNL     1     -42.746  61.219 -63.198  1.00  0.00     0.034 C 
ENDBRANCH  35  37
BRANCH  35  39
HETATM   39  C   UNL     1     -45.765  60.128 -61.070  1.00  0.00     0.230 C 
HETATM   40  C   UNL     1     -46.732  60.712 -62.082  1.00  0.00     0.034 C 
ENDBRANCH  35  39
ENDBRANCH  34  35
ENDBRANCH  33  34
ENDBRANCH   1  33
TORSDOF 14
ENDMDL
MODEL 7
REMARK VINA RESULT:      -6.5      3.384      5.973
REMARK  14 active torsions:
REMARK  status: ('A' for Active; 'I' for Inactive)
REMARK    1  A    between atoms: C_2  and  N_3 
REMARK    2  A    between atoms: N_3  and  C_5 
REMARK    3  A    between atoms: N_3  and  C_37 
REMARK    4  A    between atoms: C_5  and  C_6 
REMARK    5  A    between atoms: C_6  and  N_7 
REMARK    6  A    between atoms: C_10  and  O_11 
REMARK    7  A    between atoms: C_12  and  C_13 
REMARK    8  A    between atoms: C_13  and  C_14 
REMARK    9  A    between atoms: C_18  and  O_19 
REMARK   10  A    between atoms: O_19  and  C_20 
REMARK   11  A    between atoms: C_26  and  C_27 
REMARK   12  A    between atoms: C_29  and  O_30 
REMARK   13  A    between atoms: O_30  and  C_31 
REMARK   14  A    between atoms: C_33  and  O_34 
ROOT
HETATM    1  N   UNL     1     -42.849  59.507 -51.389  1.00  0.00    -0.332 N 
HETATM    2  C   UNL     1     -41.610  59.283 -50.834  1.00  0.00     0.278 C 
HETATM    3  O   UNL     1     -40.848  60.108 -50.362  1.00  0.00    -0.265 OA
HETATM    4  C   UNL     1     -41.382  57.825 -50.819  1.00  0.00     0.146 C 
HETATM    5  C   UNL     1     -42.514  57.251 -51.245  1.00  0.00     0.059 C 
HETATM    6  C   UNL     1     -43.504  58.257 -51.756  1.00  0.00     0.161 C 
ENDROOT
BRANCH   5   7
HETATM    7  C   UNL     1     -42.910  55.826 -51.204  1.00  0.00     0.193 C 
HETATM    8  O   UNL     1     -43.975  55.504 -50.685  1.00  0.00    -0.287 OA
BRANCH   7   9
HETATM    9  C   UNL     1     -41.992  54.771 -51.697  1.00  0.00     0.015 A 
HETATM   10  C   UNL     1     -41.520  54.763 -53.014  1.00  0.00     0.025 A 
HETATM   11  C   UNL     1     -40.679  53.735 -53.465  1.00  0.00    -0.028 A 
HETATM   12  C   UNL     1     -40.244  53.704 -54.905  1.00  0.00     0.051 C 
HETATM   13  C   UNL     1     -40.278  52.724 -52.572  1.00  0.00     0.075 A 
HETATM   14  C   UNL     1     -40.685  52.783 -51.237  1.00  0.00     0.038 A 
HETATM   15  C   UNL     1     -41.541  53.802 -50.799  1.00  0.00     0.018 A 
BRANCH  13  16
HETATM   16  O   UNL     1     -39.489  51.749 -53.116  1.00  0.00    -0.346 OA
BRANCH  16  17
HETATM   17  C   UNL     1     -40.018  50.436 -53.329  1.00  0.00     0.121 C 
HETATM   18  C   UNL     1     -39.481  49.836 -54.629  1.00  0.00     0.040 C 
HETATM   19  C   UNL     1     -39.550  49.591 -52.146  1.00  0.00     0.040 C 
ENDBRANCH  16  17
ENDBRANCH  13  16
ENDBRANCH   7   9
ENDBRANCH   5   7
BRANCH   4  20
HETATM   20  O   UNL     1     -40.252  57.255 -50.321  1.00  0.00    -0.355 OA
HETATM   21  H   UNL     1     -39.852  57.900 -49.703  1.00  0.00     0.218 HD
ENDBRANCH   4  20
BRANCH   6  22
HETATM   22  C   UNL     1     -43.755  58.242 -53.257  1.00  0.00    -0.028 A 
HETATM   23  C   UNL     1     -42.798  58.793 -54.135  1.00  0.00     0.049 A 
HETATM   24  C   UNL     1     -42.984  58.733 -55.517  1.00  0.00     0.102 A 
HETATM   25  C   UNL     1     -44.137  58.122 -56.020  1.00  0.00     0.099 A 
HETATM   26  C   UNL     1     -45.104  57.593 -55.179  1.00  0.00     0.040 A 
HETATM   27  C   UNL     1     -44.916  57.654 -53.801  1.00  0.00     0.012 A 
BRANCH  24  28
HETATM   28  O   UNL     1     -42.124  59.206 -56.473  1.00  0.00    -0.349 OA
BRANCH  28  29
HETATM   29  C   UNL     1     -42.140  60.611 -56.726  1.00  0.00     0.171 C 
HETATM   30  C   UNL     1     -41.429  60.851 -58.047  1.00  0.00     0.034 C 
ENDBRANCH  28  29
ENDBRANCH  24  28
BRANCH  25  31
HETATM   31  O   UNL     1     -44.343  58.037 -57.369  1.00  0.00    -0.358 OA
HETATM   32  H   UNL     1     -45.263  58.330 -57.510  1.00  0.00     0.218 HD
ENDBRANCH  25  31
ENDBRANCH   6  22
BRANCH   1  33
HETATM   33  C   UNL     1     -43.572  60.758 -51.244  1.00  0.00     0.155 C 
BRANCH  33  34
HETATM   34  C   UNL     1     -44.800  60.649 -50.322  1.00  0.00     0.254 C 
BRANCH  34  35
HETATM   35  N   UNL     1     -44.764  61.614 -49.140  1.00  0.00    -0.070 N 
HETATM   36  H   UNL     1     -43.795  61.570 -48.793  1.00  0.00     0.279 HD
BRANCH  35  37
HETATM   37  C   UNL     1     -45.630  61.203 -47.957  1.00  0.00     0.230 C 
HETATM   38  C   UNL     1     -44.821  61.069 -46.681  1.00  0.00     0.034 C 
ENDBRANCH  35  37
BRANCH  35  39
HETATM   39  C   UNL     1     -45.005  63.071 -49.495  1.00  0.00     0.230 C 
HETATM   40  C   UNL     1     -43.975  63.981 -48.854  1.00  0.00     0.034 C 
ENDBRANCH  35  39
ENDBRANCH  34  35
ENDBRANCH  33  34
ENDBRANCH   1  33
TORSDOF 14
ENDMDL
MODEL 8
REMARK VINA RESULT:      -6.4      2.415      4.029
REMARK  14 active torsions:
REMARK  status: ('A' for Active; 'I' for Inactive)
REMARK    1  A    between atoms: C_2  and  N_3 
REMARK    2  A    between atoms: N_3  and  C_5 
REMARK    3  A    between atoms: N_3  and  C_37 
REMARK    4  A    between atoms: C_5  and  C_6 
REMARK    5  A    between atoms: C_6  and  N_7 
REMARK    6  A    between atoms: C_10  and  O_11 
REMARK    7  A    between atoms: C_12  and  C_13 
REMARK    8  A    between atoms: C_13  and  C_14 
REMARK    9  A    between atoms: C_18  and  O_19 
REMARK   10  A    between atoms: O_19  and  C_20 
REMARK   11  A    between atoms: C_26  and  C_27 
REMARK   12  A    between atoms: C_29  and  O_30 
REMARK   13  A    between atoms: O_30  and  C_31 
REMARK   14  A    between atoms: C_33  and  O_34 
ROOT
HETATM    1  N   UNL     1     -43.111  59.292 -52.173  1.00  0.00    -0.332 N 
HETATM    2  C   UNL     1     -42.159  59.326 -51.179  1.00  0.00     0.278 C 
HETATM    3  O   UNL     1     -41.669  60.311 -50.656  1.00  0.00    -0.265 OA
HETATM    4  C   UNL     1     -41.886  57.936 -50.771  1.00  0.00     0.146 C 
HETATM    5  C   UNL     1     -42.748  57.159 -51.439  1.00  0.00     0.059 C 
HETATM    6  C   UNL     1     -43.521  57.925 -52.472  1.00  0.00     0.161 C 
ENDROOT
BRANCH   5   7
HETATM    7  C   UNL     1     -43.064  55.727 -51.236  1.00  0.00     0.193 C 
HETATM    8  O   UNL     1     -44.110  55.406 -50.680  1.00  0.00    -0.287 OA
BRANCH   7   9
HETATM    9  C   UNL     1     -42.086  54.677 -51.611  1.00  0.00     0.015 A 
HETATM   10  C   UNL     1     -41.623  54.537 -52.924  1.00  0.00     0.025 A 
HETATM   11  C   UNL     1     -40.724  53.514 -53.259  1.00  0.00    -0.028 A 
HETATM   12  C   UNL     1     -40.298  53.334 -54.692  1.00  0.00     0.051 C 
HETATM   13  C   UNL     1     -40.257  52.644 -52.257  1.00  0.00     0.075 A 
HETATM   14  C   UNL     1     -40.659  52.840 -50.933  1.00  0.00     0.038 A 
HETATM   15  C   UNL     1     -41.572  53.852 -50.610  1.00  0.00     0.018 A 
BRANCH  13  16
HETATM   16  O   UNL     1     -39.414  51.659 -52.690  1.00  0.00    -0.346 OA
BRANCH  16  17
HETATM   17  C   UNL     1     -39.932  50.363 -53.010  1.00  0.00     0.121 C 
HETATM   18  C   UNL     1     -39.323  49.839 -54.311  1.00  0.00     0.040 C 
HETATM   19  C   UNL     1     -39.531  49.448 -51.855  1.00  0.00     0.040 C 
ENDBRANCH  16  17
ENDBRANCH  13  16
ENDBRANCH   7   9
ENDBRANCH   5   7
BRANCH   4  20
HETATM   20  O   UNL     1     -40.998  57.608 -49.794  1.00  0.00    -0.355 OA
HETATM   21  H   UNL     1     -40.852  56.642 -49.851  1.00  0.00     0.218 HD
ENDBRANCH   4  20
BRANCH   6  22
HETATM   22  C   UNL     1     -43.193  57.606 -53.923  1.00  0.00    -0.028 A 
HETATM   23  C   UNL     1     -44.218  57.604 -54.892  1.00  0.00     0.049 A 
HETATM   24  C   UNL     1     -43.925  57.373 -56.237  1.00  0.00     0.102 A 
HETATM   25  C   UNL     1     -42.597  57.140 -56.610  1.00  0.00     0.099 A 
HETATM   26  C   UNL     1     -41.574  57.113 -55.676  1.00  0.00     0.040 A 
HETATM   27  C   UNL     1     -41.869  57.343 -54.335  1.00  0.00     0.012 A 
BRANCH  24  28
HETATM   28  O   UNL     1     -44.819  57.369 -57.274  1.00  0.00    -0.349 OA
BRANCH  28  29
HETATM   29  C   UNL     1     -45.429  58.614 -57.614  1.00  0.00     0.171 C 
HETATM   30  C   UNL     1     -46.933  58.444 -57.483  1.00  0.00     0.034 C 
ENDBRANCH  28  29
ENDBRANCH  24  28
BRANCH  25  31
HETATM   31  O   UNL     1     -42.275  56.922 -57.922  1.00  0.00    -0.358 OA
HETATM   32  H   UNL     1     -41.300  56.946 -57.957  1.00  0.00     0.218 HD
ENDBRANCH  25  31
ENDBRANCH   6  22
BRANCH   1  33
HETATM   33  C   UNL     1     -43.894  60.450 -52.567  1.00  0.00     0.155 C 
BRANCH  33  34
HETATM   34  C   UNL     1     -43.220  61.297 -53.662  1.00  0.00     0.254 C 
BRANCH  34  35
HETATM   35  N   UNL     1     -44.165  61.700 -54.791  1.00  0.00    -0.070 N 
HETATM   36  H   UNL     1     -44.337  62.705 -54.644  1.00  0.00     0.279 HD
BRANCH  35  37
HETATM   37  C   UNL     1     -45.540  61.048 -54.731  1.00  0.00     0.230 C 
HETATM   38  C   UNL     1     -46.648  62.073 -54.582  1.00  0.00     0.034 C 
ENDBRANCH  35  37
BRANCH  35  39
HETATM   39  C   UNL     1     -43.581  61.584 -56.188  1.00  0.00     0.230 C 
HETATM   40  C   UNL     1     -42.317  60.746 -56.198  1.00  0.00     0.034 C 
ENDBRANCH  35  39
ENDBRANCH  34  35
ENDBRANCH  33  34
ENDBRANCH   1  33
TORSDOF 14
ENDMDL
MODEL 9
REMARK VINA RESULT:      -6.4      2.626      3.962
REMARK  14 active torsions:
REMARK  status: ('A' for Active; 'I' for Inactive)
REMARK    1  A    between atoms: C_2  and  N_3 
REMARK    2  A    between atoms: N_3  and  C_5 
REMARK    3  A    between atoms: N_3  and  C_37 
REMARK    4  A    between atoms: C_5  and  C_6 
REMARK    5  A    between atoms: C_6  and  N_7 
REMARK    6  A    between atoms: C_10  and  O_11 
REMARK    7  A    between atoms: C_12  and  C_13 
REMARK    8  A    between atoms: C_13  and  C_14 
REMARK    9  A    between atoms: C_18  and  O_19 
REMARK   10  A    between atoms: O_19  and  C_20 
REMARK   11  A    between atoms: C_26  and  C_27 
REMARK   12  A    between atoms: C_29  and  O_30 
REMARK   13  A    between atoms: O_30  and  C_31 
REMARK   14  A    between atoms: C_33  and  O_34 
ROOT
HETATM    1  N   UNL     1     -43.882  59.996 -52.356  1.00  0.00    -0.332 N 
HETATM    2  C   UNL     1     -42.818  60.133 -51.495  1.00  0.00     0.278 C 
HETATM    3  O   UNL     1     -42.256  61.164 -51.170  1.00  0.00    -0.265 OA
HETATM    4  C   UNL     1     -42.515  58.801 -50.939  1.00  0.00     0.146 C 
HETATM    5  C   UNL     1     -43.462  57.968 -51.391  1.00  0.00     0.059 C 
HETATM    6  C   UNL     1     -44.344  58.614 -52.420  1.00  0.00     0.161 C 
ENDROOT
BRANCH   5   7
HETATM    7  C   UNL     1     -43.769  56.585 -50.963  1.00  0.00     0.193 C 
HETATM    8  O   UNL     1     -44.846  56.337 -50.429  1.00  0.00    -0.287 OA
BRANCH   7   9
HETATM    9  C   UNL     1     -42.752  55.513 -51.083  1.00  0.00     0.015 A 
HETATM   10  C   UNL     1     -41.716  55.373 -50.154  1.00  0.00     0.025 A 
HETATM   11  C   UNL     1     -40.746  54.371 -50.310  1.00  0.00    -0.028 A 
HETATM   12  C   UNL     1     -39.598  54.286 -49.341  1.00  0.00     0.051 C 
HETATM   13  C   UNL     1     -40.841  53.477 -51.391  1.00  0.00     0.075 A 
HETATM   14  C   UNL     1     -41.924  53.569 -52.270  1.00  0.00     0.038 A 
HETATM   15  C   UNL     1     -42.876  54.584 -52.118  1.00  0.00     0.018 A 
BRANCH  13  16
HETATM   16  O   UNL     1     -39.829  52.560 -51.477  1.00  0.00    -0.346 OA
BRANCH  16  17
HETATM   17  C   UNL     1     -40.043  51.318 -52.156  1.00  0.00     0.121 C 
HETATM   18  C   UNL     1     -39.302  51.292 -53.492  1.00  0.00     0.040 C 
HETATM   19  C   UNL     1     -39.484  50.231 -51.240  1.00  0.00     0.040 C 
ENDBRANCH  16  17
ENDBRANCH  13  16
ENDBRANCH   7   9
ENDBRANCH   5   7
BRANCH   4  20
HETATM   20  O   UNL     1     -41.521  58.580 -50.038  1.00  0.00    -0.355 OA
HETATM   21  H   UNL     1     -41.943  58.241 -49.222  1.00  0.00     0.218 HD
ENDBRANCH   4  20
BRANCH   6  22
HETATM   22  C   UNL     1     -44.195  58.097 -53.843  1.00  0.00    -0.028 A 
HETATM   23  C   UNL     1     -43.003  57.455 -54.237  1.00  0.00     0.049 A 
HETATM   24  C   UNL     1     -42.873  56.922 -55.521  1.00  0.00     0.102 A 
HETATM   25  C   UNL     1     -43.943  57.037 -56.413  1.00  0.00     0.099 A 
HETATM   26  C   UNL     1     -45.118  57.683 -56.060  1.00  0.00     0.040 A 
HETATM   27  C   UNL     1     -45.245  58.215 -54.779  1.00  0.00     0.012 A 
BRANCH  24  28
HETATM   28  O   UNL     1     -41.784  56.257 -56.017  1.00  0.00    -0.349 OA
BRANCH  28  29
HETATM   29  C   UNL     1     -41.602  54.903 -55.603  1.00  0.00     0.171 C 
HETATM   30  C   UNL     1     -40.196  54.775 -55.041  1.00  0.00     0.034 C 
ENDBRANCH  28  29
ENDBRANCH  24  28
BRANCH  25  31
HETATM   31  O   UNL     1     -43.852  56.515 -57.674  1.00  0.00    -0.358 OA
HETATM   32  H   UNL     1     -44.707  56.072 -57.834  1.00  0.00     0.218 HD
ENDBRANCH  25  31
ENDBRANCH   6  22
BRANCH   1  33
HETATM   33  C   UNL     1     -44.692  61.113 -52.808  1.00  0.00     0.155 C 
BRANCH  33  34
HETATM   34  C   UNL     1     -44.021  61.943 -53.917  1.00  0.00     0.254 C 
BRANCH  34  35
HETATM   35  N   UNL     1     -43.893  61.199 -55.244  1.00  0.00    -0.070 N 
HETATM   36  H   UNL     1     -44.348  60.289 -55.081  1.00  0.00     0.279 HD
BRANCH  35  37
HETATM   37  C   UNL     1     -42.464  60.862 -55.648  1.00  0.00     0.230 C 
HETATM   38  C   UNL     1     -42.384  60.345 -57.072  1.00  0.00     0.034 C 
ENDBRANCH  35  37
BRANCH  35  39
HETATM   39  C   UNL     1     -44.641  61.828 -56.407  1.00  0.00     0.230 C 
HETATM   40  C   UNL     1     -46.140  61.632 -56.278  1.00  0.00     0.034 C 
ENDBRANCH  35  39
ENDBRANCH  34  35
ENDBRANCH  33  34
ENDBRANCH   1  33
TORSDOF 14
ENDMDL
MODEL 10
REMARK VINA RESULT:      -6.3      3.142      7.851
REMARK  14 active torsions:
REMARK  status: ('A' for Active; 'I' for Inactive)
REMARK    1  A    between atoms: C_2  and  N_3 
REMARK    2  A    between atoms: N_3  and  C_5 
REMARK    3  A    between atoms: N_3  and  C_37 
REMARK    4  A    between atoms: C_5  and  C_6 
REMARK    5  A    between atoms: C_6  and  N_7 
REMARK    6  A    between atoms: C_10  and  O_11 
REMARK    7  A    between atoms: C_12  and  C_13 
REMARK    8  A    between atoms: C_13  and  C_14 
REMARK    9  A    between atoms: C_18  and  O_19 
REMARK   10  A    between atoms: O_19  and  C_20 
REMARK   11  A    between atoms: C_26  and  C_27 
REMARK   12  A    between atoms: C_29  and  O_30 
REMARK   13  A    between atoms: O_30  and  C_31 
REMARK   14  A    between atoms: C_33  and  O_34 
ROOT
HETATM    1  N   UNL     1     -41.148  55.451 -52.565  1.00  0.00    -0.332 N 
HETATM    2  C   UNL     1     -41.197  55.415 -51.190  1.00  0.00     0.278 C 
HETATM    3  O   UNL     1     -41.138  54.433 -50.471  1.00  0.00    -0.265 OA
HETATM    4  C   UNL     1     -41.242  56.808 -50.706  1.00  0.00     0.146 C 
HETATM    5  C   UNL     1     -41.102  57.596 -51.780  1.00  0.00     0.059 C 
HETATM    6  C   UNL     1     -41.148  56.821 -53.064  1.00  0.00     0.161 C 
ENDROOT
BRANCH   5   7
HETATM    7  C   UNL     1     -40.847  59.053 -51.840  1.00  0.00     0.193 C 
HETATM    8  O   UNL     1     -39.692  59.468 -51.875  1.00  0.00    -0.287 OA
BRANCH   7   9
HETATM    9  C   UNL     1     -41.967  60.020 -51.764  1.00  0.00     0.015 A 
HETATM   10  C   UNL     1     -42.535  60.394 -50.541  1.00  0.00     0.025 A 
HETATM   11  C   UNL     1     -43.617  61.286 -50.498  1.00  0.00    -0.028 A 
HETATM   12  C   UNL     1     -44.261  61.615 -49.178  1.00  0.00     0.051 C 
HETATM   13  C   UNL     1     -44.110  61.836 -51.695  1.00  0.00     0.075 A 
HETATM   14  C   UNL     1     -43.486  61.524 -52.906  1.00  0.00     0.038 A 
HETATM   15  C   UNL     1     -42.419  60.618 -52.941  1.00  0.00     0.018 A 
BRANCH  13  16
HETATM   16  O   UNL     1     -45.188  62.665 -51.551  1.00  0.00    -0.346 OA
BRANCH  16  17
HETATM   17  C   UNL     1     -46.204  62.699 -52.559  1.00  0.00     0.121 C 
HETATM   18  C   UNL     1     -47.246  61.607 -52.321  1.00  0.00     0.040 C 
HETATM   19  C   UNL     1     -46.868  64.070 -52.447  1.00  0.00     0.040 C 
ENDBRANCH  16  17
ENDBRANCH  13  16
ENDBRANCH   7   9
ENDBRANCH   5   7
BRANCH   4  20
HETATM   20  O   UNL     1     -41.283  57.135 -49.387  1.00  0.00    -0.355 OA
HETATM   21  H   UNL     1     -42.051  56.670 -48.999  1.00  0.00     0.218 HD
ENDBRANCH   4  20
BRANCH   6  22
HETATM   22  C   UNL     1     -42.379  57.041 -53.932  1.00  0.00    -0.028 A 
HETATM   23  C   UNL     1     -42.254  57.061 -55.336  1.00  0.00     0.049 A 
HETATM   24  C   UNL     1     -43.380  57.201 -56.149  1.00  0.00     0.102 A 
HETATM   25  C   UNL     1     -44.637  57.326 -55.548  1.00  0.00     0.099 A 
HETATM   26  C   UNL     1     -44.786  57.332 -54.170  1.00  0.00     0.040 A 
HETATM   27  C   UNL     1     -43.660  57.193 -53.362  1.00  0.00     0.012 A 
BRANCH  24  28
HETATM   28  O   UNL     1     -43.398  57.212 -57.518  1.00  0.00    -0.349 OA
BRANCH  28  29
HETATM   29  C   UNL     1     -42.957  56.029 -58.184  1.00  0.00     0.171 C 
HETATM   30  C   UNL     1     -43.998  55.672 -59.231  1.00  0.00     0.034 C 
ENDBRANCH  28  29
ENDBRANCH  24  28
BRANCH  25  31
HETATM   31  O   UNL     1     -45.762  57.453 -56.316  1.00  0.00    -0.358 OA
HETATM   32  H   UNL     1     -45.563  56.983 -57.148  1.00  0.00     0.218 HD
ENDBRANCH  25  31
ENDBRANCH   6  22
BRANCH   1  33
HETATM   33  C   UNL     1     -40.733  54.321 -53.377  1.00  0.00     0.155 C 
BRANCH  33  34
HETATM   34  C   UNL     1     -41.105  52.959 -52.763  1.00  0.00     0.254 C 
BRANCH  34  35
HETATM   35  N   UNL     1     -39.900  52.154 -52.286  1.00  0.00    -0.070 N 
HETATM   36  H   UNL     1     -39.151  52.850 -52.159  1.00  0.00     0.279 HD
BRANCH  35  37
HETATM   37  C   UNL     1     -39.353  51.164 -53.306  1.00  0.00     0.230 C 
HETATM   38  C   UNL     1     -40.383  50.809 -54.361  1.00  0.00     0.034 C 
ENDBRANCH  35  37
BRANCH  35  39
HETATM   39  C   UNL     1     -40.071  51.485 -50.933  1.00  0.00     0.230 C 
HETATM   40  C   UNL     1     -39.607  50.041 -50.961  1.00  0.00     0.034 C 
ENDBRANCH  35  39
ENDBRANCH  34  35
ENDBRANCH  33  34
ENDBRANCH   1  33
TORSDOF 14
ENDMDL
