MODEL 1
REMARK VINA RESULT:      -8.8      0.000      0.000
REMARK  7 active torsions:
REMARK  status: ('A' for Active; 'I' for Inactive)
REMARK    1  A    between atoms: N_2  and  C_4 
REMARK    2  A    between atoms: N_2  and  C_27 
REMARK    3  A    between atoms: C_4  and  C_5 
REMARK       I    between atoms: C_5  and  N_6 
REMARK    4  A    between atoms: N_6  and  N_7 
REMARK    5  A    between atoms: C_11  and  C_12 
REMARK    6  A    between atoms: C_11  and  C_18 
REMARK    7  A    between atoms: C_27  and  C_28 
ROOT
HETATM    1  N   UNL     1     -43.306  57.935 -51.315  1.00  0.00    -0.167 N 
HETATM    2  C   UNL     1     -44.316  57.037 -51.123  1.00  0.00     0.346 C 
HETATM    3  O   UNL     1     -45.434  57.279 -50.702  1.00  0.00    -0.245 OA
HETATM    4  N   UNL     1     -43.849  55.787 -51.423  1.00  0.00    -0.315 N 
HETATM    5  C   UNL     1     -42.412  55.733 -51.687  1.00  0.00     0.173 C 
HETATM    6  C   UNL     1     -42.118  57.273 -51.519  1.00  0.00     0.285 C 
HETATM    7  O   UNL     1     -41.031  57.844 -51.574  1.00  0.00    -0.267 OA
HETATM    8  H   UNL     1     -44.445  54.981 -51.295  1.00  0.00     0.166 HD
ENDROOT
BRANCH   1   9
HETATM    9  N   UNL     1     -43.376  59.207 -50.752  1.00  0.00    -0.255 N 
HETATM   10  C   UNL     1     -43.917  60.302 -51.364  1.00  0.00     0.262 C 
HETATM   11  O   UNL     1     -44.090  61.335 -50.712  1.00  0.00    -0.270 OA
HETATM   12  H   UNL     1     -43.235  59.254 -49.744  1.00  0.00     0.191 HD
BRANCH  10  13
HETATM   13  C   UNL     1     -44.299  60.234 -52.848  1.00  0.00     0.338 C 
BRANCH  13  14
HETATM   14  N   UNL     1     -43.388  61.037 -53.791  1.00  0.00    -0.061 N 
HETATM   15  C   UNL     1     -44.111  61.594 -54.975  1.00  0.00     0.270 C 
HETATM   16  H   UNL     1     -43.060  61.830 -53.217  1.00  0.00     0.280 HD
BRANCH  14  17
HETATM   17  C   UNL     1     -42.100  60.312 -54.165  1.00  0.00     0.301 C 
BRANCH  17  18
HETATM   18  C   UNL     1     -42.285  59.506 -55.418  1.00  0.00     0.102 A 
HETATM   19  S   UNL     1     -43.146  58.033 -55.400  1.00  0.00    -0.071 SA
HETATM   20  C   UNL     1     -42.860  57.849 -57.089  1.00  0.00     0.035 A 
HETATM   21  C   UNL     1     -42.121  58.944 -57.548  1.00  0.00     0.074 A 
HETATM   22  C   UNL     1     -43.259  56.812 -57.946  1.00  0.00     0.021 A 
HETATM   23  N   UNL     1     -41.795  59.888 -56.581  1.00  0.00    -0.243 NA
HETATM   24  C   UNL     1     -41.771  59.003 -58.911  1.00  0.00     0.033 A 
HETATM   25  C   UNL     1     -42.164  57.974 -59.773  1.00  0.00     0.002 A 
HETATM   26  C   UNL     1     -42.899  56.894 -59.293  1.00  0.00     0.002 A 
ENDBRANCH  17  18
ENDBRANCH  14  17
ENDBRANCH  13  14
ENDBRANCH  10  13
ENDBRANCH   1   9
BRANCH   5  27
HETATM   27  C   UNL     1     -42.155  55.233 -53.116  1.00  0.00    -0.016 A 
HETATM   28  C   UNL     1     -43.160  54.604 -53.873  1.00  0.00     0.010 A 
HETATM   29  C   UNL     1     -42.920  54.177 -55.183  1.00  0.00     0.001 A 
HETATM   30  C   UNL     1     -41.676  54.381 -55.769  1.00  0.00     0.000 A 
HETATM   31  C   UNL     1     -40.672  55.022 -55.051  1.00  0.00     0.001 A 
HETATM   32  C   UNL     1     -40.910  55.451 -53.743  1.00  0.00     0.010 A 
ENDBRANCH   5  27
BRANCH   5  33
HETATM   33  C   UNL     1     -41.661  54.904 -50.635  1.00  0.00    -0.016 A 
HETATM   34  C   UNL     1     -41.441  55.377 -49.327  1.00  0.00     0.010 A 
HETATM   35  C   UNL     1     -40.762  54.601 -48.381  1.00  0.00     0.001 A 
HETATM   36  C   UNL     1     -40.299  53.334 -48.716  1.00  0.00     0.000 A 
HETATM   37  C   UNL     1     -40.524  52.833 -49.992  1.00  0.00     0.001 A 
HETATM   38  C   UNL     1     -41.204  53.606 -50.937  1.00  0.00     0.010 A 
ENDBRANCH   5  33
TORSDOF 7
ENDMDL
MODEL 2
REMARK VINA RESULT:      -8.1      2.689      7.608
REMARK  7 active torsions:
REMARK  status: ('A' for Active; 'I' for Inactive)
REMARK    1  A    between atoms: N_2  and  C_4 
REMARK    2  A    between atoms: N_2  and  C_27 
REMARK    3  A    between atoms: C_4  and  C_5 
REMARK       I    between atoms: C_5  and  N_6 
REMARK    4  A    between atoms: N_6  and  N_7 
REMARK    5  A    between atoms: C_11  and  C_12 
REMARK    6  A    between atoms: C_11  and  C_18 
REMARK    7  A    between atoms: C_27  and  C_28 
ROOT
HETATM    1  N   UNL     1     -43.420  58.420 -55.722  1.00  0.00    -0.167 N 
HETATM    2  C   UNL     1     -42.256  57.735 -55.916  1.00  0.00     0.346 C 
HETATM    3  O   UNL     1     -41.418  57.470 -55.072  1.00  0.00    -0.245 OA
HETATM    4  N   UNL     1     -42.142  57.441 -57.248  1.00  0.00    -0.315 N 
HETATM    5  C   UNL     1     -43.165  58.062 -58.087  1.00  0.00     0.173 C 
HETATM    6  C   UNL     1     -43.966  58.779 -56.932  1.00  0.00     0.285 C 
HETATM    7  O   UNL     1     -44.936  59.525 -57.038  1.00  0.00    -0.267 OA
HETATM    8  H   UNL     1     -41.316  56.972 -57.592  1.00  0.00     0.166 HD
ENDROOT
BRANCH   1   9
HETATM    9  N   UNL     1     -43.621  59.153 -54.555  1.00  0.00    -0.255 N 
HETATM   10  C   UNL     1     -44.028  58.626 -53.362  1.00  0.00     0.262 C 
HETATM   11  O   UNL     1     -44.003  59.331 -52.350  1.00  0.00    -0.270 OA
HETATM   12  H   UNL     1     -43.207  60.085 -54.539  1.00  0.00     0.191 HD
BRANCH  10  13
HETATM   13  C   UNL     1     -44.511  57.172 -53.298  1.00  0.00     0.338 C 
BRANCH  13  14
HETATM   14  N   UNL     1     -43.788  56.291 -52.267  1.00  0.00    -0.061 N 
HETATM   15  C   UNL     1     -44.365  56.397 -50.892  1.00  0.00     0.270 C 
HETATM   16  H   UNL     1     -43.941  55.326 -52.602  1.00  0.00     0.280 HD
BRANCH  14  17
HETATM   17  C   UNL     1     -42.271  56.437 -52.290  1.00  0.00     0.301 C 
BRANCH  17  18
HETATM   18  C   UNL     1     -41.606  55.097 -52.408  1.00  0.00     0.102 A 
HETATM   19  S   UNL     1     -40.899  54.340 -51.051  1.00  0.00    -0.071 SA
HETATM   20  C   UNL     1     -40.433  53.009 -52.042  1.00  0.00     0.035 A 
HETATM   21  C   UNL     1     -40.862  53.243 -53.352  1.00  0.00     0.074 A 
HETATM   22  C   UNL     1     -39.738  51.842 -51.686  1.00  0.00     0.021 A 
HETATM   23  N   UNL     1     -41.532  54.445 -53.551  1.00  0.00    -0.243 NA
HETATM   24  C   UNL     1     -40.586  52.277 -54.339  1.00  0.00     0.033 A 
HETATM   25  C   UNL     1     -39.894  51.112 -53.994  1.00  0.00     0.002 A 
HETATM   26  C   UNL     1     -39.476  50.900 -52.684  1.00  0.00     0.002 A 
ENDBRANCH  17  18
ENDBRANCH  14  17
ENDBRANCH  13  14
ENDBRANCH  10  13
ENDBRANCH   1   9
BRANCH   5  27
HETATM   27  C   UNL     1     -43.992  56.984 -58.801  1.00  0.00    -0.016 A 
HETATM   28  C   UNL     1     -45.254  57.265 -59.356  1.00  0.00     0.010 A 
HETATM   29  C   UNL     1     -45.986  56.280 -60.027  1.00  0.00     0.001 A 
HETATM   30  C   UNL     1     -45.467  54.997 -60.170  1.00  0.00     0.000 A 
HETATM   31  C   UNL     1     -44.212  54.700 -59.652  1.00  0.00     0.001 A 
HETATM   32  C   UNL     1     -43.478  55.683 -58.983  1.00  0.00     0.010 A 
ENDBRANCH   5  27
BRANCH   5  33
HETATM   33  C   UNL     1     -42.568  59.083 -59.066  1.00  0.00    -0.016 A 
HETATM   34  C   UNL     1     -42.537  58.858 -60.456  1.00  0.00     0.010 A 
HETATM   35  C   UNL     1     -41.996  59.806 -61.331  1.00  0.00     0.001 A 
HETATM   36  C   UNL     1     -41.485  61.002 -60.841  1.00  0.00     0.000 A 
HETATM   37  C   UNL     1     -41.524  61.260 -59.476  1.00  0.00     0.001 A 
HETATM   38  C   UNL     1     -42.067  60.315 -58.601  1.00  0.00     0.010 A 
ENDBRANCH   5  33
TORSDOF 7
ENDMDL
MODEL 3
REMARK VINA RESULT:      -8.0      2.292      6.682
REMARK  7 active torsions:
REMARK  status: ('A' for Active; 'I' for Inactive)
REMARK    1  A    between atoms: N_2  and  C_4 
REMARK    2  A    between atoms: N_2  and  C_27 
REMARK    3  A    between atoms: C_4  and  C_5 
REMARK       I    between atoms: C_5  and  N_6 
REMARK    4  A    between atoms: N_6  and  N_7 
REMARK    5  A    between atoms: C_11  and  C_12 
REMARK    6  A    between atoms: C_11  and  C_18 
REMARK    7  A    between atoms: C_27  and  C_28 
ROOT
HETATM    1  N   UNL     1     -43.044  59.462 -56.376  1.00  0.00    -0.167 N 
HETATM    2  C   UNL     1     -41.980  59.282 -57.211  1.00  0.00     0.346 C 
HETATM    3  O   UNL     1     -41.249  60.150 -57.656  1.00  0.00    -0.245 OA
HETATM    4  N   UNL     1     -41.898  57.954 -57.530  1.00  0.00    -0.315 N 
HETATM    5  C   UNL     1     -43.023  57.153 -57.050  1.00  0.00     0.173 C 
HETATM    6  C   UNL     1     -43.799  58.314 -56.317  1.00  0.00     0.285 C 
HETATM    7  O   UNL     1     -44.888  58.253 -55.752  1.00  0.00    -0.267 OA
HETATM    8  H   UNL     1     -41.194  57.634 -58.180  1.00  0.00     0.166 HD
ENDROOT
BRANCH   1   9
HETATM    9  N   UNL     1     -43.583  60.732 -56.183  1.00  0.00    -0.255 N 
HETATM   10  C   UNL     1     -43.327  61.533 -55.107  1.00  0.00     0.262 C 
HETATM   11  O   UNL     1     -43.713  62.705 -55.120  1.00  0.00    -0.270 OA
HETATM   12  H   UNL     1     -43.992  61.170 -57.008  1.00  0.00     0.191 HD
BRANCH  10  13
HETATM   13  C   UNL     1     -42.571  60.966 -53.899  1.00  0.00     0.338 C 
BRANCH  13  14
HETATM   14  N   UNL     1     -43.422  60.128 -52.933  1.00  0.00    -0.061 N 
HETATM   15  C   UNL     1     -44.840  60.595 -52.840  1.00  0.00     0.270 C 
HETATM   16  H   UNL     1     -43.426  59.183 -53.348  1.00  0.00     0.280 HD
BRANCH  14  17
HETATM   17  C   UNL     1     -42.774  59.914 -51.569  1.00  0.00     0.301 C 
BRANCH  17  18
HETATM   18  C   UNL     1     -42.479  58.461 -51.340  1.00  0.00     0.102 A 
HETATM   19  S   UNL     1     -40.937  57.944 -50.823  1.00  0.00    -0.071 SA
HETATM   20  C   UNL     1     -41.482  56.310 -50.840  1.00  0.00     0.035 A 
HETATM   21  C   UNL     1     -42.822  56.281 -51.241  1.00  0.00     0.074 A 
HETATM   22  C   UNL     1     -40.777  55.139 -50.522  1.00  0.00     0.021 A 
HETATM   23  N   UNL     1     -43.384  57.520 -51.526  1.00  0.00    -0.243 NA
HETATM   24  C   UNL     1     -43.477  55.037 -51.326  1.00  0.00     0.033 A 
HETATM   25  C   UNL     1     -42.783  53.864 -51.012  1.00  0.00     0.002 A 
HETATM   26  C   UNL     1     -41.450  53.918 -50.616  1.00  0.00     0.002 A 
ENDBRANCH  17  18
ENDBRANCH  14  17
ENDBRANCH  13  14
ENDBRANCH  10  13
ENDBRANCH   1   9
BRANCH   5  27
HETATM   27  C   UNL     1     -42.528  56.069 -56.084  1.00  0.00    -0.016 A 
HETATM   28  C   UNL     1     -43.204  54.844 -55.936  1.00  0.00     0.010 A 
HETATM   29  C   UNL     1     -42.728  53.853 -55.070  1.00  0.00     0.001 A 
HETATM   30  C   UNL     1     -41.558  54.059 -54.346  1.00  0.00     0.000 A 
HETATM   31  C   UNL     1     -40.857  55.251 -54.493  1.00  0.00     0.001 A 
HETATM   32  C   UNL     1     -41.331  56.241 -55.358  1.00  0.00     0.010 A 
ENDBRANCH   5  27
BRANCH   5  33
HETATM   33  C   UNL     1     -43.852  56.572 -58.205  1.00  0.00    -0.016 A 
HETATM   34  C   UNL     1     -45.022  57.197 -58.676  1.00  0.00     0.010 A 
HETATM   35  C   UNL     1     -45.757  56.654 -59.735  1.00  0.00     0.001 A 
HETATM   36  C   UNL     1     -45.335  55.483 -60.355  1.00  0.00     0.000 A 
HETATM   37  C   UNL     1     -44.170  54.859 -59.926  1.00  0.00     0.001 A 
HETATM   38  C   UNL     1     -43.433  55.401 -58.869  1.00  0.00     0.010 A 
ENDBRANCH   5  33
TORSDOF 7
ENDMDL
MODEL 4
REMARK VINA RESULT:      -8.0     17.300     20.835
REMARK  7 active torsions:
REMARK  status: ('A' for Active; 'I' for Inactive)
REMARK    1  A    between atoms: N_2  and  C_4 
REMARK    2  A    between atoms: N_2  and  C_27 
REMARK    3  A    between atoms: C_4  and  C_5 
REMARK       I    between atoms: C_5  and  N_6 
REMARK    4  A    between atoms: N_6  and  N_7 
REMARK    5  A    between atoms: C_11  and  C_12 
REMARK    6  A    between atoms: C_11  and  C_18 
REMARK    7  A    between atoms: C_27  and  C_28 
ROOT
HETATM    1  N   UNL     1     -35.854  40.480 -53.347  1.00  0.00    -0.167 N 
HETATM    2  C   UNL     1     -35.471  41.756 -53.640  1.00  0.00     0.346 C 
HETATM    3  O   UNL     1     -35.558  42.728 -52.909  1.00  0.00    -0.245 OA
HETATM    4  N   UNL     1     -35.022  41.790 -54.932  1.00  0.00    -0.315 N 
HETATM    5  C   UNL     1     -35.229  40.544 -55.669  1.00  0.00     0.173 C 
HETATM    6  C   UNL     1     -35.878  39.719 -54.492  1.00  0.00     0.285 C 
HETATM    7  O   UNL     1     -36.326  38.575 -54.530  1.00  0.00    -0.267 OA
HETATM    8  H   UNL     1     -34.736  42.667 -55.344  1.00  0.00     0.166 HD
ENDROOT
BRANCH   1   9
HETATM    9  N   UNL     1     -36.676  40.224 -52.252  1.00  0.00    -0.255 N 
HETATM   10  C   UNL     1     -36.283  39.571 -51.117  1.00  0.00     0.262 C 
HETATM   11  O   UNL     1     -37.035  39.553 -50.139  1.00  0.00    -0.270 OA
HETATM   12  H   UNL     1     -37.537  40.767 -52.206  1.00  0.00     0.191 HD
BRANCH  10  13
HETATM   13  C   UNL     1     -34.921  38.868 -51.077  1.00  0.00     0.338 C 
BRANCH  13  14
HETATM   14  N   UNL     1     -33.866  39.545 -50.187  1.00  0.00    -0.061 N 
HETATM   15  C   UNL     1     -33.560  40.949 -50.599  1.00  0.00     0.270 C 
HETATM   16  H   UNL     1     -34.301  39.576 -49.252  1.00  0.00     0.280 HD
BRANCH  14  17
HETATM   17  C   UNL     1     -32.614  38.702 -49.968  1.00  0.00     0.301 C 
BRANCH  17  18
HETATM   18  C   UNL     1     -32.077  38.894 -48.580  1.00  0.00     0.102 A 
HETATM   19  S   UNL     1     -32.682  37.988 -47.266  1.00  0.00    -0.071 SA
HETATM   20  C   UNL     1     -31.597  38.807 -46.207  1.00  0.00     0.035 A 
HETATM   21  C   UNL     1     -30.840  39.721 -46.947  1.00  0.00     0.074 A 
HETATM   22  C   UNL     1     -31.427  38.652 -44.822  1.00  0.00     0.021 A 
HETATM   23  N   UNL     1     -31.125  39.764 -48.307  1.00  0.00    -0.243 NA
HETATM   24  C   UNL     1     -29.882  40.507 -46.278  1.00  0.00     0.033 A 
HETATM   25  C   UNL     1     -29.706  40.360 -44.898  1.00  0.00     0.002 A 
HETATM   26  C   UNL     1     -30.471  39.444 -44.182  1.00  0.00     0.002 A 
ENDBRANCH  17  18
ENDBRANCH  14  17
ENDBRANCH  13  14
ENDBRANCH  10  13
ENDBRANCH   1   9
BRANCH   5  27
HETATM   27  C   UNL     1     -33.881  39.968 -56.124  1.00  0.00    -0.016 A 
HETATM   28  C   UNL     1     -32.661  40.432 -55.598  1.00  0.00     0.010 A 
HETATM   29  C   UNL     1     -31.441  39.880 -56.002  1.00  0.00     0.001 A 
HETATM   30  C   UNL     1     -31.414  38.843 -56.929  1.00  0.00     0.000 A 
HETATM   31  C   UNL     1     -32.607  38.349 -57.445  1.00  0.00     0.001 A 
HETATM   32  C   UNL     1     -33.827  38.898 -57.042  1.00  0.00     0.010 A 
ENDBRANCH   5  27
BRANCH   5  33
HETATM   33  C   UNL     1     -36.212  40.719 -56.835  1.00  0.00    -0.016 A 
HETATM   34  C   UNL     1     -37.328  39.877 -57.007  1.00  0.00     0.010 A 
HETATM   35  C   UNL     1     -38.216  40.060 -58.072  1.00  0.00     0.001 A 
HETATM   36  C   UNL     1     -38.018  41.093 -58.981  1.00  0.00     0.000 A 
HETATM   37  C   UNL     1     -36.939  41.954 -58.821  1.00  0.00     0.001 A 
HETATM   38  C   UNL     1     -36.052  41.774 -57.756  1.00  0.00     0.010 A 
ENDBRANCH   5  33
TORSDOF 7
ENDMDL
MODEL 5
REMARK VINA RESULT:      -7.9      1.480      2.065
REMARK  7 active torsions:
REMARK  status: ('A' for Active; 'I' for Inactive)
REMARK    1  A    between atoms: N_2  and  C_4 
REMARK    2  A    between atoms: N_2  and  C_27 
REMARK    3  A    between atoms: C_4  and  C_5 
REMARK       I    between atoms: C_5  and  N_6 
REMARK    4  A    between atoms: N_6  and  N_7 
REMARK    5  A    between atoms: C_11  and  C_12 
REMARK    6  A    between atoms: C_11  and  C_18 
REMARK    7  A    between atoms: C_27  and  C_28 
ROOT
HETATM    1  N   UNL     1     -43.304  57.971 -51.280  1.00  0.00    -0.167 N 
HETATM    2  C   UNL     1     -44.327  57.083 -51.111  1.00  0.00     0.346 C 
HETATM    3  O   UNL     1     -45.441  57.329 -50.681  1.00  0.00    -0.245 OA
HETATM    4  N   UNL     1     -43.878  55.835 -51.447  1.00  0.00    -0.315 N 
HETATM    5  C   UNL     1     -42.443  55.767 -51.715  1.00  0.00     0.173 C 
HETATM    6  C   UNL     1     -42.126  57.298 -51.504  1.00  0.00     0.285 C 
HETATM    7  O   UNL     1     -41.030  57.854 -51.545  1.00  0.00    -0.267 OA
HETATM    8  H   UNL     1     -44.486  55.035 -51.341  1.00  0.00     0.166 HD
ENDROOT
BRANCH   1   9
HETATM    9  N   UNL     1     -43.355  59.227 -50.681  1.00  0.00    -0.255 N 
HETATM   10  C   UNL     1     -43.857  60.353 -51.270  1.00  0.00     0.262 C 
HETATM   11  O   UNL     1     -44.018  61.370 -50.591  1.00  0.00    -0.270 OA
HETATM   12  H   UNL     1     -43.232  59.242 -49.669  1.00  0.00     0.191 HD
BRANCH  10  13
HETATM   13  C   UNL     1     -44.211  60.337 -52.762  1.00  0.00     0.338 C 
BRANCH  13  14
HETATM   14  N   UNL     1     -43.032  60.595 -53.713  1.00  0.00    -0.061 N 
HETATM   15  C   UNL     1     -43.240  61.777 -54.604  1.00  0.00     0.270 C 
HETATM   16  H   UNL     1     -42.238  60.805 -53.087  1.00  0.00     0.280 HD
BRANCH  14  17
HETATM   17  C   UNL     1     -42.568  59.354 -54.468  1.00  0.00     0.301 C 
BRANCH  17  18
HETATM   18  C   UNL     1     -43.408  59.128 -55.692  1.00  0.00     0.102 A 
HETATM   19  S   UNL     1     -42.771  59.376 -57.257  1.00  0.00    -0.071 SA
HETATM   20  C   UNL     1     -44.288  58.931 -57.940  1.00  0.00     0.035 A 
HETATM   21  C   UNL     1     -45.179  58.617 -56.909  1.00  0.00     0.074 A 
HETATM   22  C   UNL     1     -44.664  58.864 -59.291  1.00  0.00     0.021 A 
HETATM   23  N   UNL     1     -44.664  58.735 -55.623  1.00  0.00    -0.243 NA
HETATM   24  C   UNL     1     -46.490  58.223 -57.241  1.00  0.00     0.033 A 
HETATM   25  C   UNL     1     -46.874  58.153 -58.584  1.00  0.00     0.002 A 
HETATM   26  C   UNL     1     -45.970  58.471 -59.594  1.00  0.00     0.002 A 
ENDBRANCH  17  18
ENDBRANCH  14  17
ENDBRANCH  13  14
ENDBRANCH  10  13
ENDBRANCH   1   9
BRANCH   5  27
HETATM   27  C   UNL     1     -42.195  55.304 -53.157  1.00  0.00    -0.016 A 
HETATM   28  C   UNL     1     -40.925  55.398 -53.758  1.00  0.00     0.010 A 
HETATM   29  C   UNL     1     -40.707  54.948 -55.064  1.00  0.00     0.001 A 
HETATM   30  C   UNL     1     -41.747  54.382 -55.793  1.00  0.00     0.000 A 
HETATM   31  C   UNL     1     -43.004  54.253 -55.214  1.00  0.00     0.001 A 
HETATM   32  C   UNL     1     -43.225  54.701 -53.909  1.00  0.00     0.010 A 
ENDBRANCH   5  27
BRANCH   5  33
HETATM   33  C   UNL     1     -41.702  54.899 -50.688  1.00  0.00    -0.016 A 
HETATM   34  C   UNL     1     -41.206  53.620 -51.007  1.00  0.00     0.010 A 
HETATM   35  C   UNL     1     -40.527  52.849 -50.058  1.00  0.00     0.001 A 
HETATM   36  C   UNL     1     -40.317  53.341 -48.775  1.00  0.00     0.000 A 
HETATM   37  C   UNL     1     -40.774  54.610 -48.441  1.00  0.00     0.001 A 
HETATM   38  C   UNL     1     -41.451  55.382 -49.388  1.00  0.00     0.010 A 
ENDBRANCH   5  33
TORSDOF 7
ENDMDL
MODEL 6
REMARK VINA RESULT:      -7.8      2.725      7.629
REMARK  7 active torsions:
REMARK  status: ('A' for Active; 'I' for Inactive)
REMARK    1  A    between atoms: N_2  and  C_4 
REMARK    2  A    between atoms: N_2  and  C_27 
REMARK    3  A    between atoms: C_4  and  C_5 
REMARK       I    between atoms: C_5  and  N_6 
REMARK    4  A    between atoms: N_6  and  N_7 
REMARK    5  A    between atoms: C_11  and  C_12 
REMARK    6  A    between atoms: C_11  and  C_18 
REMARK    7  A    between atoms: C_27  and  C_28 
ROOT
HETATM    1  N   UNL     1     -43.220  58.955 -54.548  1.00  0.00    -0.167 N 
HETATM    2  C   UNL     1     -41.958  59.403 -54.812  1.00  0.00     0.346 C 
HETATM    3  O   UNL     1     -41.099  59.681 -53.993  1.00  0.00    -0.245 OA
HETATM    4  N   UNL     1     -41.825  59.555 -56.165  1.00  0.00    -0.315 N 
HETATM    5  C   UNL     1     -43.068  59.371 -56.912  1.00  0.00     0.173 C 
HETATM    6  C   UNL     1     -43.993  59.024 -55.683  1.00  0.00     0.285 C 
HETATM    7  O   UNL     1     -45.205  58.817 -55.686  1.00  0.00    -0.267 OA
HETATM    8  H   UNL     1     -40.967  59.925 -56.549  1.00  0.00     0.166 HD
ENDROOT
BRANCH   1   9
HETATM    9  N   UNL     1     -43.751  59.056 -53.265  1.00  0.00    -0.255 N 
HETATM   10  C   UNL     1     -43.743  58.055 -52.335  1.00  0.00     0.262 C 
HETATM   11  O   UNL     1     -44.078  58.305 -51.174  1.00  0.00    -0.270 OA
HETATM   12  H   UNL     1     -43.932  60.003 -52.933  1.00  0.00     0.191 HD
BRANCH  10  13
HETATM   13  C   UNL     1     -43.322  56.639 -52.746  1.00  0.00     0.338 C 
BRANCH  13  14
HETATM   14  N   UNL     1     -41.887  56.249 -52.360  1.00  0.00    -0.061 N 
HETATM   15  C   UNL     1     -41.214  57.262 -51.491  1.00  0.00     0.270 C 
HETATM   16  H   UNL     1     -41.996  55.382 -51.810  1.00  0.00     0.280 HD
BRANCH  14  17
HETATM   17  C   UNL     1     -41.029  55.813 -53.542  1.00  0.00     0.301 C 
BRANCH  17  18
HETATM   18  C   UNL     1     -40.689  54.354 -53.446  1.00  0.00     0.102 A 
HETATM   19  S   UNL     1     -40.719  53.348 -54.825  1.00  0.00    -0.071 SA
HETATM   20  C   UNL     1     -40.253  52.006 -53.852  1.00  0.00     0.035 A 
HETATM   21  C   UNL     1     -40.102  52.432 -52.529  1.00  0.00     0.074 A 
HETATM   22  C   UNL     1     -40.036  50.671 -54.231  1.00  0.00     0.021 A 
HETATM   23  N   UNL     1     -40.356  53.781 -52.307  1.00  0.00    -0.243 NA
HETATM   24  C   UNL     1     -39.722  51.491 -51.552  1.00  0.00     0.033 A 
HETATM   25  C   UNL     1     -39.503  50.160 -51.919  1.00  0.00     0.002 A 
HETATM   26  C   UNL     1     -39.659  49.758 -53.243  1.00  0.00     0.002 A 
ENDBRANCH  17  18
ENDBRANCH  14  17
ENDBRANCH  13  14
ENDBRANCH  10  13
ENDBRANCH   1   9
BRANCH   5  27
HETATM   27  C   UNL     1     -42.927  58.203 -57.897  1.00  0.00    -0.016 A 
HETATM   28  C   UNL     1     -42.205  58.330 -59.099  1.00  0.00     0.010 A 
HETATM   29  C   UNL     1     -42.062  57.249 -59.975  1.00  0.00     0.001 A 
HETATM   30  C   UNL     1     -42.623  56.015 -59.663  1.00  0.00     0.000 A 
HETATM   31  C   UNL     1     -43.319  55.856 -58.471  1.00  0.00     0.001 A 
HETATM   32  C   UNL     1     -43.463  56.934 -57.593  1.00  0.00     0.010 A 
ENDBRANCH   5  27
BRANCH   5  33
HETATM   33  C   UNL     1     -43.523  60.665 -57.604  1.00  0.00    -0.016 A 
HETATM   34  C   UNL     1     -42.855  61.890 -57.416  1.00  0.00     0.010 A 
HETATM   35  C   UNL     1     -43.282  63.054 -58.063  1.00  0.00     0.001 A 
HETATM   36  C   UNL     1     -44.376  63.020 -58.920  1.00  0.00     0.000 A 
HETATM   37  C   UNL     1     -45.038  61.820 -59.142  1.00  0.00     0.001 A 
HETATM   38  C   UNL     1     -44.612  60.655 -58.499  1.00  0.00     0.010 A 
ENDBRANCH   5  33
TORSDOF 7
ENDMDL
MODEL 7
REMARK VINA RESULT:      -7.5      1.536      2.205
REMARK  7 active torsions:
REMARK  status: ('A' for Active; 'I' for Inactive)
REMARK    1  A    between atoms: N_2  and  C_4 
REMARK    2  A    between atoms: N_2  and  C_27 
REMARK    3  A    between atoms: C_4  and  C_5 
REMARK       I    between atoms: C_5  and  N_6 
REMARK    4  A    between atoms: N_6  and  N_7 
REMARK    5  A    between atoms: C_11  and  C_12 
REMARK    6  A    between atoms: C_11  and  C_18 
REMARK    7  A    between atoms: C_27  and  C_28 
ROOT
HETATM    1  N   UNL     1     -43.173  57.932 -51.329  1.00  0.00    -0.167 N 
HETATM    2  C   UNL     1     -44.210  57.060 -51.167  1.00  0.00     0.346 C 
HETATM    3  O   UNL     1     -45.330  57.328 -50.767  1.00  0.00    -0.245 OA
HETATM    4  N   UNL     1     -43.771  55.800 -51.470  1.00  0.00    -0.315 N 
HETATM    5  C   UNL     1     -42.330  55.710 -51.705  1.00  0.00     0.173 C 
HETATM    6  C   UNL     1     -41.999  57.240 -51.514  1.00  0.00     0.285 C 
HETATM    7  O   UNL     1     -40.896  57.782 -51.540  1.00  0.00    -0.267 OA
HETATM    8  H   UNL     1     -44.391  55.010 -51.364  1.00  0.00     0.166 HD
ENDROOT
BRANCH   1   9
HETATM    9  N   UNL     1     -43.221  59.199 -50.754  1.00  0.00    -0.255 N 
HETATM   10  C   UNL     1     -43.148  60.374 -51.448  1.00  0.00     0.262 C 
HETATM   11  O   UNL     1     -43.378  61.436 -50.864  1.00  0.00    -0.270 OA
HETATM   12  H   UNL     1     -43.572  59.241 -49.798  1.00  0.00     0.191 HD
BRANCH  10  13
HETATM   13  C   UNL     1     -42.778  60.356 -52.936  1.00  0.00     0.338 C 
BRANCH  13  14
HETATM   14  N   UNL     1     -43.866  59.802 -53.870  1.00  0.00    -0.061 N 
HETATM   15  C   UNL     1     -43.414  58.621 -54.666  1.00  0.00     0.270 C 
HETATM   16  H   UNL     1     -44.615  59.488 -53.233  1.00  0.00     0.280 HD
BRANCH  14  17
HETATM   17  C   UNL     1     -44.548  60.869 -54.720  1.00  0.00     0.301 C 
BRANCH  17  18
HETATM   18  C   UNL     1     -43.908  60.961 -56.075  1.00  0.00     0.102 A 
HETATM   19  S   UNL     1     -44.703  60.375 -57.468  1.00  0.00    -0.071 SA
HETATM   20  C   UNL     1     -43.356  60.849 -58.431  1.00  0.00     0.035 A 
HETATM   21  C   UNL     1     -42.388  61.432 -57.607  1.00  0.00     0.074 A 
HETATM   22  C   UNL     1     -43.168  60.716 -59.816  1.00  0.00     0.021 A 
HETATM   23  N   UNL     1     -42.715  61.490 -56.257  1.00  0.00    -0.243 NA
HETATM   24  C   UNL     1     -41.193  61.897 -58.189  1.00  0.00     0.033 A 
HETATM   25  C   UNL     1     -40.996  61.769 -59.568  1.00  0.00     0.002 A 
HETATM   26  C   UNL     1     -41.973  61.184 -60.368  1.00  0.00     0.002 A 
ENDBRANCH  17  18
ENDBRANCH  14  17
ENDBRANCH  13  14
ENDBRANCH  10  13
ENDBRANCH   1   9
BRANCH   5  27
HETATM   27  C   UNL     1     -42.056  55.217 -53.132  1.00  0.00    -0.016 A 
HETATM   28  C   UNL     1     -40.778  55.308 -53.714  1.00  0.00     0.010 A 
HETATM   29  C   UNL     1     -40.535  54.831 -55.007  1.00  0.00     0.001 A 
HETATM   30  C   UNL     1     -41.560  54.241 -55.740  1.00  0.00     0.000 A 
HETATM   31  C   UNL     1     -42.825  54.117 -55.178  1.00  0.00     0.001 A 
HETATM   32  C   UNL     1     -43.070  54.591 -53.887  1.00  0.00     0.010 A 
ENDBRANCH   5  27
BRANCH   5  33
HETATM   33  C   UNL     1     -41.625  54.851 -50.646  1.00  0.00    -0.016 A 
HETATM   34  C   UNL     1     -41.095  53.580 -50.942  1.00  0.00     0.010 A 
HETATM   35  C   UNL     1     -40.448  52.819 -49.963  1.00  0.00     0.001 A 
HETATM   36  C   UNL     1     -40.304  53.312 -48.672  1.00  0.00     0.000 A 
HETATM   37  C   UNL     1     -40.795  54.573 -48.358  1.00  0.00     0.001 A 
HETATM   38  C   UNL     1     -41.440  55.337 -49.335  1.00  0.00     0.010 A 
ENDBRANCH   5  33
TORSDOF 7
ENDMDL
MODEL 8
REMARK VINA RESULT:      -7.4      2.409      7.584
REMARK  7 active torsions:
REMARK  status: ('A' for Active; 'I' for Inactive)
REMARK    1  A    between atoms: N_2  and  C_4 
REMARK    2  A    between atoms: N_2  and  C_27 
REMARK    3  A    between atoms: C_4  and  C_5 
REMARK       I    between atoms: C_5  and  N_6 
REMARK    4  A    between atoms: N_6  and  N_7 
REMARK    5  A    between atoms: C_11  and  C_12 
REMARK    6  A    between atoms: C_11  and  C_18 
REMARK    7  A    between atoms: C_27  and  C_28 
ROOT
HETATM    1  N   UNL     1     -43.468  59.892 -56.043  1.00  0.00    -0.167 N 
HETATM    2  C   UNL     1     -42.153  59.528 -56.090  1.00  0.00     0.346 C 
HETATM    3  O   UNL     1     -41.350  59.581 -55.174  1.00  0.00    -0.245 OA
HETATM    4  N   UNL     1     -41.854  59.145 -57.369  1.00  0.00    -0.315 N 
HETATM    5  C   UNL     1     -42.928  59.385 -58.332  1.00  0.00     0.173 C 
HETATM    6  C   UNL     1     -43.983  59.971 -57.316  1.00  0.00     0.285 C 
HETATM    7  O   UNL     1     -45.101  60.417 -57.563  1.00  0.00    -0.267 OA
HETATM    8  H   UNL     1     -40.908  58.884 -57.609  1.00  0.00     0.166 HD
ENDROOT
BRANCH   1   9
HETATM    9  N   UNL     1     -43.951  60.655 -54.983  1.00  0.00    -0.255 N 
HETATM   10  C   UNL     1     -44.604  60.154 -53.894  1.00  0.00     0.262 C 
HETATM   11  O   UNL     1     -44.832  60.892 -52.932  1.00  0.00    -0.270 OA
HETATM   12  H   UNL     1     -43.578  61.602 -54.912  1.00  0.00     0.191 HD
BRANCH  10  13
HETATM   13  C   UNL     1     -45.048  58.686 -53.882  1.00  0.00     0.338 C 
BRANCH  13  14
HETATM   14  N   UNL     1     -44.376  57.812 -52.811  1.00  0.00    -0.061 N 
HETATM   15  C   UNL     1     -45.015  57.934 -51.465  1.00  0.00     0.270 C 
HETATM   16  H   UNL     1     -44.519  56.845 -53.143  1.00  0.00     0.280 HD
BRANCH  14  17
HETATM   17  C   UNL     1     -42.859  57.951 -52.766  1.00  0.00     0.301 C 
BRANCH  17  18
HETATM   18  C   UNL     1     -42.192  56.635 -53.042  1.00  0.00     0.102 A 
HETATM   19  S   UNL     1     -41.942  56.091 -54.641  1.00  0.00    -0.071 SA
HETATM   20  C   UNL     1     -41.210  54.655 -54.033  1.00  0.00     0.035 A 
HETATM   21  C   UNL     1     -41.207  54.700 -52.636  1.00  0.00     0.074 A 
HETATM   22  C   UNL     1     -40.676  53.566 -54.741  1.00  0.00     0.021 A 
HETATM   23  N   UNL     1     -41.775  55.840 -52.077  1.00  0.00    -0.243 NA
HETATM   24  C   UNL     1     -40.652  53.620 -51.923  1.00  0.00     0.033 A 
HETATM   25  C   UNL     1     -40.119  52.530 -52.618  1.00  0.00     0.002 A 
HETATM   26  C   UNL     1     -40.132  52.507 -54.010  1.00  0.00     0.002 A 
ENDBRANCH  17  18
ENDBRANCH  14  17
ENDBRANCH  13  14
ENDBRANCH  10  13
ENDBRANCH   1   9
BRANCH   5  27
HETATM   27  C   UNL     1     -43.382  58.060 -58.960  1.00  0.00    -0.016 A 
HETATM   28  C   UNL     1     -44.698  57.873 -59.422  1.00  0.00     0.010 A 
HETATM   29  C   UNL     1     -45.092  56.669 -60.016  1.00  0.00     0.001 A 
HETATM   30  C   UNL     1     -44.178  55.634 -60.174  1.00  0.00     0.000 A 
HETATM   31  C   UNL     1     -42.865  55.803 -59.749  1.00  0.00     0.001 A 
HETATM   32  C   UNL     1     -42.468  57.004 -59.157  1.00  0.00     0.010 A 
ENDBRANCH   5  27
BRANCH   5  33
HETATM   33  C   UNL     1     -42.535  60.427 -59.389  1.00  0.00    -0.016 A 
HETATM   34  C   UNL     1     -42.254  61.766 -59.054  1.00  0.00     0.010 A 
HETATM   35  C   UNL     1     -41.889  62.696 -60.032  1.00  0.00     0.001 A 
HETATM   36  C   UNL     1     -41.784  62.310 -61.363  1.00  0.00     0.000 A 
HETATM   37  C   UNL     1     -42.032  60.990 -61.719  1.00  0.00     0.001 A 
HETATM   38  C   UNL     1     -42.395  60.058 -60.742  1.00  0.00     0.010 A 
ENDBRANCH   5  33
TORSDOF 7
ENDMDL
MODEL 9
REMARK VINA RESULT:      -7.3      3.328      8.236
REMARK  7 active torsions:
REMARK  status: ('A' for Active; 'I' for Inactive)
REMARK    1  A    between atoms: N_2  and  C_4 
REMARK    2  A    between atoms: N_2  and  C_27 
REMARK    3  A    between atoms: C_4  and  C_5 
REMARK       I    between atoms: C_5  and  N_6 
REMARK    4  A    between atoms: N_6  and  N_7 
REMARK    5  A    between atoms: C_11  and  C_12 
REMARK    6  A    between atoms: C_11  and  C_18 
REMARK    7  A    between atoms: C_27  and  C_28 
ROOT
HETATM    1  N   UNL     1     -42.983  59.549 -56.774  1.00  0.00    -0.167 N 
HETATM    2  C   UNL     1     -42.101  59.750 -57.796  1.00  0.00     0.346 C 
HETATM    3  O   UNL     1     -40.988  60.241 -57.710  1.00  0.00    -0.245 OA
HETATM    4  N   UNL     1     -42.696  59.366 -58.966  1.00  0.00    -0.315 N 
HETATM    5  C   UNL     1     -44.111  59.024 -58.833  1.00  0.00     0.173 C 
HETATM    6  C   UNL     1     -44.228  59.251 -57.277  1.00  0.00     0.285 C 
HETATM    7  O   UNL     1     -45.234  59.167 -56.576  1.00  0.00    -0.267 OA
HETATM    8  H   UNL     1     -42.208  59.485 -59.843  1.00  0.00     0.166 HD
ENDROOT
BRANCH   1   9
HETATM    9  N   UNL     1     -42.794  60.176 -55.545  1.00  0.00    -0.255 N 
HETATM   10  C   UNL     1     -42.156  59.617 -54.474  1.00  0.00     0.262 C 
HETATM   11  O   UNL     1     -41.887  60.320 -53.497  1.00  0.00    -0.270 OA
HETATM   12  H   UNL     1     -42.928  61.186 -55.537  1.00  0.00     0.191 HD
BRANCH  10  13
HETATM   13  C   UNL     1     -41.786  58.129 -54.501  1.00  0.00     0.338 C 
BRANCH  13  14
HETATM   14  N   UNL     1     -42.693  57.219 -53.658  1.00  0.00    -0.061 N 
HETATM   15  C   UNL     1     -44.105  57.704 -53.578  1.00  0.00     0.270 C 
HETATM   16  H   UNL     1     -42.695  56.319 -54.164  1.00  0.00     0.280 HD
BRANCH  14  17
HETATM   17  C   UNL     1     -42.108  56.858 -52.296  1.00  0.00     0.301 C 
BRANCH  17  18
HETATM   18  C   UNL     1     -41.482  55.495 -52.328  1.00  0.00     0.102 A 
HETATM   19  S   UNL     1     -40.993  54.715 -50.890  1.00  0.00    -0.071 SA
HETATM   20  C   UNL     1     -40.444  53.367 -51.812  1.00  0.00     0.035 A 
HETATM   21  C   UNL     1     -40.683  53.614 -53.167  1.00  0.00     0.074 A 
HETATM   22  C   UNL     1     -39.846  52.177 -51.369  1.00  0.00     0.021 A 
HETATM   23  N   UNL     1     -41.277  54.838 -53.452  1.00  0.00    -0.243 NA
HETATM   24  C   UNL     1     -40.311  52.637 -54.111  1.00  0.00     0.033 A 
HETATM   25  C   UNL     1     -39.714  51.448 -53.680  1.00  0.00     0.002 A 
HETATM   26  C   UNL     1     -39.485  51.224 -52.325  1.00  0.00     0.002 A 
ENDBRANCH  17  18
ENDBRANCH  14  17
ENDBRANCH  13  14
ENDBRANCH  10  13
ENDBRANCH   1   9
BRANCH   5  27
HETATM   27  C   UNL     1     -44.343  57.562 -59.238  1.00  0.00    -0.016 A 
HETATM   28  C   UNL     1     -45.618  57.086 -59.597  1.00  0.00     0.010 A 
HETATM   29  C   UNL     1     -45.811  55.757 -59.989  1.00  0.00     0.001 A 
HETATM   30  C   UNL     1     -44.734  54.880 -60.045  1.00  0.00     0.000 A 
HETATM   31  C   UNL     1     -43.460  55.331 -59.720  1.00  0.00     0.001 A 
HETATM   32  C   UNL     1     -43.264  56.658 -59.329  1.00  0.00     0.010 A 
ENDBRANCH   5  27
BRANCH   5  33
HETATM   33  C   UNL     1     -45.016  59.994 -59.607  1.00  0.00    -0.016 A 
HETATM   34  C   UNL     1     -46.170  60.562 -59.033  1.00  0.00     0.010 A 
HETATM   35  C   UNL     1     -46.974  61.451 -59.754  1.00  0.00     0.001 A 
HETATM   36  C   UNL     1     -46.640  61.802 -61.057  1.00  0.00     0.000 A 
HETATM   37  C   UNL     1     -45.493  61.275 -61.639  1.00  0.00     0.001 A 
HETATM   38  C   UNL     1     -44.687  60.389 -60.920  1.00  0.00     0.010 A 
ENDBRANCH   5  33
TORSDOF 7
ENDMDL
MODEL 10
REMARK VINA RESULT:      -7.3      3.504      5.375
REMARK  7 active torsions:
REMARK  status: ('A' for Active; 'I' for Inactive)
REMARK    1  A    between atoms: N_2  and  C_4 
REMARK    2  A    between atoms: N_2  and  C_27 
REMARK    3  A    between atoms: C_4  and  C_5 
REMARK       I    between atoms: C_5  and  N_6 
REMARK    4  A    between atoms: N_6  and  N_7 
REMARK    5  A    between atoms: C_11  and  C_12 
REMARK    6  A    between atoms: C_11  and  C_18 
REMARK    7  A    between atoms: C_27  and  C_28 
ROOT
HETATM    1  N   UNL     1     -43.666  57.318 -56.219  1.00  0.00    -0.167 N 
HETATM    2  C   UNL     1     -42.416  57.532 -56.723  1.00  0.00     0.346 C 
HETATM    3  O   UNL     1     -42.133  57.800 -57.878  1.00  0.00    -0.245 OA
HETATM    4  N   UNL     1     -41.504  57.333 -55.722  1.00  0.00    -0.315 N 
HETATM    5  C   UNL     1     -42.079  56.800 -54.488  1.00  0.00     0.173 C 
HETATM    6  C   UNL     1     -43.582  56.762 -54.964  1.00  0.00     0.285 C 
HETATM    7  O   UNL     1     -44.558  56.339 -54.349  1.00  0.00    -0.267 OA
HETATM    8  H   UNL     1     -40.516  57.402 -55.919  1.00  0.00     0.166 HD
ENDROOT
BRANCH   1   9
HETATM    9  N   UNL     1     -44.742  57.095 -57.074  1.00  0.00    -0.255 N 
HETATM   10  C   UNL     1     -45.536  58.073 -57.603  1.00  0.00     0.262 C 
HETATM   11  O   UNL     1     -46.346  57.782 -58.486  1.00  0.00    -0.270 OA
HETATM   12  H   UNL     1     -44.778  56.174 -57.512  1.00  0.00     0.191 HD
BRANCH  10  13
HETATM   13  C   UNL     1     -45.410  59.513 -57.092  1.00  0.00     0.338 C 
BRANCH  13  14
HETATM   14  N   UNL     1     -44.954  60.539 -58.142  1.00  0.00    -0.061 N 
HETATM   15  C   UNL     1     -46.036  61.486 -58.551  1.00  0.00     0.270 C 
HETATM   16  H   UNL     1     -44.218  61.085 -57.666  1.00  0.00     0.280 HD
BRANCH  14  17
HETATM   17  C   UNL     1     -44.224  59.920 -59.329  1.00  0.00     0.301 C 
BRANCH  17  18
HETATM   18  C   UNL     1     -43.037  60.753 -59.719  1.00  0.00     0.102 A 
HETATM   19  S   UNL     1     -42.745  61.163 -61.350  1.00  0.00    -0.071 SA
HETATM   20  C   UNL     1     -41.328  62.021 -60.876  1.00  0.00     0.035 A 
HETATM   21  C   UNL     1     -41.184  61.932 -59.488  1.00  0.00     0.074 A 
HETATM   22  C   UNL     1     -40.409  62.721 -61.674  1.00  0.00     0.021 A 
HETATM   23  N   UNL     1     -42.169  61.201 -58.834  1.00  0.00    -0.243 NA
HETATM   24  C   UNL     1     -40.084  62.566 -58.878  1.00  0.00     0.033 A 
HETATM   25  C   UNL     1     -39.163  63.266 -59.665  1.00  0.00     0.002 A 
HETATM   26  C   UNL     1     -39.327  63.341 -61.045  1.00  0.00     0.002 A 
ENDBRANCH  17  18
ENDBRANCH  14  17
ENDBRANCH  13  14
ENDBRANCH  10  13
ENDBRANCH   1   9
BRANCH   5  27
HETATM   27  C   UNL     1     -41.848  57.781 -53.330  1.00  0.00    -0.016 A 
HETATM   28  C   UNL     1     -42.902  58.208 -52.501  1.00  0.00     0.010 A 
HETATM   29  C   UNL     1     -42.674  59.082 -51.432  1.00  0.00     0.001 A 
HETATM   30  C   UNL     1     -41.388  59.535 -51.160  1.00  0.00     0.000 A 
HETATM   31  C   UNL     1     -40.325  59.107 -51.948  1.00  0.00     0.001 A 
HETATM   32  C   UNL     1     -40.550  58.234 -53.015  1.00  0.00     0.010 A 
ENDBRANCH   5  27
BRANCH   5  33
HETATM   33  C   UNL     1     -41.560  55.390 -54.171  1.00  0.00    -0.016 A 
HETATM   34  C   UNL     1     -40.748  54.671 -55.069  1.00  0.00     0.010 A 
HETATM   35  C   UNL     1     -40.279  53.391 -54.755  1.00  0.00     0.001 A 
HETATM   36  C   UNL     1     -40.598  52.806 -53.535  1.00  0.00     0.000 A 
HETATM   37  C   UNL     1     -41.377  53.503 -52.621  1.00  0.00     0.001 A 
HETATM   38  C   UNL     1     -41.845  54.783 -52.931  1.00  0.00     0.010 A 
ENDBRANCH   5  33
TORSDOF 7
ENDMDL
