MODEL 1
REMARK VINA RESULT:      -8.1      0.000      0.000
REMARK  7 active torsions:
REMARK  status: ('A' for Active; 'I' for Inactive)
REMARK    1  A    between atoms: C_2  and  C_3 
REMARK       I    between atoms: C_3  and  N_4 
REMARK    2  A    between atoms: N_7  and  C_8 
REMARK    3  A    between atoms: C_12  and  N_13 
REMARK    4  A    between atoms: N_13  and  C_14 
REMARK    5  A    between atoms: C_14  and  N_15 
REMARK       I    between atoms: N_15  and  C_16 
REMARK    6  A    between atoms: C_16  and  C_17 
REMARK    7  A    between atoms: C_18  and  O_19 
ROOT
HETATM    1  C   UNL     1     -43.447  57.954 -56.758  1.00  0.00     0.052 A 
HETATM    2  C   UNL     1     -43.194  56.579 -56.917  1.00  0.00     0.062 A 
HETATM    3 CL   UNL     1     -42.680  55.875 -58.414  1.00  0.00    -0.082 Cl
HETATM    4  C   UNL     1     -43.397  55.677 -55.859  1.00  0.00     0.055 A 
HETATM    5  C   UNL     1     -43.861  56.110 -54.621  1.00  0.00     0.036 A 
HETATM    6  C   UNL     1     -44.242  57.447 -54.494  1.00  0.00     0.032 A 
HETATM    7  C   UNL     1     -44.030  58.351 -55.542  1.00  0.00     0.033 A 
ENDROOT
BRANCH   5   8
HETATM    8  N   UNL     1     -43.988  55.296 -53.475  1.00  0.00    -0.333 N 
HETATM    9  H   UNL     1     -44.923  54.911 -53.322  1.00  0.00     0.168 HD
BRANCH   8  10
HETATM   10  C   UNL     1     -43.133  55.055 -52.423  1.00  0.00     0.179 C 
HETATM   11  S   UNL     1     -42.970  55.854 -50.964  1.00  0.00    -0.040 SA
BRANCH  10  12
HETATM   12  N   UNL     1     -42.302  53.961 -52.590  1.00  0.00    -0.299 N 
HETATM   13  C   UNL     1     -41.102  53.847 -53.277  1.00  0.00     0.260 C 
HETATM   14  O   UNL     1     -40.607  54.743 -53.953  1.00  0.00    -0.267 OA
HETATM   15  H   UNL     1     -42.643  53.128 -52.121  1.00  0.00     0.171 HD
BRANCH  13  16
HETATM   16  C   UNL     1     -40.477  52.503 -53.214  1.00  0.00     0.066 A 
HETATM   17  C   UNL     1     -40.189  51.862 -51.997  1.00  0.00     0.089 A 
HETATM   18  C   UNL     1     -39.732  50.536 -51.979  1.00  0.00    -0.028 A 
HETATM   19  C   UNL     1     -39.506  49.810 -50.682  1.00  0.00     0.051 C 
HETATM   20  C   UNL     1     -39.525  49.876 -53.199  1.00  0.00     0.009 A 
HETATM   21  C   UNL     1     -39.756  50.529 -54.412  1.00  0.00     0.002 A 
HETATM   22  C   UNL     1     -40.230  51.841 -54.422  1.00  0.00     0.020 A 
BRANCH  17  23
HETATM   23  O   UNL     1     -40.401  52.485 -50.791  1.00  0.00    -0.354 OA
HETATM   24  C   UNL     1     -39.423  53.508 -50.565  1.00  0.00     0.210 C 
ENDBRANCH  17  23
ENDBRANCH  13  16
ENDBRANCH  10  12
ENDBRANCH   8  10
ENDBRANCH   5   8
BRANCH   1  25
HETATM   25  N   UNL     1     -43.130  58.980 -57.653  1.00  0.00    -0.376 N 
HETATM   26  C   UNL     1     -43.842  58.942 -58.944  1.00  0.00     0.143 C 
HETATM   27  C   UNL     1     -43.744  60.322 -59.634  1.00  0.00     0.145 C 
HETATM   28  N   UNL     1     -42.376  60.866 -59.675  1.00  0.00    -0.349 N 
HETATM   29  C   UNL     1     -42.069  61.779 -60.678  1.00  0.00     0.219 C 
HETATM   30  C   UNL     1     -41.629  60.770 -58.410  1.00  0.00     0.145 C 
HETATM   31  O   UNL     1     -42.855  62.035 -61.591  1.00  0.00    -0.273 OA
HETATM   32  C   UNL     1     -41.715  59.365 -57.795  1.00  0.00     0.143 C 
BRANCH  29  33
HETATM   33  C   UNL     1     -40.695  62.432 -60.608  1.00  0.00     0.098 C 
HETATM   34  C   UNL     1     -40.104  62.709 -61.979  1.00  0.00     0.014 C 
ENDBRANCH  29  33
ENDBRANCH   1  25
TORSDOF 7
ENDMDL
MODEL 2
REMARK VINA RESULT:      -7.9      3.505      4.536
REMARK  7 active torsions:
REMARK  status: ('A' for Active; 'I' for Inactive)
REMARK    1  A    between atoms: C_2  and  C_3 
REMARK       I    between atoms: C_3  and  N_4 
REMARK    2  A    between atoms: N_7  and  C_8 
REMARK    3  A    between atoms: C_12  and  N_13 
REMARK    4  A    between atoms: N_13  and  C_14 
REMARK    5  A    between atoms: C_14  and  N_15 
REMARK       I    between atoms: N_15  and  C_16 
REMARK    6  A    between atoms: C_16  and  C_17 
REMARK    7  A    between atoms: C_18  and  O_19 
ROOT
HETATM    1  C   UNL     1     -44.778  57.543 -58.295  1.00  0.00     0.052 A 
HETATM    2  C   UNL     1     -43.423  57.199 -58.455  1.00  0.00     0.062 A 
HETATM    3 CL   UNL     1     -42.807  56.396 -59.861  1.00  0.00    -0.082 Cl
HETATM    4  C   UNL     1     -42.486  57.451 -57.439  1.00  0.00     0.055 A 
HETATM    5  C   UNL     1     -42.865  58.043 -56.238  1.00  0.00     0.036 A 
HETATM    6  C   UNL     1     -44.225  58.264 -56.017  1.00  0.00     0.032 A 
HETATM    7  C   UNL     1     -45.161  58.025 -57.031  1.00  0.00     0.033 A 
ENDROOT
BRANCH   5   8
HETATM    8  N   UNL     1     -41.977  58.431 -55.212  1.00  0.00    -0.333 N 
HETATM    9  H   UNL     1     -41.167  58.972 -55.524  1.00  0.00     0.168 HD
BRANCH   8  10
HETATM   10  C   UNL     1     -41.903  58.075 -53.883  1.00  0.00     0.179 C 
HETATM   11  S   UNL     1     -42.306  58.944 -52.514  1.00  0.00    -0.040 SA
BRANCH  10  12
HETATM   12  N   UNL     1     -41.454  56.787 -53.652  1.00  0.00    -0.299 N 
HETATM   13  C   UNL     1     -42.071  55.569 -53.894  1.00  0.00     0.260 C 
HETATM   14  O   UNL     1     -43.222  55.448 -54.303  1.00  0.00    -0.267 OA
HETATM   15  H   UNL     1     -40.522  56.758 -53.250  1.00  0.00     0.171 HD
BRANCH  13  16
HETATM   16  C   UNL     1     -41.260  54.380 -53.534  1.00  0.00     0.066 A 
HETATM   17  C   UNL     1     -41.013  54.013 -52.200  1.00  0.00     0.089 A 
HETATM   18  C   UNL     1     -40.365  52.805 -51.901  1.00  0.00    -0.028 A 
HETATM   19  C   UNL     1     -40.174  52.358 -50.478  1.00  0.00     0.051 C 
HETATM   20  C   UNL     1     -39.928  51.992 -52.957  1.00  0.00     0.009 A 
HETATM   21  C   UNL     1     -40.123  52.381 -54.284  1.00  0.00     0.002 A 
HETATM   22  C   UNL     1     -40.786  53.574 -54.575  1.00  0.00     0.020 A 
BRANCH  17  23
HETATM   23  O   UNL     1     -41.446  54.786 -51.151  1.00  0.00    -0.354 OA
HETATM   24  C   UNL     1     -42.817  54.503 -50.839  1.00  0.00     0.210 C 
ENDBRANCH  17  23
ENDBRANCH  13  16
ENDBRANCH  10  12
ENDBRANCH   8  10
ENDBRANCH   5   8
BRANCH   1  25
HETATM   25  N   UNL     1     -45.777  57.514 -59.272  1.00  0.00    -0.376 N 
HETATM   26  C   UNL     1     -45.955  56.223 -59.964  1.00  0.00     0.143 C 
HETATM   27  C   UNL     1     -47.330  56.194 -60.669  1.00  0.00     0.145 C 
HETATM   28  N   UNL     1     -47.606  57.394 -61.476  1.00  0.00    -0.349 N 
HETATM   29  C   UNL     1     -48.503  57.276 -62.532  1.00  0.00     0.219 C 
HETATM   30  C   UNL     1     -47.292  58.674 -60.818  1.00  0.00     0.145 C 
HETATM   31  O   UNL     1     -48.959  56.187 -62.882  1.00  0.00    -0.273 OA
HETATM   32  C   UNL     1     -45.894  58.667 -60.181  1.00  0.00     0.143 C 
BRANCH  29  33
HETATM   33  C   UNL     1     -48.878  58.563 -63.255  1.00  0.00     0.098 C 
HETATM   34  C   UNL     1     -50.352  58.904 -63.125  1.00  0.00     0.014 C 
ENDBRANCH  29  33
ENDBRANCH   1  25
TORSDOF 7
ENDMDL
MODEL 3
REMARK VINA RESULT:      -7.8      3.805      4.902
REMARK  7 active torsions:
REMARK  status: ('A' for Active; 'I' for Inactive)
REMARK    1  A    between atoms: C_2  and  C_3 
REMARK       I    between atoms: C_3  and  N_4 
REMARK    2  A    between atoms: N_7  and  C_8 
REMARK    3  A    between atoms: C_12  and  N_13 
REMARK    4  A    between atoms: N_13  and  C_14 
REMARK    5  A    between atoms: C_14  and  N_15 
REMARK       I    between atoms: N_15  and  C_16 
REMARK    6  A    between atoms: C_16  and  C_17 
REMARK    7  A    between atoms: C_18  and  O_19 
ROOT
HETATM    1  C   UNL     1     -45.312  57.078 -59.499  1.00  0.00     0.052 A 
HETATM    2  C   UNL     1     -44.523  55.935 -59.726  1.00  0.00     0.062 A 
HETATM    3 CL   UNL     1     -44.804  54.831 -61.031  1.00  0.00    -0.082 Cl
HETATM    4  C   UNL     1     -43.472  55.596 -58.857  1.00  0.00     0.055 A 
HETATM    5  C   UNL     1     -43.179  56.373 -57.741  1.00  0.00     0.036 A 
HETATM    6  C   UNL     1     -44.038  57.429 -57.433  1.00  0.00     0.032 A 
HETATM    7  C   UNL     1     -45.079  57.778 -58.302  1.00  0.00     0.033 A 
ENDROOT
BRANCH   5   8
HETATM    8  N   UNL     1     -42.079  56.170 -56.880  1.00  0.00    -0.333 N 
HETATM    9  H   UNL     1     -41.359  55.540 -57.242  1.00  0.00     0.168 HD
BRANCH   8  10
HETATM   10  C   UNL     1     -41.866  56.526 -55.567  1.00  0.00     0.179 C 
HETATM   11  S   UNL     1     -42.166  57.973 -54.783  1.00  0.00    -0.040 SA
BRANCH  10  12
HETATM   12  N   UNL     1     -41.356  55.519 -54.768  1.00  0.00    -0.299 N 
HETATM   13  C   UNL     1     -41.716  54.182 -54.675  1.00  0.00     0.260 C 
HETATM   14  O   UNL     1     -42.663  53.681 -55.273  1.00  0.00    -0.267 OA
HETATM   15  H   UNL     1     -40.595  55.832 -54.173  1.00  0.00     0.171 HD
BRANCH  13  16
HETATM   16  C   UNL     1     -40.915  53.390 -53.710  1.00  0.00     0.066 A 
HETATM   17  C   UNL     1     -40.884  53.682 -52.337  1.00  0.00     0.089 A 
HETATM   18  C   UNL     1     -40.231  52.825 -51.438  1.00  0.00    -0.028 A 
HETATM   19  C   UNL     1     -40.267  53.079 -49.957  1.00  0.00     0.051 C 
HETATM   20  C   UNL     1     -39.572  51.694 -51.942  1.00  0.00     0.009 A 
HETATM   21  C   UNL     1     -39.553  51.430 -53.313  1.00  0.00     0.002 A 
HETATM   22  C   UNL     1     -40.221  52.276 -54.199  1.00  0.00     0.020 A 
BRANCH  17  23
HETATM   23  O   UNL     1     -41.537  54.776 -51.821  1.00  0.00    -0.354 OA
HETATM   24  C   UNL     1     -42.902  54.459 -51.515  1.00  0.00     0.210 C 
ENDBRANCH  17  23
ENDBRANCH  13  16
ENDBRANCH  10  12
ENDBRANCH   8  10
ENDBRANCH   5   8
BRANCH   1  25
HETATM   25  N   UNL     1     -46.264  57.631 -60.361  1.00  0.00    -0.376 N 
HETATM   26  C   UNL     1     -46.476  59.085 -60.228  1.00  0.00     0.143 C 
HETATM   27  C   UNL     1     -47.192  59.624 -61.488  1.00  0.00     0.145 C 
HETATM   28  N   UNL     1     -48.375  58.838 -61.877  1.00  0.00    -0.349 N 
HETATM   29  C   UNL     1     -49.367  59.477 -62.615  1.00  0.00     0.219 C 
HETATM   30  C   UNL     1     -48.185  57.378 -61.871  1.00  0.00     0.145 C 
HETATM   31  O   UNL     1     -49.341  60.690 -62.829  1.00  0.00    -0.273 OA
HETATM   32  C   UNL     1     -47.520  56.890 -60.574  1.00  0.00     0.143 C 
BRANCH  29  33
HETATM   33  C   UNL     1     -50.505  58.605 -63.125  1.00  0.00     0.098 C 
HETATM   34  C   UNL     1     -51.846  58.969 -62.512  1.00  0.00     0.014 C 
ENDBRANCH  29  33
ENDBRANCH   1  25
TORSDOF 7
ENDMDL
MODEL 4
REMARK VINA RESULT:      -7.8      1.542      2.101
REMARK  7 active torsions:
REMARK  status: ('A' for Active; 'I' for Inactive)
REMARK    1  A    between atoms: C_2  and  C_3 
REMARK       I    between atoms: C_3  and  N_4 
REMARK    2  A    between atoms: N_7  and  C_8 
REMARK    3  A    between atoms: C_12  and  N_13 
REMARK    4  A    between atoms: N_13  and  C_14 
REMARK    5  A    between atoms: C_14  and  N_15 
REMARK       I    between atoms: N_15  and  C_16 
REMARK    6  A    between atoms: C_16  and  C_17 
REMARK    7  A    between atoms: C_18  and  O_19 
ROOT
HETATM    1  C   UNL     1     -43.289  57.698 -57.481  1.00  0.00     0.052 A 
HETATM    2  C   UNL     1     -43.552  58.247 -56.212  1.00  0.00     0.062 A 
HETATM    3 CL   UNL     1     -43.671  59.951 -55.920  1.00  0.00    -0.082 Cl
HETATM    4  C   UNL     1     -43.688  57.425 -55.081  1.00  0.00     0.055 A 
HETATM    5  C   UNL     1     -43.560  56.042 -55.174  1.00  0.00     0.036 A 
HETATM    6  C   UNL     1     -43.166  55.501 -56.398  1.00  0.00     0.032 A 
HETATM    7  C   UNL     1     -43.041  56.316 -57.531  1.00  0.00     0.033 A 
ENDROOT
BRANCH   5   8
HETATM    8  N   UNL     1     -43.787  55.136 -54.116  1.00  0.00    -0.333 N 
HETATM    9  H   UNL     1     -44.684  54.645 -54.154  1.00  0.00     0.168 HD
BRANCH   8  10
HETATM   10  C   UNL     1     -43.103  54.908 -52.943  1.00  0.00     0.179 C 
HETATM   11  S   UNL     1     -43.165  55.725 -51.486  1.00  0.00    -0.040 SA
BRANCH  10  12
HETATM   12  N   UNL     1     -42.258  53.813 -52.968  1.00  0.00    -0.299 N 
HETATM   13  C   UNL     1     -41.014  53.657 -53.562  1.00  0.00     0.260 C 
HETATM   14  O   UNL     1     -40.479  54.503 -54.272  1.00  0.00    -0.267 OA
HETATM   15  H   UNL     1     -42.626  53.016 -52.458  1.00  0.00     0.171 HD
BRANCH  13  16
HETATM   16  C   UNL     1     -40.388  52.329 -53.351  1.00  0.00     0.066 A 
HETATM   17  C   UNL     1     -40.205  51.776 -52.073  1.00  0.00     0.089 A 
HETATM   18  C   UNL     1     -39.743  50.460 -51.923  1.00  0.00    -0.028 A 
HETATM   19  C   UNL     1     -39.628  49.827 -50.565  1.00  0.00     0.051 C 
HETATM   20  C   UNL     1     -39.424  49.721 -53.072  1.00  0.00     0.009 A 
HETATM   21  C   UNL     1     -39.551  50.287 -54.343  1.00  0.00     0.002 A 
HETATM   22  C   UNL     1     -40.030  51.590 -54.485  1.00  0.00     0.020 A 
BRANCH  17  23
HETATM   23  O   UNL     1     -40.527  52.476 -50.936  1.00  0.00    -0.354 OA
HETATM   24  C   UNL     1     -39.505  53.429 -50.615  1.00  0.00     0.210 C 
ENDBRANCH  17  23
ENDBRANCH  13  16
ENDBRANCH  10  12
ENDBRANCH   8  10
ENDBRANCH   5   8
BRANCH   1  25
HETATM   25  N   UNL     1     -43.302  58.367 -58.709  1.00  0.00    -0.376 N 
HETATM   26  C   UNL     1     -42.111  59.188 -59.000  1.00  0.00     0.143 C 
HETATM   27  C   UNL     1     -42.050  59.498 -60.513  1.00  0.00     0.145 C 
HETATM   28  N   UNL     1     -43.321  59.997 -61.066  1.00  0.00    -0.349 N 
HETATM   29  C   UNL     1     -43.268  60.781 -62.213  1.00  0.00     0.219 C 
HETATM   30  C   UNL     1     -44.518  59.246 -60.653  1.00  0.00     0.145 C 
HETATM   31  O   UNL     1     -42.200  61.171 -62.689  1.00  0.00    -0.273 OA
HETATM   32  C   UNL     1     -44.556  59.012 -59.135  1.00  0.00     0.143 C 
BRANCH  29  33
HETATM   33  C   UNL     1     -44.601  61.159 -62.842  1.00  0.00     0.098 C 
HETATM   34  C   UNL     1     -44.636  62.598 -63.329  1.00  0.00     0.014 C 
ENDBRANCH  29  33
ENDBRANCH   1  25
TORSDOF 7
ENDMDL
MODEL 5
REMARK VINA RESULT:      -7.7      3.469      9.444
REMARK  7 active torsions:
REMARK  status: ('A' for Active; 'I' for Inactive)
REMARK    1  A    between atoms: C_2  and  C_3 
REMARK       I    between atoms: C_3  and  N_4 
REMARK    2  A    between atoms: N_7  and  C_8 
REMARK    3  A    between atoms: C_12  and  N_13 
REMARK    4  A    between atoms: N_13  and  C_14 
REMARK    5  A    between atoms: C_14  and  N_15 
REMARK       I    between atoms: N_15  and  C_16 
REMARK    6  A    between atoms: C_16  and  C_17 
REMARK    7  A    between atoms: C_18  and  O_19 
ROOT
HETATM    1  C   UNL     1     -42.688  56.038 -53.415  1.00  0.00     0.052 A 
HETATM    2  C   UNL     1     -42.395  57.376 -53.090  1.00  0.00     0.062 A 
HETATM    3 CL   UNL     1     -41.010  57.845 -52.160  1.00  0.00    -0.082 Cl
HETATM    4  C   UNL     1     -43.255  58.420 -53.469  1.00  0.00     0.055 A 
HETATM    5  C   UNL     1     -44.429  58.167 -54.173  1.00  0.00     0.036 A 
HETATM    6  C   UNL     1     -44.795  56.838 -54.382  1.00  0.00     0.032 A 
HETATM    7  C   UNL     1     -43.935  55.795 -54.016  1.00  0.00     0.033 A 
ENDROOT
BRANCH   5   8
HETATM    8  N   UNL     1     -45.292  59.159 -54.687  1.00  0.00    -0.333 N 
HETATM    9  H   UNL     1     -46.014  59.481 -54.037  1.00  0.00     0.168 HD
BRANCH   8  10
HETATM   10  C   UNL     1     -45.457  59.659 -55.959  1.00  0.00     0.179 C 
HETATM   11  S   UNL     1     -45.619  61.239 -56.481  1.00  0.00    -0.040 SA
BRANCH  10  12
HETATM   12  N   UNL     1     -45.457  58.705 -56.961  1.00  0.00    -0.299 N 
HETATM   13  C   UNL     1     -44.448  58.329 -57.837  1.00  0.00     0.260 C 
HETATM   14  O   UNL     1     -43.357  58.884 -57.909  1.00  0.00    -0.267 OA
HETATM   15  H   UNL     1     -46.341  58.214 -57.041  1.00  0.00     0.171 HD
BRANCH  13  16
HETATM   16  C   UNL     1     -44.814  57.237 -58.772  1.00  0.00     0.066 A 
HETATM   17  C   UNL     1     -45.983  57.271 -59.550  1.00  0.00     0.089 A 
HETATM   18  C   UNL     1     -46.221  56.290 -60.525  1.00  0.00    -0.028 A 
HETATM   19  C   UNL     1     -47.423  56.365 -61.425  1.00  0.00     0.051 C 
HETATM   20  C   UNL     1     -45.292  55.251 -60.678  1.00  0.00     0.009 A 
HETATM   21  C   UNL     1     -44.156  55.184 -59.867  1.00  0.00     0.002 A 
HETATM   22  C   UNL     1     -43.916  56.173 -58.914  1.00  0.00     0.020 A 
BRANCH  17  23
HETATM   23  O   UNL     1     -46.897  58.289 -59.427  1.00  0.00    -0.354 OA
HETATM   24  C   UNL     1     -46.552  59.391 -60.276  1.00  0.00     0.210 C 
ENDBRANCH  17  23
ENDBRANCH  13  16
ENDBRANCH  10  12
ENDBRANCH   8  10
ENDBRANCH   5   8
BRANCH   1  25
HETATM   25  N   UNL     1     -41.851  54.929 -53.260  1.00  0.00    -0.376 N 
HETATM   26  C   UNL     1     -41.862  53.962 -54.375  1.00  0.00     0.143 C 
HETATM   27  C   UNL     1     -40.613  53.055 -54.289  1.00  0.00     0.145 C 
HETATM   28  N   UNL     1     -40.388  52.484 -52.950  1.00  0.00    -0.349 N 
HETATM   29  C   UNL     1     -39.670  51.296 -52.861  1.00  0.00     0.219 C 
HETATM   30  C   UNL     1     -40.518  53.438 -51.836  1.00  0.00     0.145 C 
HETATM   31  O   UNL     1     -39.341  50.656 -53.861  1.00  0.00    -0.273 OA
HETATM   32  C   UNL     1     -41.801  54.276 -51.941  1.00  0.00     0.143 C 
BRANCH  29  33
HETATM   33  C   UNL     1     -39.329  50.809 -51.460  1.00  0.00     0.098 C 
HETATM   34  C   UNL     1     -39.825  49.400 -51.189  1.00  0.00     0.014 C 
ENDBRANCH  29  33
ENDBRANCH   1  25
TORSDOF 7
ENDMDL
MODEL 6
REMARK VINA RESULT:      -7.7      3.493      9.019
REMARK  7 active torsions:
REMARK  status: ('A' for Active; 'I' for Inactive)
REMARK    1  A    between atoms: C_2  and  C_3 
REMARK       I    between atoms: C_3  and  N_4 
REMARK    2  A    between atoms: N_7  and  C_8 
REMARK    3  A    between atoms: C_12  and  N_13 
REMARK    4  A    between atoms: N_13  and  C_14 
REMARK    5  A    between atoms: C_14  and  N_15 
REMARK       I    between atoms: N_15  and  C_16 
REMARK    6  A    between atoms: C_16  and  C_17 
REMARK    7  A    between atoms: C_18  and  O_19 
ROOT
HETATM    1  C   UNL     1     -42.675  56.783 -53.366  1.00  0.00     0.052 A 
HETATM    2  C   UNL     1     -42.234  58.101 -53.586  1.00  0.00     0.062 A 
HETATM    3 CL   UNL     1     -40.604  58.617 -53.305  1.00  0.00    -0.082 Cl
HETATM    4  C   UNL     1     -43.124  59.103 -54.009  1.00  0.00     0.055 A 
HETATM    5  C   UNL     1     -44.473  58.828 -54.218  1.00  0.00     0.036 A 
HETATM    6  C   UNL     1     -44.945  57.561 -53.874  1.00  0.00     0.032 A 
HETATM    7  C   UNL     1     -44.059  56.557 -53.463  1.00  0.00     0.033 A 
ENDROOT
BRANCH   5   8
HETATM    8  N   UNL     1     -45.412  59.741 -54.744  1.00  0.00    -0.333 N 
HETATM    9  H   UNL     1     -46.197  59.957 -54.125  1.00  0.00     0.168 HD
BRANCH   8  10
HETATM   10  C   UNL     1     -45.565  60.271 -56.006  1.00  0.00     0.179 C 
HETATM   11  S   UNL     1     -45.901  61.838 -56.480  1.00  0.00    -0.040 SA
BRANCH  10  12
HETATM   12  N   UNL     1     -45.380  59.371 -57.040  1.00  0.00    -0.299 N 
HETATM   13  C   UNL     1     -46.123  58.254 -57.396  1.00  0.00     0.260 C 
HETATM   14  O   UNL     1     -47.075  57.825 -56.752  1.00  0.00    -0.267 OA
HETATM   15  H   UNL     1     -44.574  59.588 -57.616  1.00  0.00     0.171 HD
BRANCH  13  16
HETATM   16  C   UNL     1     -45.627  57.536 -58.596  1.00  0.00     0.066 A 
HETATM   17  C   UNL     1     -44.259  57.322 -58.833  1.00  0.00     0.089 A 
HETATM   18  C   UNL     1     -43.837  56.516 -59.902  1.00  0.00    -0.028 A 
HETATM   19  C   UNL     1     -42.381  56.207 -60.113  1.00  0.00     0.051 C 
HETATM   20  C   UNL     1     -44.804  55.964 -60.755  1.00  0.00     0.009 A 
HETATM   21  C   UNL     1     -46.162  56.221 -60.554  1.00  0.00     0.002 A 
HETATM   22  C   UNL     1     -46.575  57.007 -59.478  1.00  0.00     0.020 A 
BRANCH  17  23
HETATM   23  O   UNL     1     -43.296  57.840 -58.001  1.00  0.00    -0.354 OA
HETATM   24  C   UNL     1     -42.890  56.871 -57.025  1.00  0.00     0.210 C 
ENDBRANCH  17  23
ENDBRANCH  13  16
ENDBRANCH  10  12
ENDBRANCH   8  10
ENDBRANCH   5   8
BRANCH   1  25
HETATM   25  N   UNL     1     -41.882  55.659 -53.118  1.00  0.00    -0.376 N 
HETATM   26  C   UNL     1     -41.671  54.761 -54.269  1.00  0.00     0.143 C 
HETATM   27  C   UNL     1     -40.461  53.838 -53.995  1.00  0.00     0.145 C 
HETATM   28  N   UNL     1     -40.503  53.186 -52.675  1.00  0.00    -0.349 N 
HETATM   29  C   UNL     1     -39.812  51.989 -52.520  1.00  0.00     0.219 C 
HETATM   30  C   UNL     1     -40.851  54.072 -51.552  1.00  0.00     0.145 C 
HETATM   31  O   UNL     1     -39.291  51.407 -53.472  1.00  0.00    -0.273 OA
HETATM   32  C   UNL     1     -42.091  54.927 -51.856  1.00  0.00     0.143 C 
BRANCH  29  33
HETATM   33  C   UNL     1     -39.753  51.415 -51.111  1.00  0.00     0.098 C 
HETATM   34  C   UNL     1     -39.567  49.907 -51.096  1.00  0.00     0.014 C 
ENDBRANCH  29  33
ENDBRANCH   1  25
TORSDOF 7
ENDMDL
MODEL 7
REMARK VINA RESULT:      -7.7      4.871      7.165
REMARK  7 active torsions:
REMARK  status: ('A' for Active; 'I' for Inactive)
REMARK    1  A    between atoms: C_2  and  C_3 
REMARK       I    between atoms: C_3  and  N_4 
REMARK    2  A    between atoms: N_7  and  C_8 
REMARK    3  A    between atoms: C_12  and  N_13 
REMARK    4  A    between atoms: N_13  and  C_14 
REMARK    5  A    between atoms: C_14  and  N_15 
REMARK       I    between atoms: N_15  and  C_16 
REMARK    6  A    between atoms: C_16  and  C_17 
REMARK    7  A    between atoms: C_18  and  O_19 
ROOT
HETATM    1  C   UNL     1     -43.265  59.672 -52.664  1.00  0.00     0.052 A 
HETATM    2  C   UNL     1     -41.983  59.127 -52.865  1.00  0.00     0.062 A 
HETATM    3 CL   UNL     1     -40.720  59.207 -51.681  1.00  0.00    -0.082 Cl
HETATM    4  C   UNL     1     -41.636  58.519 -54.083  1.00  0.00     0.055 A 
HETATM    5  C   UNL     1     -42.545  58.440 -55.134  1.00  0.00     0.036 A 
HETATM    6  C   UNL     1     -43.769  59.094 -54.993  1.00  0.00     0.032 A 
HETATM    7  C   UNL     1     -44.123  59.691 -53.776  1.00  0.00     0.033 A 
ENDROOT
BRANCH   5   8
HETATM    8  N   UNL     1     -42.321  57.753 -56.347  1.00  0.00    -0.333 N 
HETATM    9  H   UNL     1     -42.160  58.354 -57.159  1.00  0.00     0.168 HD
BRANCH   8  10
HETATM   10  C   UNL     1     -42.444  56.424 -56.682  1.00  0.00     0.179 C 
HETATM   11  S   UNL     1     -43.143  55.714 -58.025  1.00  0.00    -0.040 SA
BRANCH  10  12
HETATM   12  N   UNL     1     -41.872  55.543 -55.783  1.00  0.00    -0.299 N 
HETATM   13  C   UNL     1     -42.467  54.700 -54.855  1.00  0.00     0.260 C 
HETATM   14  O   UNL     1     -43.671  54.671 -54.624  1.00  0.00    -0.267 OA
HETATM   15  H   UNL     1     -40.858  55.524 -55.836  1.00  0.00     0.171 HD
BRANCH  13  16
HETATM   16  C   UNL     1     -41.517  53.872 -54.071  1.00  0.00     0.066 A 
HETATM   17  C   UNL     1     -41.072  54.244 -52.791  1.00  0.00     0.089 A 
HETATM   18  C   UNL     1     -40.290  53.367 -52.024  1.00  0.00    -0.028 A 
HETATM   19  C   UNL     1     -39.881  53.717 -50.621  1.00  0.00     0.051 C 
HETATM   20  C   UNL     1     -39.924  52.131 -52.575  1.00  0.00     0.009 A 
HETATM   21  C   UNL     1     -40.319  51.781 -53.869  1.00  0.00     0.002 A 
HETATM   22  C   UNL     1     -41.113  52.649 -54.618  1.00  0.00     0.020 A 
BRANCH  17  23
HETATM   23  O   UNL     1     -41.432  55.444 -52.227  1.00  0.00    -0.354 OA
HETATM   24  C   UNL     1     -42.624  55.302 -51.443  1.00  0.00     0.210 C 
ENDBRANCH  17  23
ENDBRANCH  13  16
ENDBRANCH  10  12
ENDBRANCH   8  10
ENDBRANCH   5   8
BRANCH   1  25
HETATM   25  N   UNL     1     -43.802  60.145 -51.463  1.00  0.00    -0.376 N 
HETATM   26  C   UNL     1     -45.221  59.817 -51.226  1.00  0.00     0.143 C 
HETATM   27  C   UNL     1     -45.554  59.997 -49.727  1.00  0.00     0.145 C 
HETATM   28  N   UNL     1     -45.094  61.281 -49.170  1.00  0.00    -0.349 N 
HETATM   29  C   UNL     1     -45.758  61.782 -48.056  1.00  0.00     0.219 C 
HETATM   30  C   UNL     1     -43.718  61.659 -49.531  1.00  0.00     0.145 C 
HETATM   31  O   UNL     1     -46.783  61.257 -47.616  1.00  0.00    -0.273 OA
HETATM   32  C   UNL     1     -43.456  61.512 -51.038  1.00  0.00     0.143 C 
BRANCH  29  33
HETATM   33  C   UNL     1     -45.169  63.031 -47.416  1.00  0.00     0.098 C 
HETATM   34  C   UNL     1     -45.283  63.028 -45.902  1.00  0.00     0.014 C 
ENDBRANCH  29  33
ENDBRANCH   1  25
TORSDOF 7
ENDMDL
MODEL 8
REMARK VINA RESULT:      -7.5      2.893      9.177
REMARK  7 active torsions:
REMARK  status: ('A' for Active; 'I' for Inactive)
REMARK    1  A    between atoms: C_2  and  C_3 
REMARK       I    between atoms: C_3  and  N_4 
REMARK    2  A    between atoms: N_7  and  C_8 
REMARK    3  A    between atoms: C_12  and  N_13 
REMARK    4  A    between atoms: N_13  and  C_14 
REMARK    5  A    between atoms: C_14  and  N_15 
REMARK       I    between atoms: N_15  and  C_16 
REMARK    6  A    between atoms: C_16  and  C_17 
REMARK    7  A    between atoms: C_18  and  O_19 
ROOT
HETATM    1  C   UNL     1     -42.763  56.290 -53.343  1.00  0.00     0.052 A 
HETATM    2  C   UNL     1     -42.479  57.640 -53.066  1.00  0.00     0.062 A 
HETATM    3 CL   UNL     1     -41.065  58.156 -52.208  1.00  0.00    -0.082 Cl
HETATM    4  C   UNL     1     -43.371  58.660 -53.436  1.00  0.00     0.055 A 
HETATM    5  C   UNL     1     -44.569  58.371 -54.083  1.00  0.00     0.036 A 
HETATM    6  C   UNL     1     -44.922  57.030 -54.241  1.00  0.00     0.032 A 
HETATM    7  C   UNL     1     -44.030  56.011 -53.884  1.00  0.00     0.033 A 
ENDROOT
BRANCH   5   8
HETATM    8  N   UNL     1     -45.469  59.334 -54.587  1.00  0.00    -0.333 N 
HETATM    9  H   UNL     1     -46.454  59.156 -54.375  1.00  0.00     0.168 HD
BRANCH   8  10
HETATM   10  C   UNL     1     -45.292  60.385 -55.459  1.00  0.00     0.179 C 
HETATM   11  S   UNL     1     -45.818  61.969 -55.355  1.00  0.00    -0.040 SA
BRANCH  10  12
HETATM   12  N   UNL     1     -44.533  60.090 -56.576  1.00  0.00    -0.299 N 
HETATM   13  C   UNL     1     -43.208  60.389 -56.863  1.00  0.00     0.260 C 
HETATM   14  O   UNL     1     -42.489  61.080 -56.149  1.00  0.00    -0.267 OA
HETATM   15  H   UNL     1     -45.046  59.565 -57.277  1.00  0.00     0.171 HD
BRANCH  13  16
HETATM   16  C   UNL     1     -42.726  59.879 -58.170  1.00  0.00     0.066 A 
HETATM   17  C   UNL     1     -42.848  58.531 -58.544  1.00  0.00     0.089 A 
HETATM   18  C   UNL     1     -42.511  58.117 -59.842  1.00  0.00    -0.028 A 
HETATM   19  C   UNL     1     -42.721  56.694 -60.282  1.00  0.00     0.051 C 
HETATM   20  C   UNL     1     -42.009  59.065 -60.745  1.00  0.00     0.009 A 
HETATM   21  C   UNL     1     -41.835  60.396 -60.358  1.00  0.00     0.002 A 
HETATM   22  C   UNL     1     -42.190  60.805 -59.073  1.00  0.00     0.020 A 
BRANCH  17  23
HETATM   23  O   UNL     1     -43.352  57.589 -57.680  1.00  0.00    -0.354 OA
HETATM   24  C   UNL     1     -42.305  56.997 -56.900  1.00  0.00     0.210 C 
ENDBRANCH  17  23
ENDBRANCH  13  16
ENDBRANCH  10  12
ENDBRANCH   8  10
ENDBRANCH   5   8
BRANCH   1  25
HETATM   25  N   UNL     1     -41.902  55.199 -53.194  1.00  0.00    -0.376 N 
HETATM   26  C   UNL     1     -41.866  54.256 -54.328  1.00  0.00     0.143 C 
HETATM   27  C   UNL     1     -40.597  53.378 -54.235  1.00  0.00     0.145 C 
HETATM   28  N   UNL     1     -40.386  52.784 -52.904  1.00  0.00    -0.349 N 
HETATM   29  C   UNL     1     -39.639  51.613 -52.825  1.00  0.00     0.219 C 
HETATM   30  C   UNL     1     -40.562  53.710 -51.773  1.00  0.00     0.145 C 
HETATM   31  O   UNL     1     -39.274  51.003 -53.831  1.00  0.00    -0.273 OA
HETATM   32  C   UNL     1     -41.864  54.519 -51.887  1.00  0.00     0.143 C 
BRANCH  29  33
HETATM   33  C   UNL     1     -39.316  51.104 -51.427  1.00  0.00     0.098 C 
HETATM   34  C   UNL     1     -39.774  49.674 -51.200  1.00  0.00     0.014 C 
ENDBRANCH  29  33
ENDBRANCH   1  25
TORSDOF 7
ENDMDL
MODEL 9
REMARK VINA RESULT:      -7.4      3.053      9.159
REMARK  7 active torsions:
REMARK  status: ('A' for Active; 'I' for Inactive)
REMARK    1  A    between atoms: C_2  and  C_3 
REMARK       I    between atoms: C_3  and  N_4 
REMARK    2  A    between atoms: N_7  and  C_8 
REMARK    3  A    between atoms: C_12  and  N_13 
REMARK    4  A    between atoms: N_13  and  C_14 
REMARK    5  A    between atoms: C_14  and  N_15 
REMARK       I    between atoms: N_15  and  C_16 
REMARK    6  A    between atoms: C_16  and  C_17 
REMARK    7  A    between atoms: C_18  and  O_19 
ROOT
HETATM    1  C   UNL     1     -42.606  57.524 -52.548  1.00  0.00     0.052 A 
HETATM    2  C   UNL     1     -41.821  58.631 -52.920  1.00  0.00     0.062 A 
HETATM    3 CL   UNL     1     -40.119  58.736 -52.609  1.00  0.00    -0.082 Cl
HETATM    4  C   UNL     1     -42.397  59.755 -53.534  1.00  0.00     0.055 A 
HETATM    5  C   UNL     1     -43.764  59.817 -53.789  1.00  0.00     0.036 A 
HETATM    6  C   UNL     1     -44.568  58.786 -53.303  1.00  0.00     0.032 A 
HETATM    7  C   UNL     1     -43.997  57.658 -52.701  1.00  0.00     0.033 A 
ENDROOT
BRANCH   5   8
HETATM    8  N   UNL     1     -44.408  60.855 -54.497  1.00  0.00    -0.333 N 
HETATM    9  H   UNL     1     -44.556  61.714 -53.962  1.00  0.00     0.168 HD
BRANCH   8  10
HETATM   10  C   UNL     1     -45.032  60.875 -55.724  1.00  0.00     0.179 C 
HETATM   11  S   UNL     1     -46.409  61.685 -56.216  1.00  0.00    -0.040 SA
BRANCH  10  12
HETATM   12  N   UNL     1     -44.401  60.136 -56.708  1.00  0.00    -0.299 N 
HETATM   13  C   UNL     1     -43.114  60.239 -57.217  1.00  0.00     0.260 C 
HETATM   14  O   UNL     1     -42.317  61.117 -56.902  1.00  0.00    -0.267 OA
HETATM   15  H   UNL     1     -44.990  59.406 -57.096  1.00  0.00     0.171 HD
BRANCH  13  16
HETATM   16  C   UNL     1     -42.779  59.242 -58.263  1.00  0.00     0.066 A 
HETATM   17  C   UNL     1     -43.136  57.888 -58.155  1.00  0.00     0.089 A 
HETATM   18  C   UNL     1     -42.929  57.007 -59.228  1.00  0.00    -0.028 A 
HETATM   19  C   UNL     1     -43.387  55.577 -59.158  1.00  0.00     0.051 C 
HETATM   20  C   UNL     1     -42.319  57.494 -60.394  1.00  0.00     0.009 A 
HETATM   21  C   UNL     1     -41.913  58.827 -60.483  1.00  0.00     0.002 A 
HETATM   22  C   UNL     1     -42.139  59.702 -59.420  1.00  0.00     0.020 A 
BRANCH  17  23
HETATM   23  O   UNL     1     -43.749  57.395 -57.029  1.00  0.00    -0.354 OA
HETATM   24  C   UNL     1     -42.786  56.840 -56.124  1.00  0.00     0.210 C 
ENDBRANCH  17  23
ENDBRANCH  13  16
ENDBRANCH  10  12
ENDBRANCH   8  10
ENDBRANCH   5   8
BRANCH   1  25
HETATM   25  N   UNL     1     -42.153  56.282 -52.095  1.00  0.00    -0.376 N 
HETATM   26  C   UNL     1     -41.751  56.229 -50.676  1.00  0.00     0.143 C 
HETATM   27  C   UNL     1     -41.701  54.758 -50.203  1.00  0.00     0.145 C 
HETATM   28  N   UNL     1     -40.956  53.870 -51.112  1.00  0.00    -0.349 N 
HETATM   29  C   UNL     1     -40.399  52.712 -50.579  1.00  0.00     0.219 C 
HETATM   30  C   UNL     1     -41.272  54.033 -52.541  1.00  0.00     0.145 C 
HETATM   31  O   UNL     1     -40.399  52.486 -49.368  1.00  0.00    -0.273 OA
HETATM   32  C   UNL     1     -41.255  55.509 -52.970  1.00  0.00     0.143 C 
BRANCH  29  33
HETATM   33  C   UNL     1     -39.763  51.745 -51.567  1.00  0.00     0.098 C 
HETATM   34  C   UNL     1     -39.611  50.342 -51.004  1.00  0.00     0.014 C 
ENDBRANCH  29  33
ENDBRANCH   1  25
TORSDOF 7
ENDMDL
MODEL 10
REMARK VINA RESULT:      -7.4      2.471      2.971
REMARK  7 active torsions:
REMARK  status: ('A' for Active; 'I' for Inactive)
REMARK    1  A    between atoms: C_2  and  C_3 
REMARK       I    between atoms: C_3  and  N_4 
REMARK    2  A    between atoms: N_7  and  C_8 
REMARK    3  A    between atoms: C_12  and  N_13 
REMARK    4  A    between atoms: N_13  and  C_14 
REMARK    5  A    between atoms: C_14  and  N_15 
REMARK       I    between atoms: N_15  and  C_16 
REMARK    6  A    between atoms: C_16  and  C_17 
REMARK    7  A    between atoms: C_18  and  O_19 
ROOT
HETATM    1  C   UNL     1     -44.520  57.563 -57.945  1.00  0.00     0.052 A 
HETATM    2  C   UNL     1     -43.620  56.501 -58.153  1.00  0.00     0.062 A 
HETATM    3 CL   UNL     1     -43.462  55.672 -59.666  1.00  0.00    -0.082 Cl
HETATM    4  C   UNL     1     -42.818  56.015 -57.107  1.00  0.00     0.055 A 
HETATM    5  C   UNL     1     -42.891  56.562 -55.829  1.00  0.00     0.036 A 
HETATM    6  C   UNL     1     -43.873  57.521 -55.580  1.00  0.00     0.032 A 
HETATM    7  C   UNL     1     -44.666  58.016 -56.623  1.00  0.00     0.033 A 
ENDROOT
BRANCH   5   8
HETATM    8  N   UNL     1     -42.049  56.211 -54.750  1.00  0.00    -0.333 N 
HETATM    9  H   UNL     1     -41.052  56.373 -54.911  1.00  0.00     0.168 HD
BRANCH   8  10
HETATM   10  C   UNL     1     -42.298  55.532 -53.579  1.00  0.00     0.179 C 
HETATM   11  S   UNL     1     -43.224  55.970 -52.258  1.00  0.00    -0.040 SA
BRANCH  10  12
HETATM   12  N   UNL     1     -41.716  54.280 -53.500  1.00  0.00    -0.299 N 
HETATM   13  C   UNL     1     -40.547  53.799 -54.074  1.00  0.00     0.260 C 
HETATM   14  O   UNL     1     -39.851  54.438 -54.857  1.00  0.00    -0.267 OA
HETATM   15  H   UNL     1     -42.242  53.633 -52.920  1.00  0.00     0.171 HD
BRANCH  13  16
HETATM   16  C   UNL     1     -40.226  52.390 -53.740  1.00  0.00     0.066 A 
HETATM   17  C   UNL     1     -39.826  51.993 -52.453  1.00  0.00     0.089 A 
HETATM   18  C   UNL     1     -39.671  50.634 -52.141  1.00  0.00    -0.028 A 
HETATM   19  C   UNL     1     -39.330  50.191 -50.745  1.00  0.00     0.051 C 
HETATM   20  C   UNL     1     -39.880  49.681 -53.149  1.00  0.00     0.009 A 
HETATM   21  C   UNL     1     -40.224  50.076 -54.444  1.00  0.00     0.002 A 
HETATM   22  C   UNL     1     -40.395  51.428 -54.742  1.00  0.00     0.020 A 
BRANCH  17  23
HETATM   23  O   UNL     1     -39.632  52.909 -51.447  1.00  0.00    -0.354 OA
HETATM   24  C   UNL     1     -40.769  52.959 -50.576  1.00  0.00     0.210 C 
ENDBRANCH  17  23
ENDBRANCH  13  16
ENDBRANCH  10  12
ENDBRANCH   8  10
ENDBRANCH   5   8
BRANCH   1  25
HETATM   25  N   UNL     1     -45.244  58.258 -58.919  1.00  0.00    -0.376 N 
HETATM   26  C   UNL     1     -46.386  57.530 -59.504  1.00  0.00     0.143 C 
HETATM   27  C   UNL     1     -47.335  58.527 -60.206  1.00  0.00     0.145 C 
HETATM   28  N   UNL     1     -46.645  59.464 -61.109  1.00  0.00    -0.349 N 
HETATM   29  C   UNL     1     -47.376  60.020 -62.153  1.00  0.00     0.219 C 
HETATM   30  C   UNL     1     -45.426  60.079 -60.556  1.00  0.00     0.145 C 
HETATM   31  O   UNL     1     -48.523  59.653 -62.415  1.00  0.00    -0.273 OA
HETATM   32  C   UNL     1     -44.494  59.037 -59.918  1.00  0.00     0.143 C 
BRANCH  29  33
HETATM   33  C   UNL     1     -46.679  61.092 -62.978  1.00  0.00     0.098 C 
HETATM   34  C   UNL     1     -47.018  62.501 -62.522  1.00  0.00     0.014 C 
ENDBRANCH  29  33
ENDBRANCH   1  25
TORSDOF 7
ENDMDL
