MODEL 1
REMARK VINA RESULT:      -8.4      0.000      0.000
REMARK  5 active torsions:
REMARK  status: ('A' for Active; 'I' for Inactive)
REMARK    1  A    between atoms: C_4  and  C_5 
REMARK    2  A    between atoms: C_5  and  N_6 
REMARK    3  A    between atoms: C_7  and  C_8 
REMARK       I    between atoms: C_8  and  N_9 
REMARK    4  A    between atoms: N_9  and  N_10 
REMARK       I    between atoms: N_10  and  C_11 
REMARK    5  A    between atoms: C_11  and  C_12 
ROOT
HETATM    1  N   UNL     1     -41.870  54.424 -53.292  1.00  0.00    -0.337 N 
HETATM    2  C   UNL     1     -41.705  54.061 -54.625  1.00  0.00     0.106 A 
HETATM    3  C   UNL     1     -40.832  52.981 -54.621  1.00  0.00     0.049 A 
HETATM    4  C   UNL     1     -40.501  52.654 -53.282  1.00  0.00    -0.007 A 
HETATM    5  C   UNL     1     -41.174  53.556 -52.461  1.00  0.00     0.045 A 
HETATM    6  C   UNL     1     -39.692  51.659 -52.699  1.00  0.00     0.014 A 
HETATM    7  C   UNL     1     -39.579  51.592 -51.307  1.00  0.00     0.001 A 
HETATM    8  C   UNL     1     -40.259  52.498 -50.500  1.00  0.00     0.002 A 
HETATM    9  C   UNL     1     -41.065  53.494 -51.059  1.00  0.00     0.030 A 
ENDROOT
BRANCH   2  10
HETATM   10  C   UNL     1     -42.354  54.696 -55.761  1.00  0.00     0.286 C 
HETATM   11  N   UNL     1     -41.682  55.782 -56.285  1.00  0.00    -0.262 N 
HETATM   12  H   UNL     1     -40.837  56.177 -55.880  1.00  0.00     0.190 HD
HETATM   13  O   UNL     1     -43.410  54.309 -56.264  1.00  0.00    -0.264 OA
BRANCH  11  14
HETATM   14  N   UNL     1     -42.177  56.400 -57.438  1.00  0.00    -0.262 N 
HETATM   15  C   UNL     1     -42.403  57.759 -57.426  1.00  0.00     0.286 C 
HETATM   16  O   UNL     1     -42.240  58.434 -56.408  1.00  0.00    -0.264 OA
HETATM   17  H   UNL     1     -42.303  55.810 -58.256  1.00  0.00     0.190 HD
BRANCH  15  18
HETATM   18  C   UNL     1     -42.841  58.332 -58.679  1.00  0.00     0.102 A 
HETATM   19  N   UNL     1     -44.090  58.055 -59.197  1.00  0.00    -0.361 N 
HETATM   20  H   UNL     1     -44.761  57.445 -58.746  1.00  0.00     0.165 HD
HETATM   21  C   UNL     1     -44.271  58.716 -60.381  1.00  0.00     0.088 A 
HETATM   22  C   UNL     1     -43.131  59.441 -60.638  1.00  0.00     0.019 A 
HETATM   23  C   UNL     1     -42.231  59.201 -59.571  1.00  0.00     0.036 A 
ENDBRANCH  15  18
ENDBRANCH  11  14
ENDBRANCH   2  10
BRANCH   1  24
HETATM   24  C   UNL     1     -42.662  55.556 -52.809  1.00  0.00     0.168 C 
BRANCH  24  25
HETATM   25  C   UNL     1     -41.804  56.714 -52.350  1.00  0.00    -0.040 A 
HETATM   26  C   UNL     1     -41.073  57.459 -53.288  1.00  0.00     0.009 A 
HETATM   27  C   UNL     1     -40.312  58.560 -52.887  1.00  0.00     0.001 A 
HETATM   28  C   UNL     1     -40.275  58.932 -51.545  1.00  0.00     0.000 A 
HETATM   29  C   UNL     1     -40.996  58.203 -50.603  1.00  0.00     0.001 A 
HETATM   30  C   UNL     1     -41.760  57.105 -51.003  1.00  0.00     0.009 A 
ENDBRANCH  24  25
ENDBRANCH   1  24
TORSDOF 5
ENDMDL
MODEL 2
REMARK VINA RESULT:      -8.3      1.589      1.812
REMARK  5 active torsions:
REMARK  status: ('A' for Active; 'I' for Inactive)
REMARK    1  A    between atoms: C_4  and  C_5 
REMARK    2  A    between atoms: C_5  and  N_6 
REMARK    3  A    between atoms: C_7  and  C_8 
REMARK       I    between atoms: C_8  and  N_9 
REMARK    4  A    between atoms: N_9  and  N_10 
REMARK       I    between atoms: N_10  and  C_11 
REMARK    5  A    between atoms: C_11  and  C_12 
ROOT
HETATM    1  N   UNL     1     -42.041  54.727 -52.971  1.00  0.00    -0.337 N 
HETATM    2  C   UNL     1     -42.382  54.606 -54.314  1.00  0.00     0.106 A 
HETATM    3  C   UNL     1     -41.640  53.538 -54.801  1.00  0.00     0.049 A 
HETATM    4  C   UNL     1     -40.881  52.977 -53.744  1.00  0.00    -0.007 A 
HETATM    5  C   UNL     1     -41.157  53.722 -52.600  1.00  0.00     0.045 A 
HETATM    6  C   UNL     1     -39.989  51.890 -53.662  1.00  0.00     0.014 A 
HETATM    7  C   UNL     1     -39.397  51.576 -52.435  1.00  0.00     0.001 A 
HETATM    8  C   UNL     1     -39.685  52.327 -51.301  1.00  0.00     0.002 A 
HETATM    9  C   UNL     1     -40.566  53.411 -51.362  1.00  0.00     0.030 A 
ENDROOT
BRANCH   2  10
HETATM   10  C   UNL     1     -43.344  55.436 -55.020  1.00  0.00     0.286 C 
HETATM   11  N   UNL     1     -43.082  55.620 -56.363  1.00  0.00    -0.262 N 
HETATM   12  H   UNL     1     -42.247  55.279 -56.831  1.00  0.00     0.190 HD
HETATM   13  O   UNL     1     -44.346  55.933 -54.503  1.00  0.00    -0.264 OA
BRANCH  11  14
HETATM   14  N   UNL     1     -44.002  56.323 -57.149  1.00  0.00    -0.262 N 
HETATM   15  C   UNL     1     -43.927  56.221 -58.521  1.00  0.00     0.286 C 
HETATM   16  O   UNL     1     -43.033  55.579 -59.075  1.00  0.00    -0.264 OA
HETATM   17  H   UNL     1     -44.721  56.845 -56.657  1.00  0.00     0.190 HD
BRANCH  15  18
HETATM   18  C   UNL     1     -44.960  56.914 -59.258  1.00  0.00     0.102 A 
HETATM   19  N   UNL     1     -46.207  56.352 -59.444  1.00  0.00    -0.361 N 
HETATM   20  H   UNL     1     -46.471  55.441 -59.090  1.00  0.00     0.165 HD
HETATM   21  C   UNL     1     -47.007  57.198 -60.164  1.00  0.00     0.088 A 
HETATM   22  C   UNL     1     -46.278  58.330 -60.444  1.00  0.00     0.019 A 
HETATM   23  C   UNL     1     -44.992  58.153 -59.877  1.00  0.00     0.036 A 
ENDBRANCH  15  18
ENDBRANCH  11  14
ENDBRANCH   2  10
BRANCH   1  24
HETATM   24  C   UNL     1     -42.532  55.759 -52.057  1.00  0.00     0.168 C 
BRANCH  24  25
HETATM   25  C   UNL     1     -41.572  56.919 -51.918  1.00  0.00    -0.040 A 
HETATM   26  C   UNL     1     -41.103  57.582 -53.062  1.00  0.00     0.009 A 
HETATM   27  C   UNL     1     -40.252  58.684 -52.949  1.00  0.00     0.001 A 
HETATM   28  C   UNL     1     -39.862  59.140 -51.692  1.00  0.00     0.000 A 
HETATM   29  C   UNL     1     -40.320  58.493 -50.547  1.00  0.00     0.001 A 
HETATM   30  C   UNL     1     -41.172  57.394 -50.658  1.00  0.00     0.009 A 
ENDBRANCH  24  25
ENDBRANCH   1  24
TORSDOF 5
ENDMDL
MODEL 3
REMARK VINA RESULT:      -8.3      2.018      2.862
REMARK  5 active torsions:
REMARK  status: ('A' for Active; 'I' for Inactive)
REMARK    1  A    between atoms: C_4  and  C_5 
REMARK    2  A    between atoms: C_5  and  N_6 
REMARK    3  A    between atoms: C_7  and  C_8 
REMARK       I    between atoms: C_8  and  N_9 
REMARK    4  A    between atoms: N_9  and  N_10 
REMARK       I    between atoms: N_10  and  C_11 
REMARK    5  A    between atoms: C_11  and  C_12 
ROOT
HETATM    1  N   UNL     1     -40.250  53.241 -52.474  1.00  0.00    -0.337 N 
HETATM    2  C   UNL     1     -40.482  53.438 -53.832  1.00  0.00     0.106 A 
HETATM    3  C   UNL     1     -40.306  52.198 -54.433  1.00  0.00     0.049 A 
HETATM    4  C   UNL     1     -40.011  51.234 -53.436  1.00  0.00    -0.007 A 
HETATM    5  C   UNL     1     -39.997  51.901 -52.213  1.00  0.00     0.045 A 
HETATM    6  C   UNL     1     -39.765  49.848 -53.471  1.00  0.00     0.014 A 
HETATM    7  C   UNL     1     -39.512  49.163 -52.279  1.00  0.00     0.001 A 
HETATM    8  C   UNL     1     -39.504  49.841 -51.065  1.00  0.00     0.002 A 
HETATM    9  C   UNL     1     -39.745  51.217 -51.009  1.00  0.00     0.030 A 
ENDROOT
BRANCH   2  10
HETATM   10  C   UNL     1     -40.857  54.698 -54.451  1.00  0.00     0.286 C 
HETATM   11  N   UNL     1     -42.211  54.862 -54.669  1.00  0.00    -0.262 N 
HETATM   12  H   UNL     1     -42.905  54.142 -54.490  1.00  0.00     0.190 HD
HETATM   13  O   UNL     1     -40.061  55.590 -54.751  1.00  0.00    -0.264 OA
BRANCH  11  14
HETATM   14  N   UNL     1     -42.679  56.080 -55.171  1.00  0.00    -0.262 N 
HETATM   15  C   UNL     1     -43.102  56.146 -56.481  1.00  0.00     0.286 C 
HETATM   16  O   UNL     1     -43.021  55.178 -57.238  1.00  0.00    -0.264 OA
HETATM   17  H   UNL     1     -42.728  56.857 -54.519  1.00  0.00     0.190 HD
BRANCH  15  18
HETATM   18  C   UNL     1     -43.644  57.420 -56.901  1.00  0.00     0.102 A 
HETATM   19  N   UNL     1     -44.902  57.514 -57.461  1.00  0.00    -0.361 N 
HETATM   20  H   UNL     1     -45.510  56.718 -57.614  1.00  0.00     0.165 HD
HETATM   21  C   UNL     1     -45.189  58.816 -57.769  1.00  0.00     0.088 A 
HETATM   22  C   UNL     1     -44.110  59.584 -57.398  1.00  0.00     0.019 A 
HETATM   23  C   UNL     1     -43.138  58.709 -56.853  1.00  0.00     0.036 A 
ENDBRANCH  15  18
ENDBRANCH  11  14
ENDBRANCH   2  10
BRANCH   1  24
HETATM   24  C   UNL     1     -40.263  54.283 -51.447  1.00  0.00     0.168 C 
BRANCH  24  25
HETATM   25  C   UNL     1     -41.639  54.875 -51.236  1.00  0.00    -0.040 A 
HETATM   26  C   UNL     1     -42.722  54.039 -50.927  1.00  0.00     0.009 A 
HETATM   27  C   UNL     1     -43.989  54.574 -50.683  1.00  0.00     0.001 A 
HETATM   28  C   UNL     1     -44.189  55.952 -50.742  1.00  0.00     0.000 A 
HETATM   29  C   UNL     1     -43.123  56.795 -51.046  1.00  0.00     0.001 A 
HETATM   30  C   UNL     1     -41.856  56.262 -51.286  1.00  0.00     0.009 A 
ENDBRANCH  24  25
ENDBRANCH   1  24
TORSDOF 5
ENDMDL
MODEL 4
REMARK VINA RESULT:      -8.1      2.124      4.320
REMARK  5 active torsions:
REMARK  status: ('A' for Active; 'I' for Inactive)
REMARK    1  A    between atoms: C_4  and  C_5 
REMARK    2  A    between atoms: C_5  and  N_6 
REMARK    3  A    between atoms: C_7  and  C_8 
REMARK       I    between atoms: C_8  and  N_9 
REMARK    4  A    between atoms: N_9  and  N_10 
REMARK       I    between atoms: N_10  and  C_11 
REMARK    5  A    between atoms: C_11  and  C_12 
ROOT
HETATM    1  N   UNL     1     -41.166  54.194 -52.708  1.00  0.00    -0.337 N 
HETATM    2  C   UNL     1     -42.454  54.636 -52.996  1.00  0.00     0.106 A 
HETATM    3  C   UNL     1     -43.018  54.987 -51.776  1.00  0.00     0.049 A 
HETATM    4  C   UNL     1     -42.059  54.803 -50.749  1.00  0.00    -0.007 A 
HETATM    5  C   UNL     1     -40.899  54.323 -51.352  1.00  0.00     0.045 A 
HETATM    6  C   UNL     1     -42.078  55.016 -49.356  1.00  0.00     0.014 A 
HETATM    7  C   UNL     1     -40.932  54.742 -48.603  1.00  0.00     0.001 A 
HETATM    8  C   UNL     1     -39.781  54.266 -49.219  1.00  0.00     0.002 A 
HETATM    9  C   UNL     1     -39.742  54.048 -50.599  1.00  0.00     0.030 A 
ENDROOT
BRANCH   2  10
HETATM   10  C   UNL     1     -43.041  54.721 -54.323  1.00  0.00     0.286 C 
HETATM   11  N   UNL     1     -43.493  55.976 -54.681  1.00  0.00    -0.262 N 
HETATM   12  H   UNL     1     -43.496  56.778 -54.057  1.00  0.00     0.190 HD
HETATM   13  O   UNL     1     -43.126  53.776 -55.108  1.00  0.00    -0.264 OA
BRANCH  11  14
HETATM   14  N   UNL     1     -43.986  56.180 -55.974  1.00  0.00    -0.262 N 
HETATM   15  C   UNL     1     -43.209  56.859 -56.888  1.00  0.00     0.286 C 
HETATM   16  O   UNL     1     -42.121  57.345 -56.579  1.00  0.00    -0.264 OA
HETATM   17  H   UNL     1     -44.889  55.769 -56.191  1.00  0.00     0.190 HD
BRANCH  15  18
HETATM   18  C   UNL     1     -43.757  56.960 -58.222  1.00  0.00     0.102 A 
HETATM   19  N   UNL     1     -44.331  55.871 -58.847  1.00  0.00    -0.361 N 
HETATM   20  H   UNL     1     -44.400  54.953 -58.423  1.00  0.00     0.165 HD
HETATM   21  C   UNL     1     -44.777  56.218 -60.093  1.00  0.00     0.088 A 
HETATM   22  C   UNL     1     -44.501  57.551 -60.283  1.00  0.00     0.019 A 
HETATM   23  C   UNL     1     -43.859  58.020 -59.110  1.00  0.00     0.036 A 
ENDBRANCH  15  18
ENDBRANCH  11  14
ENDBRANCH   2  10
BRANCH   1  24
HETATM   24  C   UNL     1     -40.210  53.663 -53.681  1.00  0.00     0.168 C 
BRANCH  24  25
HETATM   25  C   UNL     1     -40.002  52.172 -53.539  1.00  0.00    -0.040 A 
HETATM   26  C   UNL     1     -39.539  51.641 -52.326  1.00  0.00     0.009 A 
HETATM   27  C   UNL     1     -39.385  50.262 -52.165  1.00  0.00     0.001 A 
HETATM   28  C   UNL     1     -39.696  49.397 -53.212  1.00  0.00     0.000 A 
HETATM   29  C   UNL     1     -40.158  49.909 -54.421  1.00  0.00     0.001 A 
HETATM   30  C   UNL     1     -40.315  51.286 -54.583  1.00  0.00     0.009 A 
ENDBRANCH  24  25
ENDBRANCH   1  24
TORSDOF 5
ENDMDL
MODEL 5
REMARK VINA RESULT:      -8.1      3.103      5.770
REMARK  5 active torsions:
REMARK  status: ('A' for Active; 'I' for Inactive)
REMARK    1  A    between atoms: C_4  and  C_5 
REMARK    2  A    between atoms: C_5  and  N_6 
REMARK    3  A    between atoms: C_7  and  C_8 
REMARK       I    between atoms: C_8  and  N_9 
REMARK    4  A    between atoms: N_9  and  N_10 
REMARK       I    between atoms: N_10  and  C_11 
REMARK    5  A    between atoms: C_11  and  C_12 
ROOT
HETATM    1  N   UNL     1     -42.308  54.274 -52.874  1.00  0.00    -0.337 N 
HETATM    2  C   UNL     1     -41.972  54.857 -51.656  1.00  0.00     0.106 A 
HETATM    3  C   UNL     1     -40.876  54.147 -51.184  1.00  0.00     0.049 A 
HETATM    4  C   UNL     1     -40.514  53.160 -52.134  1.00  0.00    -0.007 A 
HETATM    5  C   UNL     1     -41.410  53.265 -53.196  1.00  0.00     0.045 A 
HETATM    6  C   UNL     1     -39.491  52.193 -52.186  1.00  0.00     0.014 A 
HETATM    7  C   UNL     1     -39.392  51.355 -53.301  1.00  0.00     0.001 A 
HETATM    8  C   UNL     1     -40.292  51.473 -54.354  1.00  0.00     0.002 A 
HETATM    9  C   UNL     1     -41.314  52.426 -54.322  1.00  0.00     0.030 A 
ENDROOT
BRANCH   2  10
HETATM   10  C   UNL     1     -42.643  55.995 -51.050  1.00  0.00     0.286 C 
HETATM   11  N   UNL     1     -41.915  57.168 -51.047  1.00  0.00    -0.262 N 
HETATM   12  H   UNL     1     -40.954  57.240 -51.368  1.00  0.00     0.190 HD
HETATM   13  O   UNL     1     -43.784  55.963 -50.585  1.00  0.00    -0.264 OA
BRANCH  11  14
HETATM   14  N   UNL     1     -42.512  58.341 -50.572  1.00  0.00    -0.262 N 
HETATM   15  C   UNL     1     -42.227  59.536 -51.195  1.00  0.00     0.286 C 
HETATM   16  O   UNL     1     -41.413  59.609 -52.117  1.00  0.00    -0.264 OA
HETATM   17  H   UNL     1     -43.175  58.242 -49.809  1.00  0.00     0.190 HD
BRANCH  15  18
HETATM   18  C   UNL     1     -42.943  60.689 -50.695  1.00  0.00     0.102 A 
HETATM   19  N   UNL     1     -43.713  60.615 -49.552  1.00  0.00    -0.361 N 
HETATM   20  H   UNL     1     -43.827  59.769 -49.006  1.00  0.00     0.165 HD
HETATM   21  C   UNL     1     -44.283  61.829 -49.282  1.00  0.00     0.088 A 
HETATM   22  C   UNL     1     -43.875  62.711 -50.255  1.00  0.00     0.019 A 
HETATM   23  C   UNL     1     -43.034  61.997 -51.144  1.00  0.00     0.036 A 
ENDBRANCH  15  18
ENDBRANCH  11  14
ENDBRANCH   2  10
BRANCH   1  24
HETATM   24  C   UNL     1     -43.444  54.654 -53.716  1.00  0.00     0.168 C 
BRANCH  24  25
HETATM   25  C   UNL     1     -43.050  55.583 -54.842  1.00  0.00    -0.040 A 
HETATM   26  C   UNL     1     -43.020  55.111 -56.163  1.00  0.00     0.009 A 
HETATM   27  C   UNL     1     -42.703  55.968 -57.219  1.00  0.00     0.001 A 
HETATM   28  C   UNL     1     -42.415  57.309 -56.969  1.00  0.00     0.000 A 
HETATM   29  C   UNL     1     -42.442  57.792 -55.664  1.00  0.00     0.001 A 
HETATM   30  C   UNL     1     -42.762  56.938 -54.608  1.00  0.00     0.009 A 
ENDBRANCH  24  25
ENDBRANCH   1  24
TORSDOF 5
ENDMDL
MODEL 6
REMARK VINA RESULT:      -7.6      4.225      7.007
REMARK  5 active torsions:
REMARK  status: ('A' for Active; 'I' for Inactive)
REMARK    1  A    between atoms: C_4  and  C_5 
REMARK    2  A    between atoms: C_5  and  N_6 
REMARK    3  A    between atoms: C_7  and  C_8 
REMARK       I    between atoms: C_8  and  N_9 
REMARK    4  A    between atoms: N_9  and  N_10 
REMARK       I    between atoms: N_10  and  C_11 
REMARK    5  A    between atoms: C_11  and  C_12 
ROOT
HETATM    1  N   UNL     1     -41.439  56.984 -53.286  1.00  0.00    -0.337 N 
HETATM    2  C   UNL     1     -41.762  57.014 -51.933  1.00  0.00     0.106 A 
HETATM    3  C   UNL     1     -41.643  55.704 -51.484  1.00  0.00     0.049 A 
HETATM    4  C   UNL     1     -41.203  54.883 -52.552  1.00  0.00    -0.007 A 
HETATM    5  C   UNL     1     -41.063  55.704 -53.670  1.00  0.00     0.045 A 
HETATM    6  C   UNL     1     -40.901  53.512 -52.659  1.00  0.00     0.014 A 
HETATM    7  C   UNL     1     -40.466  52.996 -53.884  1.00  0.00     0.001 A 
HETATM    8  C   UNL     1     -40.328  53.827 -54.989  1.00  0.00     0.002 A 
HETATM    9  C   UNL     1     -40.623  55.191 -54.904  1.00  0.00     0.030 A 
ENDROOT
BRANCH   2  10
HETATM   10  C   UNL     1     -42.121  58.201 -51.175  1.00  0.00     0.286 C 
HETATM   11  N   UNL     1     -43.471  58.488 -51.145  1.00  0.00    -0.262 N 
HETATM   12  H   UNL     1     -44.173  57.971 -51.666  1.00  0.00     0.190 HD
HETATM   13  O   UNL     1     -41.315  58.909 -50.570  1.00  0.00    -0.264 OA
BRANCH  11  14
HETATM   14  N   UNL     1     -43.924  59.555 -50.361  1.00  0.00    -0.262 N 
HETATM   15  C   UNL     1     -45.247  59.587 -49.975  1.00  0.00     0.286 C 
HETATM   16  O   UNL     1     -46.053  58.736 -50.353  1.00  0.00    -0.264 OA
HETATM   17  H   UNL     1     -43.232  60.239 -50.073  1.00  0.00     0.190 HD
BRANCH  15  18
HETATM   18  C   UNL     1     -45.618  60.680 -49.104  1.00  0.00     0.102 A 
HETATM   19  N   UNL     1     -45.536  60.562 -47.731  1.00  0.00    -0.361 N 
HETATM   20  H   UNL     1     -45.222  59.723 -47.258  1.00  0.00     0.165 HD
HETATM   21  C   UNL     1     -45.935  61.724 -47.129  1.00  0.00     0.088 A 
HETATM   22  C   UNL     1     -46.273  62.616 -48.119  1.00  0.00     0.019 A 
HETATM   23  C   UNL     1     -46.077  61.963 -49.361  1.00  0.00     0.036 A 
ENDBRANCH  15  18
ENDBRANCH  11  14
ENDBRANCH   2  10
BRANCH   1  24
HETATM   24  C   UNL     1     -41.483  58.128 -54.198  1.00  0.00     0.168 C 
BRANCH  24  25
HETATM   25  C   UNL     1     -42.692  58.103 -55.107  1.00  0.00    -0.040 A 
HETATM   26  C   UNL     1     -42.522  58.020 -56.497  1.00  0.00     0.009 A 
HETATM   27  C   UNL     1     -43.628  57.950 -57.347  1.00  0.00     0.001 A 
HETATM   28  C   UNL     1     -44.917  57.958 -56.819  1.00  0.00     0.000 A 
HETATM   29  C   UNL     1     -45.102  58.039 -55.441  1.00  0.00     0.001 A 
HETATM   30  C   UNL     1     -43.998  58.106 -54.590  1.00  0.00     0.009 A 
ENDBRANCH  24  25
ENDBRANCH   1  24
TORSDOF 5
ENDMDL
MODEL 7
REMARK VINA RESULT:      -7.6      1.735      2.197
REMARK  5 active torsions:
REMARK  status: ('A' for Active; 'I' for Inactive)
REMARK    1  A    between atoms: C_4  and  C_5 
REMARK    2  A    between atoms: C_5  and  N_6 
REMARK    3  A    between atoms: C_7  and  C_8 
REMARK       I    between atoms: C_8  and  N_9 
REMARK    4  A    between atoms: N_9  and  N_10 
REMARK       I    between atoms: N_10  and  C_11 
REMARK    5  A    between atoms: C_11  and  C_12 
ROOT
HETATM    1  N   UNL     1     -42.306  55.278 -52.143  1.00  0.00    -0.337 N 
HETATM    2  C   UNL     1     -41.753  54.643 -53.250  1.00  0.00     0.106 A 
HETATM    3  C   UNL     1     -40.660  53.929 -52.773  1.00  0.00     0.049 A 
HETATM    4  C   UNL     1     -40.574  54.093 -51.368  1.00  0.00    -0.007 A 
HETATM    5  C   UNL     1     -41.623  54.926 -50.987  1.00  0.00     0.045 A 
HETATM    6  C   UNL     1     -39.696  53.592 -50.386  1.00  0.00     0.014 A 
HETATM    7  C   UNL     1     -39.893  53.939 -49.046  1.00  0.00     0.001 A 
HETATM    8  C   UNL     1     -40.946  54.770 -48.681  1.00  0.00     0.002 A 
HETATM    9  C   UNL     1     -41.827  55.278 -49.640  1.00  0.00     0.030 A 
ENDROOT
BRANCH   2  10
HETATM   10  C   UNL     1     -42.262  54.715 -54.610  1.00  0.00     0.286 C 
HETATM   11  N   UNL     1     -41.910  55.855 -55.305  1.00  0.00    -0.262 N 
HETATM   12  H   UNL     1     -41.400  56.634 -54.897  1.00  0.00     0.190 HD
HETATM   13  O   UNL     1     -42.937  53.837 -55.147  1.00  0.00    -0.264 OA
BRANCH  11  14
HETATM   14  N   UNL     1     -42.271  55.973 -56.651  1.00  0.00    -0.262 N 
HETATM   15  C   UNL     1     -43.359  56.748 -56.987  1.00  0.00     0.286 C 
HETATM   16  O   UNL     1     -44.060  57.289 -56.130  1.00  0.00    -0.264 OA
HETATM   17  H   UNL     1     -41.672  55.510 -57.329  1.00  0.00     0.190 HD
BRANCH  15  18
HETATM   18  C   UNL     1     -43.620  56.881 -58.403  1.00  0.00     0.102 A 
HETATM   19  N   UNL     1     -44.550  56.084 -59.039  1.00  0.00    -0.361 N 
HETATM   20  H   UNL     1     -45.093  55.370 -58.568  1.00  0.00     0.165 HD
HETATM   21  C   UNL     1     -44.619  56.401 -60.368  1.00  0.00     0.088 A 
HETATM   22  C   UNL     1     -43.731  57.424 -60.603  1.00  0.00     0.019 A 
HETATM   23  C   UNL     1     -43.101  57.727 -59.371  1.00  0.00     0.036 A 
ENDBRANCH  15  18
ENDBRANCH  11  14
ENDBRANCH   2  10
BRANCH   1  24
HETATM   24  C   UNL     1     -43.447  56.194 -52.169  1.00  0.00     0.168 C 
BRANCH  24  25
HETATM   25  C   UNL     1     -43.039  57.640 -51.995  1.00  0.00    -0.040 A 
HETATM   26  C   UNL     1     -43.864  58.520 -51.279  1.00  0.00     0.009 A 
HETATM   27  C   UNL     1     -43.479  59.847 -51.070  1.00  0.00     0.001 A 
HETATM   28  C   UNL     1     -42.264  60.309 -51.570  1.00  0.00     0.000 A 
HETATM   29  C   UNL     1     -41.433  59.447 -52.281  1.00  0.00     0.001 A 
HETATM   30  C   UNL     1     -41.815  58.120 -52.488  1.00  0.00     0.009 A 
ENDBRANCH  24  25
ENDBRANCH   1  24
TORSDOF 5
ENDMDL
MODEL 8
REMARK VINA RESULT:      -7.6      2.256      4.789
REMARK  5 active torsions:
REMARK  status: ('A' for Active; 'I' for Inactive)
REMARK    1  A    between atoms: C_4  and  C_5 
REMARK    2  A    between atoms: C_5  and  N_6 
REMARK    3  A    between atoms: C_7  and  C_8 
REMARK       I    between atoms: C_8  and  N_9 
REMARK    4  A    between atoms: N_9  and  N_10 
REMARK       I    between atoms: N_10  and  C_11 
REMARK    5  A    between atoms: C_11  and  C_12 
ROOT
HETATM    1  N   UNL     1     -41.994  57.817 -53.591  1.00  0.00    -0.337 N 
HETATM    2  C   UNL     1     -43.374  57.952 -53.699  1.00  0.00     0.106 A 
HETATM    3  C   UNL     1     -43.772  58.698 -52.596  1.00  0.00     0.049 A 
HETATM    4  C   UNL     1     -42.629  59.057 -51.839  1.00  0.00    -0.007 A 
HETATM    5  C   UNL     1     -41.521  58.512 -52.486  1.00  0.00     0.045 A 
HETATM    6  C   UNL     1     -42.442  59.809 -50.663  1.00  0.00     0.014 A 
HETATM    7  C   UNL     1     -41.149  59.998 -50.165  1.00  0.00     0.001 A 
HETATM    8  C   UNL     1     -40.054  59.450 -50.822  1.00  0.00     0.002 A 
HETATM    9  C   UNL     1     -40.217  58.700 -51.990  1.00  0.00     0.030 A 
ENDROOT
BRANCH   2  10
HETATM   10  C   UNL     1     -44.194  57.426 -54.778  1.00  0.00     0.286 C 
HETATM   11  N   UNL     1     -44.162  58.161 -55.947  1.00  0.00    -0.262 N 
HETATM   12  H   UNL     1     -43.673  59.046 -56.048  1.00  0.00     0.190 HD
HETATM   13  O   UNL     1     -44.861  56.393 -54.705  1.00  0.00    -0.264 OA
BRANCH  11  14
HETATM   14  N   UNL     1     -44.841  57.683 -57.073  1.00  0.00    -0.262 N 
HETATM   15  C   UNL     1     -44.115  57.167 -58.123  1.00  0.00     0.286 C 
HETATM   16  O   UNL     1     -42.883  57.172 -58.125  1.00  0.00    -0.264 OA
HETATM   17  H   UNL     1     -45.856  57.699 -57.037  1.00  0.00     0.190 HD
BRANCH  15  18
HETATM   18  C   UNL     1     -44.892  56.623 -59.215  1.00  0.00     0.102 A 
HETATM   19  N   UNL     1     -44.341  55.732 -60.114  1.00  0.00    -0.361 N 
HETATM   20  H   UNL     1     -43.381  55.413 -60.071  1.00  0.00     0.165 HD
HETATM   21  C   UNL     1     -45.272  55.360 -61.046  1.00  0.00     0.088 A 
HETATM   22  C   UNL     1     -46.447  56.008 -60.748  1.00  0.00     0.019 A 
HETATM   23  C   UNL     1     -46.212  56.803 -59.600  1.00  0.00     0.036 A 
ENDBRANCH  15  18
ENDBRANCH  11  14
ENDBRANCH   2  10
BRANCH   1  24
HETATM   24  C   UNL     1     -41.139  57.054 -54.501  1.00  0.00     0.168 C 
BRANCH  24  25
HETATM   25  C   UNL     1     -40.959  55.617 -54.065  1.00  0.00    -0.040 A 
HETATM   26  C   UNL     1     -40.408  54.679 -54.952  1.00  0.00     0.009 A 
HETATM   27  C   UNL     1     -40.193  53.359 -54.549  1.00  0.00     0.001 A 
HETATM   28  C   UNL     1     -40.522  52.961 -53.255  1.00  0.00     0.000 A 
HETATM   29  C   UNL     1     -41.068  53.880 -52.364  1.00  0.00     0.001 A 
HETATM   30  C   UNL     1     -41.281  55.200 -52.764  1.00  0.00     0.009 A 
ENDBRANCH  24  25
ENDBRANCH   1  24
TORSDOF 5
ENDMDL
MODEL 9
REMARK VINA RESULT:      -7.5      1.816      2.512
REMARK  5 active torsions:
REMARK  status: ('A' for Active; 'I' for Inactive)
REMARK    1  A    between atoms: C_4  and  C_5 
REMARK    2  A    between atoms: C_5  and  N_6 
REMARK    3  A    between atoms: C_7  and  C_8 
REMARK       I    between atoms: C_8  and  N_9 
REMARK    4  A    between atoms: N_9  and  N_10 
REMARK       I    between atoms: N_10  and  C_11 
REMARK    5  A    between atoms: C_11  and  C_12 
ROOT
HETATM    1  N   UNL     1     -41.117  55.283 -53.546  1.00  0.00    -0.337 N 
HETATM    2  C   UNL     1     -41.546  55.046 -54.848  1.00  0.00     0.106 A 
HETATM    3  C   UNL     1     -41.254  53.713 -55.108  1.00  0.00     0.049 A 
HETATM    4  C   UNL     1     -40.688  53.125 -53.950  1.00  0.00    -0.007 A 
HETATM    5  C   UNL     1     -40.626  54.117 -52.974  1.00  0.00     0.045 A 
HETATM    6  C   UNL     1     -40.234  51.827 -53.645  1.00  0.00     0.014 A 
HETATM    7  C   UNL     1     -39.728  51.555 -52.370  1.00  0.00     0.001 A 
HETATM    8  C   UNL     1     -39.675  52.555 -51.406  1.00  0.00     0.002 A 
HETATM    9  C   UNL     1     -40.120  53.850 -51.688  1.00  0.00     0.030 A 
ENDROOT
BRANCH   2  10
HETATM   10  C   UNL     1     -42.189  56.018 -55.716  1.00  0.00     0.286 C 
HETATM   11  N   UNL     1     -43.354  55.583 -56.317  1.00  0.00    -0.262 N 
HETATM   12  H   UNL     1     -43.715  54.636 -56.236  1.00  0.00     0.190 HD
HETATM   13  O   UNL     1     -41.773  57.161 -55.909  1.00  0.00    -0.264 OA
BRANCH  11  14
HETATM   14  N   UNL     1     -44.097  56.478 -57.094  1.00  0.00    -0.262 N 
HETATM   15  C   UNL     1     -44.061  56.362 -58.467  1.00  0.00     0.286 C 
HETATM   16  O   UNL     1     -43.344  55.533 -59.029  1.00  0.00    -0.264 OA
HETATM   17  H   UNL     1     -44.673  57.150 -56.596  1.00  0.00     0.190 HD
BRANCH  15  18
HETATM   18  C   UNL     1     -44.915  57.274 -59.195  1.00  0.00     0.102 A 
HETATM   19  N   UNL     1     -46.287  57.249 -59.040  1.00  0.00    -0.361 N 
HETATM   20  H   UNL     1     -46.771  56.605 -58.426  1.00  0.00     0.165 HD
HETATM   21  C   UNL     1     -46.871  58.204 -59.826  1.00  0.00     0.088 A 
HETATM   22  C   UNL     1     -45.871  58.868 -60.496  1.00  0.00     0.019 A 
HETATM   23  C   UNL     1     -44.641  58.285 -60.102  1.00  0.00     0.036 A 
ENDBRANCH  15  18
ENDBRANCH  11  14
ENDBRANCH   2  10
BRANCH   1  24
HETATM   24  C   UNL     1     -41.165  56.573 -52.854  1.00  0.00     0.168 C 
BRANCH  24  25
HETATM   25  C   UNL     1     -42.545  56.902 -52.331  1.00  0.00    -0.040 A 
HETATM   26  C   UNL     1     -43.116  56.119 -51.317  1.00  0.00     0.009 A 
HETATM   27  C   UNL     1     -44.370  56.438 -50.791  1.00  0.00     0.001 A 
HETATM   28  C   UNL     1     -45.068  57.545 -51.270  1.00  0.00     0.000 A 
HETATM   29  C   UNL     1     -44.514  58.332 -52.275  1.00  0.00     0.001 A 
HETATM   30  C   UNL     1     -43.259  58.017 -52.800  1.00  0.00     0.009 A 
ENDBRANCH  24  25
ENDBRANCH   1  24
TORSDOF 5
ENDMDL
MODEL 10
REMARK VINA RESULT:      -7.3      2.900      8.004
REMARK  5 active torsions:
REMARK  status: ('A' for Active; 'I' for Inactive)
REMARK    1  A    between atoms: C_4  and  C_5 
REMARK    2  A    between atoms: C_5  and  N_6 
REMARK    3  A    between atoms: C_7  and  C_8 
REMARK       I    between atoms: C_8  and  N_9 
REMARK    4  A    between atoms: N_9  and  N_10 
REMARK       I    between atoms: N_10  and  C_11 
REMARK    5  A    between atoms: C_11  and  C_12 
ROOT
HETATM    1  N   UNL     1     -43.450  57.542 -55.846  1.00  0.00    -0.337 N 
HETATM    2  C   UNL     1     -43.539  56.583 -54.842  1.00  0.00     0.106 A 
HETATM    3  C   UNL     1     -44.207  57.195 -53.789  1.00  0.00     0.049 A 
HETATM    4  C   UNL     1     -44.567  58.512 -54.167  1.00  0.00    -0.007 A 
HETATM    5  C   UNL     1     -44.102  58.708 -55.466  1.00  0.00     0.045 A 
HETATM    6  C   UNL     1     -45.261  59.552 -53.517  1.00  0.00     0.014 A 
HETATM    7  C   UNL     1     -45.471  60.762 -54.185  1.00  0.00     0.001 A 
HETATM    8  C   UNL     1     -45.002  60.942 -55.482  1.00  0.00     0.002 A 
HETATM    9  C   UNL     1     -44.311  59.923 -56.144  1.00  0.00     0.030 A 
ENDROOT
BRANCH   2  10
HETATM   10  C   UNL     1     -43.042  55.220 -54.928  1.00  0.00     0.286 C 
HETATM   11  N   UNL     1     -41.719  55.056 -54.567  1.00  0.00    -0.262 N 
HETATM   12  H   UNL     1     -41.097  55.823 -54.329  1.00  0.00     0.190 HD
HETATM   13  O   UNL     1     -43.724  54.251 -55.269  1.00  0.00    -0.264 OA
BRANCH  11  14
HETATM   14  N   UNL     1     -41.178  53.767 -54.525  1.00  0.00    -0.262 N 
HETATM   15  C   UNL     1     -40.694  53.284 -53.329  1.00  0.00     0.286 C 
HETATM   16  O   UNL     1     -40.668  53.978 -52.311  1.00  0.00    -0.264 OA
HETATM   17  H   UNL     1     -41.212  53.226 -55.384  1.00  0.00     0.190 HD
BRANCH  15  18
HETATM   18  C   UNL     1     -40.222  51.917 -53.351  1.00  0.00     0.102 A 
HETATM   19  N   UNL     1     -39.708  51.317 -52.219  1.00  0.00    -0.361 N 
HETATM   20  H   UNL     1     -39.626  51.785 -51.324  1.00  0.00     0.165 HD
HETATM   21  C   UNL     1     -39.336  50.029 -52.490  1.00  0.00     0.088 A 
HETATM   22  C   UNL     1     -39.618  49.779 -53.813  1.00  0.00     0.019 A 
HETATM   23  C   UNL     1     -40.174  50.963 -54.356  1.00  0.00     0.036 A 
ENDBRANCH  15  18
ENDBRANCH  11  14
ENDBRANCH   2  10
BRANCH   1  24
HETATM   24  C   UNL     1     -42.771  57.370 -57.131  1.00  0.00     0.168 C 
BRANCH  24  25
HETATM   25  C   UNL     1     -43.657  56.731 -58.178  1.00  0.00    -0.040 A 
HETATM   26  C   UNL     1     -43.365  55.443 -58.651  1.00  0.00     0.009 A 
HETATM   27  C   UNL     1     -44.199  54.821 -59.583  1.00  0.00     0.001 A 
HETATM   28  C   UNL     1     -45.336  55.476 -60.051  1.00  0.00     0.000 A 
HETATM   29  C   UNL     1     -45.639  56.754 -59.590  1.00  0.00     0.001 A 
HETATM   30  C   UNL     1     -44.809  57.376 -58.656  1.00  0.00     0.009 A 
ENDBRANCH  24  25
ENDBRANCH   1  24
TORSDOF 5
ENDMDL
