MODEL 1
REMARK VINA RESULT:     -10.1      0.000      0.000
REMARK  4 active torsions:
REMARK  status: ('A' for Active; 'I' for Inactive)
REMARK    1  A    between atoms: C_2  and  C_3 
REMARK    2  A    between atoms: N_16  and  C_17 
REMARK    3  A    between atoms: C_17  and  C_18 
REMARK       I    between atoms: C_18  and  N_19 
REMARK    4  A    between atoms: N_19  and  C_20 
ROOT
HETATM    1  C   UNL     1     -40.777  56.505 -50.329  1.00  0.00     0.054 C 
HETATM    2  C   UNL     1     -41.613  56.224 -51.579  1.00  0.00     0.140 A 
HETATM    3  N   UNL     1     -43.019  56.260 -51.224  1.00  0.00    -0.321 N 
HETATM    4  C   UNL     1     -43.715  57.229 -51.905  1.00  0.00     0.326 A 
HETATM    5  O   UNL     1     -44.924  57.362 -51.849  1.00  0.00    -0.247 OA
HETATM    6  N   UNL     1     -42.837  57.946 -52.656  1.00  0.00    -0.259 N 
HETATM    7  C   UNL     1     -41.565  57.469 -52.499  1.00  0.00     0.261 A 
HETATM    8  O   UNL     1     -40.568  57.981 -52.996  1.00  0.00    -0.270 OA
HETATM    9  H   UNL     1     -43.506  55.546 -50.698  1.00  0.00     0.165 HD
ENDROOT
BRANCH   6  10
HETATM   10  C   UNL     1     -43.210  59.048 -53.515  1.00  0.00     0.240 C 
BRANCH  10  11
HETATM   11  C   UNL     1     -43.632  58.532 -54.888  1.00  0.00     0.240 C 
HETATM   12  N   UNL     1     -42.586  57.973 -55.613  1.00  0.00    -0.325 N 
HETATM   13  H   UNL     1     -41.703  57.879 -55.119  1.00  0.00     0.169 HD
HETATM   14  O   UNL     1     -44.812  58.554 -55.226  1.00  0.00    -0.271 OA
BRANCH  12  15
HETATM   15  C   UNL     1     -42.657  57.418 -56.920  1.00  0.00     0.047 A 
HETATM   16  C   UNL     1     -42.439  58.251 -58.063  1.00  0.00     0.019 A 
HETATM   17  C   UNL     1     -42.520  57.683 -59.359  1.00  0.00     0.069 A 
HETATM   18  C   UNL     1     -42.110  59.628 -58.020  1.00  0.00     0.017 A 
HETATM   19  N   UNL     1     -42.312  58.379 -60.490  1.00  0.00    -0.260 NA
HETATM   20  C   UNL     1     -42.822  56.339 -59.494  1.00  0.00     0.032 A 
HETATM   21  C   UNL     1     -41.997  59.685 -60.390  1.00  0.00     0.117 A 
HETATM   22  C   UNL     1     -41.885  60.349 -59.190  1.00  0.00     0.020 A 
HETATM   23  C   UNL     1     -43.044  55.526 -58.388  1.00  0.00     0.005 A 
HETATM   24  C   UNL     1     -42.961  56.064 -57.109  1.00  0.00     0.030 A 
ENDBRANCH  12  15
ENDBRANCH  10  11
ENDBRANCH   6  10
BRANCH   2  25
HETATM   25  C   UNL     1     -41.288  54.936 -52.337  1.00  0.00    -0.020 A 
HETATM   26  C   UNL     1     -40.728  53.830 -51.659  1.00  0.00     0.022 A 
HETATM   27  C   UNL     1     -40.378  52.640 -52.324  1.00  0.00    -0.025 A 
HETATM   28  C   UNL     1     -40.602  52.534 -53.710  1.00  0.00    -0.026 A 
HETATM   29  C   UNL     1     -39.801  51.558 -51.637  1.00  0.00     0.012 A 
HETATM   30  C   UNL     1     -41.175  53.619 -54.390  1.00  0.00     0.013 A 
HETATM   31  C   UNL     1     -40.245  51.350 -54.379  1.00  0.00     0.012 A 
HETATM   32  C   UNL     1     -41.513  54.798 -53.715  1.00  0.00     0.011 A 
HETATM   33  C   UNL     1     -39.671  50.284 -53.683  1.00  0.00     0.001 A 
HETATM   34  C   UNL     1     -39.450  50.389 -52.313  1.00  0.00     0.001 A 
ENDBRANCH   2  25
TORSDOF 4
ENDMDL
MODEL 2
REMARK VINA RESULT:     -10.0      1.368      2.464
REMARK  4 active torsions:
REMARK  status: ('A' for Active; 'I' for Inactive)
REMARK    1  A    between atoms: C_2  and  C_3 
REMARK    2  A    between atoms: N_16  and  C_17 
REMARK    3  A    between atoms: C_17  and  C_18 
REMARK       I    between atoms: C_18  and  N_19 
REMARK    4  A    between atoms: N_19  and  C_20 
ROOT
HETATM    1  C   UNL     1     -44.009  56.290 -50.903  1.00  0.00     0.054 C 
HETATM    2  C   UNL     1     -43.569  56.417 -52.364  1.00  0.00     0.140 A 
HETATM    3  N   UNL     1     -44.742  56.612 -53.194  1.00  0.00    -0.321 N 
HETATM    4  C   UNL     1     -44.716  57.803 -53.879  1.00  0.00     0.326 A 
HETATM    5  O   UNL     1     -45.539  58.121 -54.719  1.00  0.00    -0.247 OA
HETATM    6  N   UNL     1     -43.618  58.503 -53.489  1.00  0.00    -0.259 N 
HETATM    7  C   UNL     1     -42.899  57.800 -52.563  1.00  0.00     0.261 A 
HETATM    8  O   UNL     1     -41.908  58.230 -51.982  1.00  0.00    -0.270 OA
HETATM    9  H   UNL     1     -45.417  55.896 -53.426  1.00  0.00     0.165 HD
ENDROOT
BRANCH   6  10
HETATM   10  C   UNL     1     -43.257  59.805 -54.005  1.00  0.00     0.240 C 
BRANCH  10  11
HETATM   11  C   UNL     1     -42.495  59.664 -55.320  1.00  0.00     0.240 C 
HETATM   12  N   UNL     1     -43.323  59.584 -56.433  1.00  0.00    -0.325 N 
HETATM   13  H   UNL     1     -44.314  59.729 -56.261  1.00  0.00     0.169 HD
HETATM   14  O   UNL     1     -41.268  59.715 -55.336  1.00  0.00    -0.271 OA
BRANCH  12  15
HETATM   15  C   UNL     1     -42.917  59.440 -57.788  1.00  0.00     0.047 A 
HETATM   16  C   UNL     1     -42.890  58.143 -58.392  1.00  0.00     0.019 A 
HETATM   17  C   UNL     1     -42.477  58.016 -59.741  1.00  0.00     0.069 A 
HETATM   18  C   UNL     1     -43.278  56.937 -57.757  1.00  0.00     0.017 A 
HETATM   19  N   UNL     1     -42.438  56.845 -60.400  1.00  0.00    -0.260 NA
HETATM   20  C   UNL     1     -42.094  59.146 -60.444  1.00  0.00     0.032 A 
HETATM   21  C   UNL     1     -42.823  55.731 -59.749  1.00  0.00     0.117 A 
HETATM   22  C   UNL     1     -43.247  55.724 -58.439  1.00  0.00     0.020 A 
HETATM   23  C   UNL     1     -42.109  60.408 -59.859  1.00  0.00     0.005 A 
HETATM   24  C   UNL     1     -42.519  60.553 -58.539  1.00  0.00     0.030 A 
ENDBRANCH  12  15
ENDBRANCH  10  11
ENDBRANCH   6  10
BRANCH   2  25
HETATM   25  C   UNL     1     -42.710  55.277 -52.914  1.00  0.00    -0.020 A 
HETATM   26  C   UNL     1     -41.904  54.506 -52.047  1.00  0.00     0.022 A 
HETATM   27  C   UNL     1     -41.069  53.475 -52.516  1.00  0.00    -0.025 A 
HETATM   28  C   UNL     1     -41.040  53.185 -53.894  1.00  0.00    -0.026 A 
HETATM   29  C   UNL     1     -40.258  52.732 -51.641  1.00  0.00     0.012 A 
HETATM   30  C   UNL     1     -41.850  53.931 -54.761  1.00  0.00     0.013 A 
HETATM   31  C   UNL     1     -40.200  52.162 -54.366  1.00  0.00     0.012 A 
HETATM   32  C   UNL     1     -42.671  54.958 -54.280  1.00  0.00     0.011 A 
HETATM   33  C   UNL     1     -39.399  51.434 -53.485  1.00  0.00     0.001 A 
HETATM   34  C   UNL     1     -39.428  51.720 -52.123  1.00  0.00     0.001 A 
ENDBRANCH   2  25
TORSDOF 4
ENDMDL
MODEL 3
REMARK VINA RESULT:      -9.8      1.785      1.921
REMARK  4 active torsions:
REMARK  status: ('A' for Active; 'I' for Inactive)
REMARK    1  A    between atoms: C_2  and  C_3 
REMARK    2  A    between atoms: N_16  and  C_17 
REMARK    3  A    between atoms: C_17  and  C_18 
REMARK       I    between atoms: C_18  and  N_19 
REMARK    4  A    between atoms: N_19  and  C_20 
ROOT
HETATM    1  C   UNL     1     -41.196  56.781 -50.606  1.00  0.00     0.054 C 
HETATM    2  C   UNL     1     -41.747  56.538 -52.013  1.00  0.00     0.140 A 
HETATM    3  N   UNL     1     -43.186  56.719 -51.994  1.00  0.00    -0.321 N 
HETATM    4  C   UNL     1     -43.607  57.726 -52.828  1.00  0.00     0.326 A 
HETATM    5  O   UNL     1     -44.777  57.974 -53.056  1.00  0.00    -0.247 OA
HETATM    6  N   UNL     1     -42.513  58.331 -53.362  1.00  0.00    -0.259 N 
HETATM    7  C   UNL     1     -41.366  57.742 -52.910  1.00  0.00     0.261 A 
HETATM    8  O   UNL     1     -40.234  58.141 -53.167  1.00  0.00    -0.270 OA
HETATM    9  H   UNL     1     -43.849  56.071 -51.588  1.00  0.00     0.165 HD
ENDROOT
BRANCH   6  10
HETATM   10  C   UNL     1     -42.568  59.434 -54.296  1.00  0.00     0.240 C 
BRANCH  10  11
HETATM   11  C   UNL     1     -42.557  58.917 -55.732  1.00  0.00     0.240 C 
HETATM   12  N   UNL     1     -43.516  57.940 -55.974  1.00  0.00    -0.325 N 
HETATM   13  H   UNL     1     -44.167  57.759 -55.216  1.00  0.00     0.169 HD
HETATM   14  O   UNL     1     -41.812  59.420 -56.569  1.00  0.00    -0.271 OA
BRANCH  12  15
HETATM   15  C   UNL     1     -43.748  57.261 -57.202  1.00  0.00     0.047 A 
HETATM   16  C   UNL     1     -44.824  57.672 -58.052  1.00  0.00     0.019 A 
HETATM   17  C   UNL     1     -45.045  56.980 -59.269  1.00  0.00     0.069 A 
HETATM   18  C   UNL     1     -45.697  58.758 -57.799  1.00  0.00     0.017 A 
HETATM   19  N   UNL     1     -46.015  57.304 -60.142  1.00  0.00    -0.260 NA
HETATM   20  C   UNL     1     -44.228  55.915 -59.604  1.00  0.00     0.032 A 
HETATM   21  C   UNL     1     -46.815  58.349 -59.853  1.00  0.00     0.117 A 
HETATM   22  C   UNL     1     -46.697  59.100 -58.705  1.00  0.00     0.020 A 
HETATM   23  C   UNL     1     -43.188  55.506 -58.778  1.00  0.00     0.005 A 
HETATM   24  C   UNL     1     -42.950  56.176 -57.584  1.00  0.00     0.030 A 
ENDBRANCH  12  15
ENDBRANCH  10  11
ENDBRANCH   6  10
BRANCH   2  25
HETATM   25  C   UNL     1     -41.386  55.201 -52.661  1.00  0.00    -0.020 A 
HETATM   26  C   UNL     1     -40.820  54.162 -51.889  1.00  0.00     0.022 A 
HETATM   27  C   UNL     1     -40.438  52.930 -52.452  1.00  0.00    -0.025 A 
HETATM   28  C   UNL     1     -40.634  52.712 -53.830  1.00  0.00    -0.026 A 
HETATM   29  C   UNL     1     -39.856  51.915 -51.672  1.00  0.00     0.012 A 
HETATM   30  C   UNL     1     -41.212  53.729 -54.602  1.00  0.00     0.013 A 
HETATM   31  C   UNL     1     -40.244  51.486 -54.396  1.00  0.00     0.012 A 
HETATM   32  C   UNL     1     -41.583  54.951 -54.028  1.00  0.00     0.011 A 
HETATM   33  C   UNL     1     -39.667  50.488 -53.609  1.00  0.00     0.001 A 
HETATM   34  C   UNL     1     -39.473  50.704 -52.248  1.00  0.00     0.001 A 
ENDBRANCH   2  25
TORSDOF 4
ENDMDL
MODEL 4
REMARK VINA RESULT:      -9.7      1.914      7.009
REMARK  4 active torsions:
REMARK  status: ('A' for Active; 'I' for Inactive)
REMARK    1  A    between atoms: C_2  and  C_3 
REMARK    2  A    between atoms: N_16  and  C_17 
REMARK    3  A    between atoms: C_17  and  C_18 
REMARK       I    between atoms: C_18  and  N_19 
REMARK    4  A    between atoms: N_19  and  C_20 
ROOT
HETATM    1  C   UNL     1     -43.956  60.673 -56.264  1.00  0.00     0.054 C 
HETATM    2  C   UNL     1     -43.361  59.354 -55.768  1.00  0.00     0.140 A 
HETATM    3  N   UNL     1     -41.973  59.568 -55.404  1.00  0.00    -0.321 N 
HETATM    4  C   UNL     1     -41.722  59.299 -54.081  1.00  0.00     0.326 A 
HETATM    5  O   UNL     1     -40.609  59.301 -53.588  1.00  0.00    -0.247 OA
HETATM    6  N   UNL     1     -42.898  58.998 -53.470  1.00  0.00    -0.259 N 
HETATM    7  C   UNL     1     -43.933  59.048 -54.361  1.00  0.00     0.261 A 
HETATM    8  O   UNL     1     -45.114  58.900 -54.061  1.00  0.00    -0.270 OA
HETATM    9  H   UNL     1     -41.214  59.702 -56.060  1.00  0.00     0.165 HD
ENDROOT
BRANCH   6  10
HETATM   10  C   UNL     1     -43.023  58.651 -52.071  1.00  0.00     0.240 C 
BRANCH  10  11
HETATM   11  C   UNL     1     -42.880  57.143 -51.882  1.00  0.00     0.240 C 
HETATM   12  N   UNL     1     -41.572  56.739 -51.642  1.00  0.00    -0.325 N 
HETATM   13  H   UNL     1     -40.891  57.483 -51.521  1.00  0.00     0.169 HD
HETATM   14  O   UNL     1     -43.873  56.422 -51.861  1.00  0.00    -0.271 OA
BRANCH  12  15
HETATM   15  C   UNL     1     -41.117  55.407 -51.435  1.00  0.00     0.047 A 
HETATM   16  C   UNL     1     -40.852  54.560 -52.557  1.00  0.00     0.019 A 
HETATM   17  C   UNL     1     -40.405  53.234 -52.333  1.00  0.00     0.069 A 
HETATM   18  C   UNL     1     -40.968  54.943 -53.916  1.00  0.00     0.017 A 
HETATM   19  N   UNL     1     -40.111  52.372 -53.321  1.00  0.00    -0.260 NA
HETATM   20  C   UNL     1     -40.248  52.781 -51.034  1.00  0.00     0.032 A 
HETATM   21  C   UNL     1     -40.235  52.790 -54.595  1.00  0.00     0.117 A 
HETATM   22  C   UNL     1     -40.656  54.054 -54.941  1.00  0.00     0.020 A 
HETATM   23  C   UNL     1     -40.513  53.596 -49.940  1.00  0.00     0.005 A 
HETATM   24  C   UNL     1     -40.945  54.902 -50.140  1.00  0.00     0.030 A 
ENDBRANCH  12  15
ENDBRANCH  10  11
ENDBRANCH   6  10
BRANCH   2  25
HETATM   25  C   UNL     1     -43.485  58.157 -56.711  1.00  0.00    -0.020 A 
HETATM   26  C   UNL     1     -44.424  58.172 -57.767  1.00  0.00     0.022 A 
HETATM   27  C   UNL     1     -44.599  57.078 -58.634  1.00  0.00    -0.025 A 
HETATM   28  C   UNL     1     -43.806  55.927 -58.459  1.00  0.00    -0.026 A 
HETATM   29  C   UNL     1     -45.553  57.104 -59.666  1.00  0.00     0.012 A 
HETATM   30  C   UNL     1     -42.858  55.907 -57.426  1.00  0.00     0.013 A 
HETATM   31  C   UNL     1     -43.985  54.829 -59.318  1.00  0.00     0.012 A 
HETATM   32  C   UNL     1     -42.700  57.003 -56.568  1.00  0.00     0.011 A 
HETATM   33  C   UNL     1     -44.938  54.869 -60.338  1.00  0.00     0.001 A 
HETATM   34  C   UNL     1     -45.721  56.007 -60.511  1.00  0.00     0.001 A 
ENDBRANCH   2  25
TORSDOF 4
ENDMDL
MODEL 5
REMARK VINA RESULT:      -9.5      3.553      6.648
REMARK  4 active torsions:
REMARK  status: ('A' for Active; 'I' for Inactive)
REMARK    1  A    between atoms: C_2  and  C_3 
REMARK    2  A    between atoms: N_16  and  C_17 
REMARK    3  A    between atoms: C_17  and  C_18 
REMARK       I    between atoms: C_18  and  N_19 
REMARK    4  A    between atoms: N_19  and  C_20 
ROOT
HETATM    1  C   UNL     1     -43.227  55.896 -53.989  1.00  0.00     0.054 C 
HETATM    2  C   UNL     1     -41.981  56.000 -53.108  1.00  0.00     0.140 A 
HETATM    3  N   UNL     1     -41.046  56.925 -53.719  1.00  0.00    -0.321 N 
HETATM    4  C   UNL     1     -40.769  58.008 -52.920  1.00  0.00     0.326 A 
HETATM    5  O   UNL     1     -39.928  58.847 -53.182  1.00  0.00    -0.247 OA
HETATM    6  N   UNL     1     -41.549  57.935 -51.808  1.00  0.00    -0.259 N 
HETATM    7  C   UNL     1     -42.335  56.818 -51.841  1.00  0.00     0.261 A 
HETATM    8  O   UNL     1     -43.192  56.549 -51.005  1.00  0.00    -0.270 OA
HETATM    9  H   UNL     1     -40.488  56.731 -54.540  1.00  0.00     0.165 HD
ENDROOT
BRANCH   6  10
HETATM   10  C   UNL     1     -41.525  58.903 -50.734  1.00  0.00     0.240 C 
BRANCH  10  11
HETATM   11  C   UNL     1     -42.506  60.037 -51.017  1.00  0.00     0.240 C 
HETATM   12  N   UNL     1     -43.787  59.794 -50.536  1.00  0.00    -0.325 N 
HETATM   13  H   UNL     1     -43.898  58.955 -49.973  1.00  0.00     0.169 HD
HETATM   14  O   UNL     1     -42.119  61.078 -51.542  1.00  0.00    -0.271 OA
BRANCH  12  15
HETATM   15  C   UNL     1     -44.917  60.650 -50.650  1.00  0.00     0.047 A 
HETATM   16  C   UNL     1     -45.317  61.457 -49.538  1.00  0.00     0.019 A 
HETATM   17  C   UNL     1     -46.449  62.300 -49.667  1.00  0.00     0.069 A 
HETATM   18  C   UNL     1     -44.649  61.518 -48.291  1.00  0.00     0.017 A 
HETATM   19  N   UNL     1     -46.889  63.109 -48.688  1.00  0.00    -0.260 NA
HETATM   20  C   UNL     1     -47.153  62.315 -50.859  1.00  0.00     0.032 A 
HETATM   21  C   UNL     1     -46.213  63.131 -47.523  1.00  0.00     0.117 A 
HETATM   22  C   UNL     1     -45.097  62.362 -47.277  1.00  0.00     0.020 A 
HETATM   23  C   UNL     1     -46.775  61.525 -51.939  1.00  0.00     0.005 A 
HETATM   24  C   UNL     1     -45.663  60.698 -51.835  1.00  0.00     0.030 A 
ENDBRANCH  12  15
ENDBRANCH  10  11
ENDBRANCH   6  10
BRANCH   2  25
HETATM   25  C   UNL     1     -41.281  54.684 -52.765  1.00  0.00    -0.020 A 
HETATM   26  C   UNL     1     -41.180  53.656 -53.729  1.00  0.00     0.022 A 
HETATM   27  C   UNL     1     -40.579  52.415 -53.445  1.00  0.00    -0.025 A 
HETATM   28  C   UNL     1     -40.046  52.186 -52.162  1.00  0.00    -0.026 A 
HETATM   29  C   UNL     1     -40.506  51.397 -54.411  1.00  0.00     0.012 A 
HETATM   30  C   UNL     1     -40.125  53.206 -51.203  1.00  0.00     0.013 A 
HETATM   31  C   UNL     1     -39.454  50.945 -51.873  1.00  0.00     0.012 A 
HETATM   32  C   UNL     1     -40.730  54.433 -51.499  1.00  0.00     0.011 A 
HETATM   33  C   UNL     1     -39.391  49.942 -52.842  1.00  0.00     0.001 A 
HETATM   34  C   UNL     1     -39.917  50.169 -54.110  1.00  0.00     0.001 A 
ENDBRANCH   2  25
TORSDOF 4
ENDMDL
MODEL 6
REMARK VINA RESULT:      -9.2      2.040      2.946
REMARK  4 active torsions:
REMARK  status: ('A' for Active; 'I' for Inactive)
REMARK    1  A    between atoms: C_2  and  C_3 
REMARK    2  A    between atoms: N_16  and  C_17 
REMARK    3  A    between atoms: C_17  and  C_18 
REMARK       I    between atoms: C_18  and  N_19 
REMARK    4  A    between atoms: N_19  and  C_20 
ROOT
HETATM    1  C   UNL     1     -41.117  54.882 -55.874  1.00  0.00     0.054 C 
HETATM    2  C   UNL     1     -41.438  55.134 -54.399  1.00  0.00     0.140 A 
HETATM    3  N   UNL     1     -40.900  56.425 -54.013  1.00  0.00    -0.321 N 
HETATM    4  C   UNL     1     -41.870  57.300 -53.586  1.00  0.00     0.326 A 
HETATM    5  O   UNL     1     -41.634  58.394 -53.109  1.00  0.00    -0.247 OA
HETATM    6  N   UNL     1     -43.085  56.712 -53.750  1.00  0.00    -0.259 N 
HETATM    7  C   UNL     1     -42.948  55.454 -54.267  1.00  0.00     0.261 A 
HETATM    8  O   UNL     1     -43.885  54.732 -54.591  1.00  0.00    -0.270 OA
HETATM    9  H   UNL     1     -39.920  56.627 -53.867  1.00  0.00     0.165 HD
ENDROOT
BRANCH   6  10
HETATM   10  C   UNL     1     -44.343  57.333 -53.400  1.00  0.00     0.240 C 
BRANCH  10  11
HETATM   11  C   UNL     1     -44.875  58.154 -54.571  1.00  0.00     0.240 C 
HETATM   12  N   UNL     1     -44.957  57.435 -55.758  1.00  0.00    -0.325 N 
HETATM   13  H   UNL     1     -44.758  56.442 -55.690  1.00  0.00     0.169 HD
HETATM   14  O   UNL     1     -45.262  59.307 -54.398  1.00  0.00    -0.271 OA
BRANCH  12  15
HETATM   15  C   UNL     1     -45.403  57.920 -57.018  1.00  0.00     0.047 A 
HETATM   16  C   UNL     1     -44.469  58.092 -58.089  1.00  0.00     0.019 A 
HETATM   17  C   UNL     1     -44.929  58.582 -59.336  1.00  0.00     0.069 A 
HETATM   18  C   UNL     1     -43.088  57.780 -58.027  1.00  0.00     0.017 A 
HETATM   19  N   UNL     1     -44.132  58.757 -60.405  1.00  0.00    -0.260 NA
HETATM   20  C   UNL     1     -46.267  58.899 -59.490  1.00  0.00     0.032 A 
HETATM   21  C   UNL     1     -42.828  58.440 -60.292  1.00  0.00     0.117 A 
HETATM   22  C   UNL     1     -42.263  57.952 -59.135  1.00  0.00     0.020 A 
HETATM   23  C   UNL     1     -47.178  58.743 -58.451  1.00  0.00     0.005 A 
HETATM   24  C   UNL     1     -46.747  58.257 -57.223  1.00  0.00     0.030 A 
ENDBRANCH  12  15
ENDBRANCH  10  11
ENDBRANCH   6  10
BRANCH   2  25
HETATM   25  C   UNL     1     -40.991  54.054 -53.414  1.00  0.00    -0.020 A 
HETATM   26  C   UNL     1     -40.583  52.784 -53.880  1.00  0.00     0.022 A 
HETATM   27  C   UNL     1     -40.201  51.749 -53.006  1.00  0.00    -0.025 A 
HETATM   28  C   UNL     1     -40.210  51.982 -51.618  1.00  0.00    -0.026 A 
HETATM   29  C   UNL     1     -39.819  50.486 -53.489  1.00  0.00     0.012 A 
HETATM   30  C   UNL     1     -40.595  53.245 -51.144  1.00  0.00     0.013 A 
HETATM   31  C   UNL     1     -39.838  50.947 -50.742  1.00  0.00     0.012 A 
HETATM   32  C   UNL     1     -40.977  54.263 -52.026  1.00  0.00     0.011 A 
HETATM   33  C   UNL     1     -39.462  49.697 -51.236  1.00  0.00     0.001 A 
HETATM   34  C   UNL     1     -39.453  49.467 -52.608  1.00  0.00     0.001 A 
ENDBRANCH   2  25
TORSDOF 4
ENDMDL
MODEL 7
REMARK VINA RESULT:      -9.2      1.867      7.042
REMARK  4 active torsions:
REMARK  status: ('A' for Active; 'I' for Inactive)
REMARK    1  A    between atoms: C_2  and  C_3 
REMARK    2  A    between atoms: N_16  and  C_17 
REMARK    3  A    between atoms: C_17  and  C_18 
REMARK       I    between atoms: C_18  and  N_19 
REMARK    4  A    between atoms: N_19  and  C_20 
ROOT
HETATM    1  C   UNL     1     -43.965  61.217 -54.088  1.00  0.00     0.054 C 
HETATM    2  C   UNL     1     -43.040  60.006 -54.232  1.00  0.00     0.140 A 
HETATM    3  N   UNL     1     -41.787  60.286 -53.556  1.00  0.00    -0.321 N 
HETATM    4  C   UNL     1     -41.525  59.406 -52.534  1.00  0.00     0.326 A 
HETATM    5  O   UNL     1     -40.481  59.383 -51.910  1.00  0.00    -0.247 OA
HETATM    6  N   UNL     1     -42.591  58.574 -52.396  1.00  0.00    -0.259 N 
HETATM    7  C   UNL     1     -43.560  58.872 -53.314  1.00  0.00     0.261 A 
HETATM    8  O   UNL     1     -44.660  58.332 -53.360  1.00  0.00    -0.270 OA
HETATM    9  H   UNL     1     -41.071  60.915 -53.895  1.00  0.00     0.165 HD
ENDROOT
BRANCH   6  10
HETATM   10  C   UNL     1     -42.671  57.508 -51.422  1.00  0.00     0.240 C 
BRANCH  10  11
HETATM   11  C   UNL     1     -42.551  56.150 -52.108  1.00  0.00     0.240 C 
HETATM   12  N   UNL     1     -41.249  55.825 -52.468  1.00  0.00    -0.325 N 
HETATM   13  H   UNL     1     -40.527  56.465 -52.150  1.00  0.00     0.169 HD
HETATM   14  O   UNL     1     -43.533  55.420 -52.219  1.00  0.00    -0.271 OA
BRANCH  12  15
HETATM   15  C   UNL     1     -40.817  54.641 -53.127  1.00  0.00     0.047 A 
HETATM   16  C   UNL     1     -40.496  53.475 -52.362  1.00  0.00     0.019 A 
HETATM   17  C   UNL     1     -40.062  52.305 -53.033  1.00  0.00     0.069 A 
HETATM   18  C   UNL     1     -40.604  53.366 -50.953  1.00  0.00     0.017 A 
HETATM   19  N   UNL     1     -39.758  51.156 -52.405  1.00  0.00    -0.260 NA
HETATM   20  C   UNL     1     -39.943  52.318 -54.413  1.00  0.00     0.032 A 
HETATM   21  C   UNL     1     -39.883  51.107 -51.064  1.00  0.00     0.117 A 
HETATM   22  C   UNL     1     -40.298  52.175 -50.300  1.00  0.00     0.020 A 
HETATM   23  C   UNL     1     -40.244  53.451 -55.160  1.00  0.00     0.005 A 
HETATM   24  C   UNL     1     -40.679  54.605 -54.520  1.00  0.00     0.030 A 
ENDBRANCH  12  15
ENDBRANCH  10  11
ENDBRANCH   6  10
BRANCH   2  25
HETATM   25  C   UNL     1     -42.779  59.518 -55.657  1.00  0.00    -0.020 A 
HETATM   26  C   UNL     1     -43.079  58.187 -56.024  1.00  0.00     0.022 A 
HETATM   27  C   UNL     1     -42.818  57.685 -57.312  1.00  0.00    -0.025 A 
HETATM   28  C   UNL     1     -42.250  58.535 -58.281  1.00  0.00    -0.026 A 
HETATM   29  C   UNL     1     -43.105  56.351 -57.652  1.00  0.00     0.012 A 
HETATM   30  C   UNL     1     -41.965  59.863 -57.934  1.00  0.00     0.013 A 
HETATM   31  C   UNL     1     -41.981  58.034 -59.566  1.00  0.00     0.012 A 
HETATM   32  C   UNL     1     -42.225  60.346 -56.646  1.00  0.00     0.011 A 
HETATM   33  C   UNL     1     -42.269  56.706 -59.888  1.00  0.00     0.001 A 
HETATM   34  C   UNL     1     -42.831  55.866 -58.931  1.00  0.00     0.001 A 
ENDBRANCH   2  25
TORSDOF 4
ENDMDL
MODEL 8
REMARK VINA RESULT:      -9.1      1.738      7.742
REMARK  4 active torsions:
REMARK  status: ('A' for Active; 'I' for Inactive)
REMARK    1  A    between atoms: C_2  and  C_3 
REMARK    2  A    between atoms: N_16  and  C_17 
REMARK    3  A    between atoms: C_17  and  C_18 
REMARK       I    between atoms: C_18  and  N_19 
REMARK    4  A    between atoms: N_19  and  C_20 
ROOT
HETATM    1  C   UNL     1     -42.909  54.534 -55.538  1.00  0.00     0.054 C 
HETATM    2  C   UNL     1     -43.028  56.057 -55.629  1.00  0.00     0.140 A 
HETATM    3  N   UNL     1     -44.311  56.464 -55.087  1.00  0.00    -0.321 N 
HETATM    4  C   UNL     1     -44.190  57.300 -54.004  1.00  0.00     0.326 A 
HETATM    5  O   UNL     1     -45.132  57.853 -53.466  1.00  0.00    -0.247 OA
HETATM    6  N   UNL     1     -42.872  57.423 -53.697  1.00  0.00    -0.259 N 
HETATM    7  C   UNL     1     -42.104  56.693 -54.560  1.00  0.00     0.261 A 
HETATM    8  O   UNL     1     -40.889  56.558 -54.463  1.00  0.00    -0.270 OA
HETATM    9  H   UNL     1     -45.204  56.334 -55.545  1.00  0.00     0.165 HD
ENDROOT
BRANCH   6  10
HETATM   10  C   UNL     1     -42.360  58.235 -52.615  1.00  0.00     0.240 C 
BRANCH  10  11
HETATM   11  C   UNL     1     -41.555  57.378 -51.642  1.00  0.00     0.240 C 
HETATM   12  N   UNL     1     -41.944  56.044 -51.628  1.00  0.00    -0.325 N 
HETATM   13  H   UNL     1     -42.633  55.774 -52.323  1.00  0.00     0.169 HD
HETATM   14  O   UNL     1     -40.607  57.859 -51.027  1.00  0.00    -0.271 OA
BRANCH  12  15
HETATM   15  C   UNL     1     -41.394  55.005 -50.826  1.00  0.00     0.047 A 
HETATM   16  C   UNL     1     -40.862  53.830 -51.446  1.00  0.00     0.019 A 
HETATM   17  C   UNL     1     -40.324  52.802 -50.632  1.00  0.00     0.069 A 
HETATM   18  C   UNL     1     -40.792  53.603 -52.843  1.00  0.00     0.017 A 
HETATM   19  N   UNL     1     -39.784  51.673 -51.122  1.00  0.00    -0.260 NA
HETATM   20  C   UNL     1     -40.337  52.948 -49.256  1.00  0.00     0.032 A 
HETATM   21  C   UNL     1     -39.739  51.511 -52.458  1.00  0.00     0.117 A 
HETATM   22  C   UNL     1     -40.225  52.438 -53.353  1.00  0.00     0.020 A 
HETATM   23  C   UNL     1     -40.862  54.083 -48.648  1.00  0.00     0.005 A 
HETATM   24  C   UNL     1     -41.387  55.105 -49.429  1.00  0.00     0.030 A 
ENDBRANCH  12  15
ENDBRANCH  10  11
ENDBRANCH   6  10
BRANCH   2  25
HETATM   25  C   UNL     1     -42.816  56.672 -57.012  1.00  0.00    -0.020 A 
HETATM   26  C   UNL     1     -42.436  58.027 -57.142  1.00  0.00     0.022 A 
HETATM   27  C   UNL     1     -42.267  58.644 -58.396  1.00  0.00    -0.025 A 
HETATM   28  C   UNL     1     -42.470  57.889 -59.567  1.00  0.00    -0.026 A 
HETATM   29  C   UNL     1     -41.909  59.999 -58.504  1.00  0.00     0.012 A 
HETATM   30  C   UNL     1     -42.829  56.539 -59.451  1.00  0.00     0.013 A 
HETATM   31  C   UNL     1     -42.311  58.505 -60.821  1.00  0.00     0.012 A 
HETATM   32  C   UNL     1     -42.998  55.941 -58.196  1.00  0.00     0.011 A 
HETATM   33  C   UNL     1     -41.957  59.853 -60.913  1.00  0.00     0.001 A 
HETATM   34  C   UNL     1     -41.757  60.598 -59.755  1.00  0.00     0.001 A 
ENDBRANCH   2  25
TORSDOF 4
ENDMDL
MODEL 9
REMARK VINA RESULT:      -9.1      2.293      7.389
REMARK  4 active torsions:
REMARK  status: ('A' for Active; 'I' for Inactive)
REMARK    1  A    between atoms: C_2  and  C_3 
REMARK    2  A    between atoms: N_16  and  C_17 
REMARK    3  A    between atoms: C_17  and  C_18 
REMARK       I    between atoms: C_18  and  N_19 
REMARK    4  A    between atoms: N_19  and  C_20 
ROOT
HETATM    1  C   UNL     1     -44.251  60.262 -52.186  1.00  0.00     0.054 C 
HETATM    2  C   UNL     1     -43.642  58.991 -52.781  1.00  0.00     0.140 A 
HETATM    3  N   UNL     1     -42.197  59.062 -52.668  1.00  0.00    -0.321 N 
HETATM    4  C   UNL     1     -41.672  58.045 -51.908  1.00  0.00     0.326 A 
HETATM    5  O   UNL     1     -40.478  57.844 -51.776  1.00  0.00    -0.247 OA
HETATM    6  N   UNL     1     -42.697  57.313 -51.397  1.00  0.00    -0.259 N 
HETATM    7  C   UNL     1     -43.901  57.813 -51.808  1.00  0.00     0.261 A 
HETATM    8  O   UNL     1     -44.990  57.396 -51.430  1.00  0.00    -0.270 OA
HETATM    9  H   UNL     1     -41.598  59.652 -53.231  1.00  0.00     0.165 HD
ENDROOT
BRANCH   6  10
HETATM   10  C   UNL     1     -42.525  56.153 -50.551  1.00  0.00     0.240 C 
BRANCH  10  11
HETATM   11  C   UNL     1     -42.388  54.891 -51.400  1.00  0.00     0.240 C 
HETATM   12  N   UNL     1     -41.074  54.592 -51.737  1.00  0.00    -0.325 N 
HETATM   13  H   UNL     1     -40.361  55.174 -51.306  1.00  0.00     0.169 HD
HETATM   14  O   UNL     1     -43.372  54.200 -51.650  1.00  0.00    -0.271 OA
BRANCH  12  15
HETATM   15  C   UNL     1     -40.624  53.494 -52.521  1.00  0.00     0.047 A 
HETATM   16  C   UNL     1     -40.301  52.251 -51.890  1.00  0.00     0.019 A 
HETATM   17  C   UNL     1     -39.849  51.169 -52.686  1.00  0.00     0.069 A 
HETATM   18  C   UNL     1     -40.423  51.981 -50.505  1.00  0.00     0.017 A 
HETATM   19  N   UNL     1     -39.541  49.959 -52.189  1.00  0.00    -0.260 NA
HETATM   20  C   UNL     1     -39.715  51.340 -54.053  1.00  0.00     0.032 A 
HETATM   21  C   UNL     1     -39.680  49.756 -50.864  1.00  0.00     0.117 A 
HETATM   22  C   UNL     1     -40.113  50.726 -49.989  1.00  0.00     0.020 A 
HETATM   23  C   UNL     1     -40.018  52.549 -54.670  1.00  0.00     0.005 A 
HETATM   24  C   UNL     1     -40.470  53.619 -53.907  1.00  0.00     0.030 A 
ENDBRANCH  12  15
ENDBRANCH  10  11
ENDBRANCH   6  10
BRANCH   2  25
HETATM   25  C   UNL     1     -44.048  58.651 -54.216  1.00  0.00    -0.020 A 
HETATM   26  C   UNL     1     -43.367  57.641 -54.931  1.00  0.00     0.022 A 
HETATM   27  C   UNL     1     -43.681  57.323 -56.266  1.00  0.00    -0.025 A 
HETATM   28  C   UNL     1     -44.717  58.022 -56.914  1.00  0.00    -0.026 A 
HETATM   29  C   UNL     1     -42.979  56.329 -56.968  1.00  0.00     0.012 A 
HETATM   30  C   UNL     1     -45.412  59.014 -56.208  1.00  0.00     0.013 A 
HETATM   31  C   UNL     1     -45.027  57.713 -58.250  1.00  0.00     0.012 A 
HETATM   32  C   UNL     1     -45.084  59.323 -54.882  1.00  0.00     0.011 A 
HETATM   33  C   UNL     1     -44.320  56.724 -58.936  1.00  0.00     0.001 A 
HETATM   34  C   UNL     1     -43.296  56.033 -58.295  1.00  0.00     0.001 A 
ENDBRANCH   2  25
TORSDOF 4
ENDMDL
MODEL 10
REMARK VINA RESULT:      -8.9     15.569     18.477
REMARK  4 active torsions:
REMARK  status: ('A' for Active; 'I' for Inactive)
REMARK    1  A    between atoms: C_2  and  C_3 
REMARK    2  A    between atoms: N_16  and  C_17 
REMARK    3  A    between atoms: C_17  and  C_18 
REMARK       I    between atoms: C_18  and  N_19 
REMARK    4  A    between atoms: N_19  and  C_20 
ROOT
HETATM    1  C   UNL     1     -38.888  41.044 -53.334  1.00  0.00     0.054 C 
HETATM    2  C   UNL     1     -37.456  41.154 -53.864  1.00  0.00     0.140 A 
HETATM    3  N   UNL     1     -36.814  42.303 -53.255  1.00  0.00    -0.321 N 
HETATM    4  C   UNL     1     -35.704  41.965 -52.519  1.00  0.00     0.326 A 
HETATM    5  O   UNL     1     -34.949  42.777 -52.017  1.00  0.00    -0.247 OA
HETATM    6  N   UNL     1     -35.593  40.610 -52.502  1.00  0.00    -0.259 N 
HETATM    7  C   UNL     1     -36.601  40.032 -53.222  1.00  0.00     0.261 A 
HETATM    8  O   UNL     1     -36.789  38.823 -53.305  1.00  0.00    -0.270 OA
HETATM    9  H   UNL     1     -37.008  43.269 -53.486  1.00  0.00     0.165 HD
ENDROOT
BRANCH   6  10
HETATM   10  C   UNL     1     -34.536  39.889 -51.828  1.00  0.00     0.240 C 
BRANCH  10  11
HETATM   11  C   UNL     1     -33.709  39.093 -52.834  1.00  0.00     0.240 C 
HETATM   12  N   UNL     1     -33.328  39.836 -53.946  1.00  0.00    -0.325 N 
HETATM   13  H   UNL     1     -33.549  40.827 -53.915  1.00  0.00     0.169 HD
HETATM   14  O   UNL     1     -33.368  37.940 -52.586  1.00  0.00    -0.271 OA
BRANCH  12  15
HETATM   15  C   UNL     1     -32.564  39.378 -55.055  1.00  0.00     0.047 A 
HETATM   16  C   UNL     1     -33.222  38.787 -56.180  1.00  0.00     0.019 A 
HETATM   17  C   UNL     1     -32.446  38.331 -57.274  1.00  0.00     0.069 A 
HETATM   18  C   UNL     1     -34.624  38.637 -56.321  1.00  0.00     0.017 A 
HETATM   19  N   UNL     1     -32.973  37.781 -58.382  1.00  0.00    -0.260 NA
HETATM   20  C   UNL     1     -31.068  38.452 -57.226  1.00  0.00     0.032 A 
HETATM   21  C   UNL     1     -34.313  37.668 -58.465  1.00  0.00     0.117 A 
HETATM   22  C   UNL     1     -35.173  38.077 -57.471  1.00  0.00     0.020 A 
HETATM   23  C   UNL     1     -30.422  39.017 -56.132  1.00  0.00     0.005 A 
HETATM   24  C   UNL     1     -31.168  39.477 -55.053  1.00  0.00     0.030 A 
ENDBRANCH  12  15
ENDBRANCH  10  11
ENDBRANCH   6  10
BRANCH   2  25
HETATM   25  C   UNL     1     -37.297  41.199 -55.384  1.00  0.00    -0.020 A 
HETATM   26  C   UNL     1     -37.978  40.269 -56.202  1.00  0.00     0.022 A 
HETATM   27  C   UNL     1     -37.830  40.250 -57.602  1.00  0.00    -0.025 A 
HETATM   28  C   UNL     1     -36.987  41.194 -58.218  1.00  0.00    -0.026 A 
HETATM   29  C   UNL     1     -38.499  39.304 -58.397  1.00  0.00     0.012 A 
HETATM   30  C   UNL     1     -36.321  42.134 -57.418  1.00  0.00     0.013 A 
HETATM   31  C   UNL     1     -36.830  41.172 -59.615  1.00  0.00     0.012 A 
HETATM   32  C   UNL     1     -36.474  42.137 -56.026  1.00  0.00     0.011 A 
HETATM   33  C   UNL     1     -37.500  40.225 -60.392  1.00  0.00     0.001 A 
HETATM   34  C   UNL     1     -38.334  39.292 -59.783  1.00  0.00     0.001 A 
ENDBRANCH   2  25
TORSDOF 4
ENDMDL
