MODEL 1
REMARK VINA RESULT:      -8.0      0.000      0.000
REMARK  6 active torsions:
REMARK  status: ('A' for Active; 'I' for Inactive)
REMARK    1  A    between atoms: C_2  and  C_3 
REMARK    2  A    between atoms: C_3  and  O_4 
REMARK    3  A    between atoms: O_4  and  C_5 
REMARK    4  A    between atoms: C_6  and  O_7 
REMARK    5  A    between atoms: C_10  and  C_11 
REMARK    6  A    between atoms: C_25  and  O_26 
ROOT
HETATM    1  C   UNL     1     -41.832  57.001 -55.602  1.00  0.00     0.269 C 
HETATM    2  N   UNL     1     -42.791  57.752 -54.711  1.00  0.00    -0.061 N 
HETATM    3  H   UNL     1     -43.693  57.265 -54.746  1.00  0.00     0.278 HD
HETATM    4  H   UNL     1     -42.948  58.682 -55.113  1.00  0.00     0.278 HD
HETATM    5  C   UNL     1     -42.343  57.855 -53.272  1.00  0.00     0.238 C 
HETATM    6  C   UNL     1     -42.248  56.460 -52.625  1.00  0.00     0.069 C 
HETATM    7  C   UNL     1     -41.548  55.511 -53.537  1.00  0.00    -0.019 A 
HETATM    8  C   UNL     1     -41.383  55.774 -54.885  1.00  0.00     0.052 A 
HETATM    9  N   UNL     1     -40.698  54.724 -55.442  1.00  0.00    -0.356 N 
HETATM   10  H   UNL     1     -40.429  54.624 -56.414  1.00  0.00     0.166 HD
HETATM   11  C   UNL     1     -40.440  53.776 -54.475  1.00  0.00     0.043 A 
HETATM   12  C   UNL     1     -40.963  54.246 -53.269  1.00  0.00     0.002 A 
HETATM   13  C   UNL     1     -39.786  52.544 -54.578  1.00  0.00     0.033 A 
HETATM   14  C   UNL     1     -39.661  51.770 -53.417  1.00  0.00     0.039 A 
HETATM   15  C   UNL     1     -40.171  52.211 -52.197  1.00  0.00     0.069 A 
HETATM   16  C   UNL     1     -40.824  53.449 -52.117  1.00  0.00     0.051 A 
ENDROOT
BRANCH   1  17
HETATM   17  C   UNL     1     -42.468  56.732 -56.950  1.00  0.00    -0.019 A 
HETATM   18  C   UNL     1     -42.509  57.722 -57.950  1.00  0.00     0.049 A 
HETATM   19  C   UNL     1     -43.080  57.458 -59.200  1.00  0.00     0.102 A 
HETATM   20  C   UNL     1     -43.614  56.185 -59.471  1.00  0.00     0.102 A 
HETATM   21  C   UNL     1     -43.574  55.199 -58.482  1.00  0.00     0.040 A 
HETATM   22  C   UNL     1     -43.007  55.469 -57.233  1.00  0.00     0.012 A 
BRANCH  19  23
HETATM   23  O   UNL     1     -43.126  58.369 -60.224  1.00  0.00    -0.353 OA
HETATM   24  C   UNL     1     -41.897  58.939 -60.654  1.00  0.00     0.210 C 
ENDBRANCH  19  23
BRANCH  20  25
HETATM   25  O   UNL     1     -44.142  56.008 -60.723  1.00  0.00    -0.348 OA
BRANCH  25  26
HETATM   26  C   UNL     1     -45.384  55.316 -60.839  1.00  0.00     0.175 C 
BRANCH  26  27
HETATM   27  C   UNL     1     -46.476  56.223 -60.281  1.00  0.00     0.022 C 
HETATM   28  C   UNL     1     -47.557  56.505 -61.310  1.00  0.00     0.007 C 
ENDBRANCH  26  27
ENDBRANCH  25  26
ENDBRANCH  20  25
ENDBRANCH   1  17
BRANCH  15  29
HETATM   29  O   UNL     1     -40.104  51.536 -51.008  1.00  0.00    -0.356 OA
HETATM   30  C   UNL     1     -39.566  50.219 -51.041  1.00  0.00     0.210 C 
ENDBRANCH  15  29
TORSDOF 6
ENDMDL
MODEL 2
REMARK VINA RESULT:      -7.7      1.344      1.639
REMARK  6 active torsions:
REMARK  status: ('A' for Active; 'I' for Inactive)
REMARK    1  A    between atoms: C_2  and  C_3 
REMARK    2  A    between atoms: C_3  and  O_4 
REMARK    3  A    between atoms: O_4  and  C_5 
REMARK    4  A    between atoms: C_6  and  O_7 
REMARK    5  A    between atoms: C_10  and  C_11 
REMARK    6  A    between atoms: C_25  and  O_26 
ROOT
HETATM    1  C   UNL     1     -41.808  57.936 -54.715  1.00  0.00     0.269 C 
HETATM    2  N   UNL     1     -42.436  58.645 -53.541  1.00  0.00    -0.061 N 
HETATM    3  H   UNL     1     -43.387  58.279 -53.428  1.00  0.00     0.278 HD
HETATM    4  H   UNL     1     -42.535  59.638 -53.776  1.00  0.00     0.278 HD
HETATM    5  C   UNL     1     -41.686  58.471 -52.242  1.00  0.00     0.238 C 
HETATM    6  C   UNL     1     -41.665  56.991 -51.814  1.00  0.00     0.069 C 
HETATM    7  C   UNL     1     -41.320  56.120 -52.975  1.00  0.00    -0.019 A 
HETATM    8  C   UNL     1     -41.406  56.568 -54.281  1.00  0.00     0.052 A 
HETATM    9  N   UNL     1     -41.016  55.545 -55.107  1.00  0.00    -0.356 N 
HETATM   10  H   UNL     1     -40.976  55.567 -56.119  1.00  0.00     0.166 HD
HETATM   11  C   UNL     1     -40.704  54.435 -54.352  1.00  0.00     0.043 A 
HETATM   12  C   UNL     1     -40.887  54.770 -53.009  1.00  0.00     0.002 A 
HETATM   13  C   UNL     1     -40.276  53.166 -54.756  1.00  0.00     0.033 A 
HETATM   14  C   UNL     1     -40.026  52.211 -53.762  1.00  0.00     0.039 A 
HETATM   15  C   UNL     1     -40.198  52.514 -52.412  1.00  0.00     0.069 A 
HETATM   16  C   UNL     1     -40.628  53.792 -52.029  1.00  0.00     0.051 A 
ENDROOT
BRANCH   1  17
HETATM   17  C   UNL     1     -42.746  57.956 -55.904  1.00  0.00    -0.019 A 
HETATM   18  C   UNL     1     -42.271  58.203 -57.206  1.00  0.00     0.049 A 
HETATM   19  C   UNL     1     -43.142  58.199 -58.302  1.00  0.00     0.102 A 
HETATM   20  C   UNL     1     -44.509  57.934 -58.108  1.00  0.00     0.102 A 
HETATM   21  C   UNL     1     -44.985  57.686 -56.818  1.00  0.00     0.040 A 
HETATM   22  C   UNL     1     -44.112  57.696 -55.726  1.00  0.00     0.012 A 
BRANCH  19  23
HETATM   23  O   UNL     1     -42.738  58.406 -59.596  1.00  0.00    -0.353 OA
HETATM   24  C   UNL     1     -41.868  57.444 -60.176  1.00  0.00     0.210 C 
ENDBRANCH  19  23
BRANCH  20  25
HETATM   25  O   UNL     1     -45.288  57.936 -59.235  1.00  0.00    -0.348 OA
BRANCH  25  26
HETATM   26  C   UNL     1     -46.049  56.767 -59.531  1.00  0.00     0.175 C 
BRANCH  26  27
HETATM   27  C   UNL     1     -45.261  55.942 -60.543  1.00  0.00     0.022 C 
HETATM   28  C   UNL     1     -44.622  54.722 -59.903  1.00  0.00     0.007 C 
ENDBRANCH  26  27
ENDBRANCH  25  26
ENDBRANCH  20  25
ENDBRANCH   1  17
BRANCH  15  29
HETATM   29  O   UNL     1     -39.983  51.659 -51.364  1.00  0.00    -0.356 OA
HETATM   30  C   UNL     1     -39.461  50.372 -51.675  1.00  0.00     0.210 C 
ENDBRANCH  15  29
TORSDOF 6
ENDMDL
MODEL 3
REMARK VINA RESULT:      -7.7      1.902      8.288
REMARK  6 active torsions:
REMARK  status: ('A' for Active; 'I' for Inactive)
REMARK    1  A    between atoms: C_2  and  C_3 
REMARK    2  A    between atoms: C_3  and  O_4 
REMARK    3  A    between atoms: O_4  and  C_5 
REMARK    4  A    between atoms: C_6  and  O_7 
REMARK    5  A    between atoms: C_10  and  C_11 
REMARK    6  A    between atoms: C_25  and  O_26 
ROOT
HETATM    1  C   UNL     1     -43.333  55.392 -54.052  1.00  0.00     0.269 C 
HETATM    2  N   UNL     1     -43.272  56.568 -53.109  1.00  0.00    -0.061 N 
HETATM    3  H   UNL     1     -42.297  56.887 -53.073  1.00  0.00     0.278 HD
HETATM    4  H   UNL     1     -43.504  56.240 -52.166  1.00  0.00     0.278 HD
HETATM    5  C   UNL     1     -44.153  57.727 -53.510  1.00  0.00     0.238 C 
HETATM    6  C   UNL     1     -43.709  58.313 -54.864  1.00  0.00     0.069 C 
HETATM    7  C   UNL     1     -43.457  57.218 -55.845  1.00  0.00    -0.019 A 
HETATM    8  C   UNL     1     -43.277  55.905 -55.451  1.00  0.00     0.052 A 
HETATM    9  N   UNL     1     -43.078  55.147 -56.577  1.00  0.00    -0.356 N 
HETATM   10  H   UNL     1     -42.914  54.148 -56.613  1.00  0.00     0.166 HD
HETATM   11  C   UNL     1     -43.102  55.960 -57.690  1.00  0.00     0.043 A 
HETATM   12  C   UNL     1     -43.338  57.266 -57.258  1.00  0.00     0.002 A 
HETATM   13  C   UNL     1     -42.933  55.636 -59.040  1.00  0.00     0.033 A 
HETATM   14  C   UNL     1     -43.008  56.675 -59.977  1.00  0.00     0.039 A 
HETATM   15  C   UNL     1     -43.244  57.990 -59.579  1.00  0.00     0.069 A 
HETATM   16  C   UNL     1     -43.410  58.291 -58.220  1.00  0.00     0.051 A 
ENDROOT
BRANCH   1  17
HETATM   17  C   UNL     1     -42.247  54.391 -53.717  1.00  0.00    -0.019 A 
HETATM   18  C   UNL     1     -41.467  54.521 -52.551  1.00  0.00     0.049 A 
HETATM   19  C   UNL     1     -40.479  53.581 -52.239  1.00  0.00     0.102 A 
HETATM   20  C   UNL     1     -40.263  52.483 -53.091  1.00  0.00     0.102 A 
HETATM   21  C   UNL     1     -41.036  52.349 -54.247  1.00  0.00     0.040 A 
HETATM   22  C   UNL     1     -42.018  53.294 -54.558  1.00  0.00     0.012 A 
BRANCH  19  23
HETATM   23  O   UNL     1     -39.706  53.636 -51.107  1.00  0.00    -0.353 OA
HETATM   24  C   UNL     1     -40.311  54.130 -49.920  1.00  0.00     0.210 C 
ENDBRANCH  19  23
BRANCH  20  25
HETATM   25  O   UNL     1     -39.287  51.604 -52.704  1.00  0.00    -0.348 OA
BRANCH  25  26
HETATM   26  C   UNL     1     -39.646  50.235 -52.519  1.00  0.00     0.175 C 
BRANCH  26  27
HETATM   27  C   UNL     1     -39.295  49.851 -51.085  1.00  0.00     0.022 C 
HETATM   28  C   UNL     1     -40.336  50.347 -50.096  1.00  0.00     0.007 C 
ENDBRANCH  26  27
ENDBRANCH  25  26
ENDBRANCH  20  25
ENDBRANCH   1  17
BRANCH  15  29
HETATM   29  O   UNL     1     -43.336  59.076 -60.407  1.00  0.00    -0.356 OA
HETATM   30  C   UNL     1     -42.114  59.671 -60.831  1.00  0.00     0.210 C 
ENDBRANCH  15  29
TORSDOF 6
ENDMDL
MODEL 4
REMARK VINA RESULT:      -7.6      5.022      6.223
REMARK  6 active torsions:
REMARK  status: ('A' for Active; 'I' for Inactive)
REMARK    1  A    between atoms: C_2  and  C_3 
REMARK    2  A    between atoms: C_3  and  O_4 
REMARK    3  A    between atoms: O_4  and  C_5 
REMARK    4  A    between atoms: C_6  and  O_7 
REMARK    5  A    between atoms: C_10  and  C_11 
REMARK    6  A    between atoms: C_25  and  O_26 
ROOT
HETATM    1  C   UNL     1     -41.313  56.327 -50.519  1.00  0.00     0.269 C 
HETATM    2  N   UNL     1     -41.618  55.782 -49.146  1.00  0.00    -0.061 N 
HETATM    3  H   UNL     1     -42.565  55.389 -49.171  1.00  0.00     0.278 HD
HETATM    4  H   UNL     1     -41.648  56.565 -48.485  1.00  0.00     0.278 HD
HETATM    5  C   UNL     1     -40.656  54.717 -48.677  1.00  0.00     0.238 C 
HETATM    6  C   UNL     1     -40.720  53.478 -49.592  1.00  0.00     0.069 C 
HETATM    7  C   UNL     1     -40.706  53.891 -51.025  1.00  0.00    -0.019 A 
HETATM    8  C   UNL     1     -40.991  55.185 -51.421  1.00  0.00     0.052 A 
HETATM    9  N   UNL     1     -40.886  55.244 -52.787  1.00  0.00    -0.356 N 
HETATM   10  H   UNL     1     -41.039  56.058 -53.371  1.00  0.00     0.166 HD
HETATM   11  C   UNL     1     -40.561  53.999 -53.279  1.00  0.00     0.043 A 
HETATM   12  C   UNL     1     -40.442  53.130 -52.193  1.00  0.00     0.002 A 
HETATM   13  C   UNL     1     -40.365  53.579 -54.599  1.00  0.00     0.033 A 
HETATM   14  C   UNL     1     -40.037  52.235 -54.818  1.00  0.00     0.039 A 
HETATM   15  C   UNL     1     -39.909  51.342 -53.755  1.00  0.00     0.069 A 
HETATM   16  C   UNL     1     -40.111  51.784 -52.440  1.00  0.00     0.051 A 
ENDROOT
BRANCH   1  17
HETATM   17  C   UNL     1     -42.455  57.196 -51.006  1.00  0.00    -0.019 A 
HETATM   18  C   UNL     1     -42.219  58.464 -51.571  1.00  0.00     0.049 A 
HETATM   19  C   UNL     1     -43.278  59.251 -52.038  1.00  0.00     0.102 A 
HETATM   20  C   UNL     1     -44.598  58.770 -51.953  1.00  0.00     0.102 A 
HETATM   21  C   UNL     1     -44.835  57.511 -51.395  1.00  0.00     0.040 A 
HETATM   22  C   UNL     1     -43.775  56.731 -50.925  1.00  0.00     0.012 A 
BRANCH  19  23
HETATM   23  O   UNL     1     -43.114  60.480 -52.622  1.00  0.00    -0.353 OA
HETATM   24  C   UNL     1     -42.246  60.565 -53.745  1.00  0.00     0.210 C 
ENDBRANCH  19  23
BRANCH  20  25
HETATM   25  O   UNL     1     -45.572  59.598 -52.444  1.00  0.00    -0.348 OA
BRANCH  25  26
HETATM   26  C   UNL     1     -46.509  60.157 -51.525  1.00  0.00     0.175 C 
BRANCH  26  27
HETATM   27  C   UNL     1     -46.182  61.639 -51.370  1.00  0.00     0.022 C 
HETATM   28  C   UNL     1     -45.365  61.910 -50.118  1.00  0.00     0.007 C 
ENDBRANCH  26  27
ENDBRANCH  25  26
ENDBRANCH  20  25
ENDBRANCH   1  17
BRANCH  15  29
HETATM   29  O   UNL     1     -39.594  50.013 -53.856  1.00  0.00    -0.356 OA
HETATM   30  C   UNL     1     -39.470  49.284 -52.640  1.00  0.00     0.210 C 
ENDBRANCH  15  29
TORSDOF 6
ENDMDL
MODEL 5
REMARK VINA RESULT:      -7.6      2.563      3.596
REMARK  6 active torsions:
REMARK  status: ('A' for Active; 'I' for Inactive)
REMARK    1  A    between atoms: C_2  and  C_3 
REMARK    2  A    between atoms: C_3  and  O_4 
REMARK    3  A    between atoms: O_4  and  C_5 
REMARK    4  A    between atoms: C_6  and  O_7 
REMARK    5  A    between atoms: C_10  and  C_11 
REMARK    6  A    between atoms: C_25  and  O_26 
ROOT
HETATM    1  C   UNL     1     -41.681  57.035 -52.110  1.00  0.00     0.269 C 
HETATM    2  N   UNL     1     -42.210  57.061 -50.697  1.00  0.00    -0.061 N 
HETATM    3  H   UNL     1     -43.146  56.641 -50.707  1.00  0.00     0.278 HD
HETATM    4  H   UNL     1     -42.335  58.039 -50.415  1.00  0.00     0.278 HD
HETATM    5  C   UNL     1     -41.349  56.319 -49.703  1.00  0.00     0.238 C 
HETATM    6  C   UNL     1     -41.282  54.818 -50.047  1.00  0.00     0.069 C 
HETATM    7  C   UNL     1     -41.033  54.631 -51.505  1.00  0.00    -0.019 A 
HETATM    8  C   UNL     1     -41.234  55.648 -52.422  1.00  0.00     0.052 A 
HETATM    9  N   UNL     1     -40.911  55.168 -53.666  1.00  0.00    -0.356 N 
HETATM   10  H   UNL     1     -40.959  55.676 -54.541  1.00  0.00     0.166 HD
HETATM   11  C   UNL     1     -40.528  53.848 -53.566  1.00  0.00     0.043 A 
HETATM   12  C   UNL     1     -40.596  53.486 -52.220  1.00  0.00     0.002 A 
HETATM   13  C   UNL     1     -40.129  52.953 -54.564  1.00  0.00     0.033 A 
HETATM   14  C   UNL     1     -39.788  51.650 -54.176  1.00  0.00     0.039 A 
HETATM   15  C   UNL     1     -39.844  51.257 -52.840  1.00  0.00     0.069 A 
HETATM   16  C   UNL     1     -40.247  52.171 -51.857  1.00  0.00     0.051 A 
ENDROOT
BRANCH   1  17
HETATM   17  C   UNL     1     -42.719  57.580 -53.069  1.00  0.00    -0.019 A 
HETATM   18  C   UNL     1     -42.460  58.718 -53.858  1.00  0.00     0.049 A 
HETATM   19  C   UNL     1     -43.416  59.203 -54.757  1.00  0.00     0.102 A 
HETATM   20  C   UNL     1     -44.652  58.543 -54.887  1.00  0.00     0.102 A 
HETATM   21  C   UNL     1     -44.912  57.412 -54.109  1.00  0.00     0.040 A 
HETATM   22  C   UNL     1     -43.956  56.935 -53.208  1.00  0.00     0.012 A 
BRANCH  19  23
HETATM   23  O   UNL     1     -43.215  60.288 -55.571  1.00  0.00    -0.353 OA
HETATM   24  C   UNL     1     -42.148  60.220 -56.506  1.00  0.00     0.210 C 
ENDBRANCH  19  23
BRANCH  20  25
HETATM   25  O   UNL     1     -45.525  59.075 -55.799  1.00  0.00    -0.348 OA
BRANCH  25  26
HETATM   26  C   UNL     1     -46.007  58.232 -56.844  1.00  0.00     0.175 C 
BRANCH  26  27
HETATM   27  C   UNL     1     -45.095  58.419 -58.052  1.00  0.00     0.022 C 
HETATM   28  C   UNL     1     -44.129  57.258 -58.217  1.00  0.00     0.007 C 
ENDBRANCH  26  27
ENDBRANCH  25  26
ENDBRANCH  20  25
ENDBRANCH   1  17
BRANCH  15  29
HETATM   29  O   UNL     1     -39.534  50.015 -52.355  1.00  0.00    -0.356 OA
HETATM   30  C   UNL     1     -39.555  49.849 -50.941  1.00  0.00     0.210 C 
ENDBRANCH  15  29
TORSDOF 6
ENDMDL
MODEL 6
REMARK VINA RESULT:      -7.5      4.254      8.057
REMARK  6 active torsions:
REMARK  status: ('A' for Active; 'I' for Inactive)
REMARK    1  A    between atoms: C_2  and  C_3 
REMARK    2  A    between atoms: C_3  and  O_4 
REMARK    3  A    between atoms: O_4  and  C_5 
REMARK    4  A    between atoms: C_6  and  O_7 
REMARK    5  A    between atoms: C_10  and  C_11 
REMARK    6  A    between atoms: C_25  and  O_26 
ROOT
HETATM    1  C   UNL     1     -42.420  56.345 -54.486  1.00  0.00     0.269 C 
HETATM    2  N   UNL     1     -43.831  55.957 -54.853  1.00  0.00    -0.061 N 
HETATM    3  H   UNL     1     -44.196  55.366 -54.099  1.00  0.00     0.278 HD
HETATM    4  H   UNL     1     -43.798  55.369 -55.692  1.00  0.00     0.278 HD
HETATM    5  C   UNL     1     -44.761  57.130 -55.052  1.00  0.00     0.238 C 
HETATM    6  C   UNL     1     -44.923  57.931 -53.745  1.00  0.00     0.069 C 
HETATM    7  C   UNL     1     -43.594  58.157 -53.108  1.00  0.00    -0.019 A 
HETATM    8  C   UNL     1     -42.478  57.416 -53.451  1.00  0.00     0.052 A 
HETATM    9  N   UNL     1     -41.421  57.868 -52.702  1.00  0.00    -0.356 N 
HETATM   10  H   UNL     1     -40.470  57.519 -52.726  1.00  0.00     0.166 HD
HETATM   11  C   UNL     1     -41.848  58.873 -51.861  1.00  0.00     0.043 A 
HETATM   12  C   UNL     1     -43.209  59.075 -52.096  1.00  0.00     0.002 A 
HETATM   13  C   UNL     1     -41.132  59.615 -50.915  1.00  0.00     0.033 A 
HETATM   14  C   UNL     1     -41.826  60.592 -50.189  1.00  0.00     0.039 A 
HETATM   15  C   UNL     1     -43.185  60.819 -50.400  1.00  0.00     0.069 A 
HETATM   16  C   UNL     1     -43.882  60.063 -51.353  1.00  0.00     0.051 A 
ENDROOT
BRANCH   1  17
HETATM   17  C   UNL     1     -41.631  55.122 -54.065  1.00  0.00    -0.019 A 
HETATM   18  C   UNL     1     -41.639  54.670 -52.731  1.00  0.00     0.049 A 
HETATM   19  C   UNL     1     -40.923  53.528 -52.356  1.00  0.00     0.102 A 
HETATM   20  C   UNL     1     -40.193  52.810 -53.320  1.00  0.00     0.102 A 
HETATM   21  C   UNL     1     -40.184  53.254 -54.645  1.00  0.00     0.040 A 
HETATM   22  C   UNL     1     -40.896  54.399 -55.015  1.00  0.00     0.012 A 
BRANCH  19  23
HETATM   23  O   UNL     1     -40.912  53.021 -51.081  1.00  0.00    -0.353 OA
HETATM   24  C   UNL     1     -40.168  53.727 -50.098  1.00  0.00     0.210 C 
ENDBRANCH  19  23
BRANCH  20  25
HETATM   25  O   UNL     1     -39.533  51.697 -52.870  1.00  0.00    -0.348 OA
BRANCH  25  26
HETATM   26  C   UNL     1     -39.717  50.472 -53.578  1.00  0.00     0.175 C 
BRANCH  26  27
HETATM   27  C   UNL     1     -39.633  49.333 -52.567  1.00  0.00     0.022 C 
HETATM   28  C   UNL     1     -39.479  49.848 -51.146  1.00  0.00     0.007 C 
ENDBRANCH  26  27
ENDBRANCH  25  26
ENDBRANCH  20  25
ENDBRANCH   1  17
BRANCH  15  29
HETATM   29  O   UNL     1     -43.956  61.744 -49.748  1.00  0.00    -0.356 OA
HETATM   30  C   UNL     1     -44.935  61.247 -48.843  1.00  0.00     0.210 C 
ENDBRANCH  15  29
TORSDOF 6
ENDMDL
MODEL 7
REMARK VINA RESULT:      -7.4      3.909      6.831
REMARK  6 active torsions:
REMARK  status: ('A' for Active; 'I' for Inactive)
REMARK    1  A    between atoms: C_2  and  C_3 
REMARK    2  A    between atoms: C_3  and  O_4 
REMARK    3  A    between atoms: O_4  and  C_5 
REMARK    4  A    between atoms: C_6  and  O_7 
REMARK    5  A    between atoms: C_10  and  C_11 
REMARK    6  A    between atoms: C_25  and  O_26 
ROOT
HETATM    1  C   UNL     1     -43.645  56.429 -53.563  1.00  0.00     0.269 C 
HETATM    2  N   UNL     1     -43.526  56.839 -55.009  1.00  0.00    -0.061 N 
HETATM    3  H   UNL     1     -42.671  57.397 -55.105  1.00  0.00     0.278 HD
HETATM    4  H   UNL     1     -44.307  57.465 -55.235  1.00  0.00     0.278 HD
HETATM    5  C   UNL     1     -43.467  55.681 -55.976  1.00  0.00     0.238 C 
HETATM    6  C   UNL     1     -42.212  54.822 -55.729  1.00  0.00     0.069 C 
HETATM    7  C   UNL     1     -42.042  54.561 -54.271  1.00  0.00    -0.019 A 
HETATM    8  C   UNL     1     -42.692  55.312 -53.308  1.00  0.00     0.052 A 
HETATM    9  N   UNL     1     -42.338  54.822 -52.077  1.00  0.00    -0.356 N 
HETATM   10  H   UNL     1     -42.650  55.167 -51.176  1.00  0.00     0.166 HD
HETATM   11  C   UNL     1     -41.448  53.781 -52.232  1.00  0.00     0.043 A 
HETATM   12  C   UNL     1     -41.245  53.596 -53.601  1.00  0.00     0.002 A 
HETATM   13  C   UNL     1     -40.812  52.993 -51.267  1.00  0.00     0.033 A 
HETATM   14  C   UNL     1     -39.944  51.987 -51.711  1.00  0.00     0.039 A 
HETATM   15  C   UNL     1     -39.720  51.776 -53.071  1.00  0.00     0.069 A 
HETATM   16  C   UNL     1     -40.368  52.578 -54.021  1.00  0.00     0.051 A 
ENDROOT
BRANCH   1  17
HETATM   17  C   UNL     1     -43.447  57.628 -52.658  1.00  0.00    -0.019 A 
HETATM   18  C   UNL     1     -42.185  58.235 -52.514  1.00  0.00     0.049 A 
HETATM   19  C   UNL     1     -42.015  59.354 -51.692  1.00  0.00     0.102 A 
HETATM   20  C   UNL     1     -43.119  59.892 -51.005  1.00  0.00     0.102 A 
HETATM   21  C   UNL     1     -44.373  59.295 -51.147  1.00  0.00     0.040 A 
HETATM   22  C   UNL     1     -44.537  58.173 -51.965  1.00  0.00     0.012 A 
BRANCH  19  23
HETATM   23  O   UNL     1     -40.820  60.007 -51.532  1.00  0.00    -0.353 OA
HETATM   24  C   UNL     1     -39.741  59.276 -50.965  1.00  0.00     0.210 C 
ENDBRANCH  19  23
BRANCH  20  25
HETATM   25  O   UNL     1     -42.867  60.996 -50.234  1.00  0.00    -0.348 OA
BRANCH  25  26
HETATM   26  C   UNL     1     -43.915  61.489 -49.400  1.00  0.00     0.175 C 
BRANCH  26  27
HETATM   27  C   UNL     1     -44.129  62.960 -49.741  1.00  0.00     0.022 C 
HETATM   28  C   UNL     1     -42.824  63.654 -50.094  1.00  0.00     0.007 C 
ENDBRANCH  26  27
ENDBRANCH  25  26
ENDBRANCH  20  25
ENDBRANCH   1  17
BRANCH  15  29
HETATM   29  O   UNL     1     -38.895  50.826 -53.611  1.00  0.00    -0.356 OA
HETATM   30  C   UNL     1     -39.491  49.874 -54.485  1.00  0.00     0.210 C 
ENDBRANCH  15  29
TORSDOF 6
ENDMDL
MODEL 8
REMARK VINA RESULT:      -7.4      1.849      2.364
REMARK  6 active torsions:
REMARK  status: ('A' for Active; 'I' for Inactive)
REMARK    1  A    between atoms: C_2  and  C_3 
REMARK    2  A    between atoms: C_3  and  O_4 
REMARK    3  A    between atoms: O_4  and  C_5 
REMARK    4  A    between atoms: C_6  and  O_7 
REMARK    5  A    between atoms: C_10  and  C_11 
REMARK    6  A    between atoms: C_25  and  O_26 
ROOT
HETATM    1  C   UNL     1     -41.565  56.990 -53.924  1.00  0.00     0.269 C 
HETATM    2  N   UNL     1     -42.197  57.564 -52.680  1.00  0.00    -0.061 N 
HETATM    3  H   UNL     1     -43.138  57.163 -52.596  1.00  0.00     0.278 HD
HETATM    4  H   UNL     1     -42.324  58.572 -52.816  1.00  0.00     0.278 HD
HETATM    5  C   UNL     1     -41.428  57.284 -51.412  1.00  0.00     0.238 C 
HETATM    6  C   UNL     1     -41.364  55.770 -51.131  1.00  0.00     0.069 C 
HETATM    7  C   UNL     1     -41.011  55.026 -52.374  1.00  0.00    -0.019 A 
HETATM    8  C   UNL     1     -41.123  55.597 -53.629  1.00  0.00     0.052 A 
HETATM    9  N   UNL     1     -40.717  54.670 -54.555  1.00  0.00    -0.356 N 
HETATM   10  H   UNL     1     -40.689  54.791 -55.561  1.00  0.00     0.166 HD
HETATM   11  C   UNL     1     -40.368  53.500 -53.915  1.00  0.00     0.043 A 
HETATM   12  C   UNL     1     -40.543  53.698 -52.544  1.00  0.00     0.002 A 
HETATM   13  C   UNL     1     -39.912  52.289 -54.446  1.00  0.00     0.033 A 
HETATM   14  C   UNL     1     -39.626  51.249 -53.552  1.00  0.00     0.039 A 
HETATM   15  C   UNL     1     -39.790  51.413 -52.177  1.00  0.00     0.069 A 
HETATM   16  C   UNL     1     -40.248  52.636 -51.668  1.00  0.00     0.051 A 
ENDROOT
BRANCH   1  17
HETATM   17  C   UNL     1     -42.517  57.100 -55.097  1.00  0.00    -0.019 A 
HETATM   18  C   UNL     1     -43.682  57.888 -55.021  1.00  0.00     0.049 A 
HETATM   19  C   UNL     1     -44.546  58.000 -56.117  1.00  0.00     0.102 A 
HETATM   20  C   UNL     1     -44.247  57.329 -57.316  1.00  0.00     0.102 A 
HETATM   21  C   UNL     1     -43.090  56.549 -57.396  1.00  0.00     0.040 A 
HETATM   22  C   UNL     1     -42.234  56.434 -56.297  1.00  0.00     0.012 A 
BRANCH  19  23
HETATM   23  O   UNL     1     -45.680  58.772 -56.116  1.00  0.00    -0.353 OA
HETATM   24  C   UNL     1     -45.518  60.180 -56.019  1.00  0.00     0.210 C 
ENDBRANCH  19  23
BRANCH  20  25
HETATM   25  O   UNL     1     -45.138  57.504 -58.342  1.00  0.00    -0.348 OA
BRANCH  25  26
HETATM   26  C   UNL     1     -44.752  57.082 -59.649  1.00  0.00     0.175 C 
BRANCH  26  27
HETATM   27  C   UNL     1     -45.658  55.922 -60.050  1.00  0.00     0.022 C 
HETATM   28  C   UNL     1     -44.914  54.598 -60.051  1.00  0.00     0.007 C 
ENDBRANCH  26  27
ENDBRANCH  25  26
ENDBRANCH  20  25
ENDBRANCH   1  17
BRANCH  15  29
HETATM   29  O   UNL     1     -39.541  50.467 -51.220  1.00  0.00    -0.356 OA
HETATM   30  C   UNL     1     -40.281  50.563 -50.008  1.00  0.00     0.210 C 
ENDBRANCH  15  29
TORSDOF 6
ENDMDL
MODEL 9
REMARK VINA RESULT:      -7.0     14.883     19.733
REMARK  6 active torsions:
REMARK  status: ('A' for Active; 'I' for Inactive)
REMARK    1  A    between atoms: C_2  and  C_3 
REMARK    2  A    between atoms: C_3  and  O_4 
REMARK    3  A    between atoms: O_4  and  C_5 
REMARK    4  A    between atoms: C_6  and  O_7 
REMARK    5  A    between atoms: C_10  and  C_11 
REMARK    6  A    between atoms: C_25  and  O_26 
ROOT
HETATM    1  C   UNL     1     -32.111  40.358 -53.969  1.00  0.00     0.269 C 
HETATM    2  N   UNL     1     -31.311  39.342 -54.746  1.00  0.00    -0.061 N 
HETATM    3  H   UNL     1     -31.791  38.440 -54.664  1.00  0.00     0.278 HD
HETATM    4  H   UNL     1     -30.400  39.227 -54.289  1.00  0.00     0.278 HD
HETATM    5  C   UNL     1     -31.142  39.678 -56.208  1.00  0.00     0.238 C 
HETATM    6  C   UNL     1     -32.505  39.707 -56.926  1.00  0.00     0.069 C 
HETATM    7  C   UNL     1     -33.502  40.465 -56.117  1.00  0.00    -0.019 A 
HETATM    8  C   UNL     1     -33.306  40.736 -54.775  1.00  0.00     0.052 A 
HETATM    9  N   UNL     1     -34.387  41.450 -54.324  1.00  0.00    -0.356 N 
HETATM   10  H   UNL     1     -34.535  41.792 -53.381  1.00  0.00     0.166 HD
HETATM   11  C   UNL     1     -35.289  41.621 -55.351  1.00  0.00     0.043 A 
HETATM   12  C   UNL     1     -34.757  41.012 -56.489  1.00  0.00     0.002 A 
HETATM   13  C   UNL     1     -36.530  42.267 -55.358  1.00  0.00     0.033 A 
HETATM   14  C   UNL     1     -37.248  42.293 -56.560  1.00  0.00     0.039 A 
HETATM   15  C   UNL     1     -36.745  41.695 -57.714  1.00  0.00     0.069 A 
HETATM   16  C   UNL     1     -35.500  41.052 -57.685  1.00  0.00     0.051 A 
ENDROOT
BRANCH   1  17
HETATM   17  C   UNL     1     -32.440  39.825 -52.589  1.00  0.00    -0.019 A 
HETATM   18  C   UNL     1     -33.237  38.677 -52.420  1.00  0.00     0.049 A 
HETATM   19  C   UNL     1     -33.519  38.179 -51.143  1.00  0.00     0.102 A 
HETATM   20  C   UNL     1     -32.993  38.824 -50.009  1.00  0.00     0.102 A 
HETATM   21  C   UNL     1     -32.199  39.962 -50.172  1.00  0.00     0.040 A 
HETATM   22  C   UNL     1     -31.925  40.459 -51.450  1.00  0.00     0.012 A 
BRANCH  19  23
HETATM   23  O   UNL     1     -34.265  37.052 -50.912  1.00  0.00    -0.353 OA
HETATM   24  C   UNL     1     -35.572  37.003 -51.466  1.00  0.00     0.210 C 
ENDBRANCH  19  23
BRANCH  20  25
HETATM   25  O   UNL     1     -33.307  38.264 -48.798  1.00  0.00    -0.348 OA
BRANCH  25  26
HETATM   26  C   UNL     1     -32.270  37.607 -48.070  1.00  0.00     0.175 C 
BRANCH  26  27
HETATM   27  C   UNL     1     -32.043  38.386 -46.778  1.00  0.00     0.022 C 
HETATM   28  C   UNL     1     -30.805  39.261 -46.856  1.00  0.00     0.007 C 
ENDBRANCH  26  27
ENDBRANCH  25  26
ENDBRANCH  20  25
ENDBRANCH   1  17
BRANCH  15  29
HETATM   29  O   UNL     1     -37.363  41.662 -58.936  1.00  0.00    -0.356 OA
HETATM   30  C   UNL     1     -37.129  40.517 -59.748  1.00  0.00     0.210 C 
ENDBRANCH  15  29
TORSDOF 6
ENDMDL
MODEL 10
REMARK VINA RESULT:      -7.0     15.400     16.981
REMARK  6 active torsions:
REMARK  status: ('A' for Active; 'I' for Inactive)
REMARK    1  A    between atoms: C_2  and  C_3 
REMARK    2  A    between atoms: C_3  and  O_4 
REMARK    3  A    between atoms: O_4  and  C_5 
REMARK    4  A    between atoms: C_6  and  O_7 
REMARK    5  A    between atoms: C_10  and  C_11 
REMARK    6  A    between atoms: C_25  and  O_26 
ROOT
HETATM    1  C   UNL     1     -36.802  41.556 -54.474  1.00  0.00     0.269 C 
HETATM    2  N   UNL     1     -38.122  41.090 -53.911  1.00  0.00    -0.061 N 
HETATM    3  H   UNL     1     -38.194  40.082 -54.083  1.00  0.00     0.278 HD
HETATM    4  H   UNL     1     -38.877  41.530 -54.447  1.00  0.00     0.278 HD
HETATM    5  C   UNL     1     -38.287  41.350 -52.433  1.00  0.00     0.238 C 
HETATM    6  C   UNL     1     -37.239  40.570 -51.617  1.00  0.00     0.069 C 
HETATM    7  C   UNL     1     -35.889  40.715 -52.233  1.00  0.00    -0.019 A 
HETATM    8  C   UNL     1     -35.718  41.152 -53.535  1.00  0.00     0.052 A 
HETATM    9  N   UNL     1     -34.372  41.187 -53.797  1.00  0.00    -0.356 N 
HETATM   10  H   UNL     1     -33.933  41.462 -54.668  1.00  0.00     0.166 HD
HETATM   11  C   UNL     1     -33.674  40.755 -52.691  1.00  0.00     0.043 A 
HETATM   12  C   UNL     1     -34.603  40.452 -51.694  1.00  0.00     0.002 A 
HETATM   13  C   UNL     1     -32.296  40.611 -52.499  1.00  0.00     0.033 A 
HETATM   14  C   UNL     1     -31.853  40.145 -51.254  1.00  0.00     0.039 A 
HETATM   15  C   UNL     1     -32.754  39.835 -50.237  1.00  0.00     0.069 A 
HETATM   16  C   UNL     1     -34.131  39.987 -50.452  1.00  0.00     0.051 A 
ENDROOT
BRANCH   1  17
HETATM   17  C   UNL     1     -36.620  41.038 -55.886  1.00  0.00    -0.019 A 
HETATM   18  C   UNL     1     -36.527  39.658 -56.152  1.00  0.00     0.049 A 
HETATM   19  C   UNL     1     -36.380  39.187 -57.462  1.00  0.00     0.102 A 
HETATM   20  C   UNL     1     -36.335  40.098 -58.533  1.00  0.00     0.102 A 
HETATM   21  C   UNL     1     -36.430  41.468 -58.273  1.00  0.00     0.040 A 
HETATM   22  C   UNL     1     -36.571  41.934 -56.963  1.00  0.00     0.012 A 
BRANCH  19  23
HETATM   23  O   UNL     1     -36.310  37.857 -57.790  1.00  0.00    -0.353 OA
HETATM   24  C   UNL     1     -37.293  36.991 -57.239  1.00  0.00     0.210 C 
ENDBRANCH  19  23
BRANCH  20  25
HETATM   25  O   UNL     1     -36.203  39.552 -59.782  1.00  0.00    -0.348 OA
BRANCH  25  26
HETATM   26  C   UNL     1     -37.262  39.745 -60.718  1.00  0.00     0.175 C 
BRANCH  26  27
HETATM   27  C   UNL     1     -37.999  38.419 -60.868  1.00  0.00     0.022 C 
HETATM   28  C   UNL     1     -39.286  38.393 -60.062  1.00  0.00     0.007 C 
ENDBRANCH  26  27
ENDBRANCH  25  26
ENDBRANCH  20  25
ENDBRANCH   1  17
BRANCH  15  29
HETATM   29  O   UNL     1     -32.430  39.374 -48.990  1.00  0.00    -0.356 OA
HETATM   30  C   UNL     1     -32.987  38.125 -48.596  1.00  0.00     0.210 C 
ENDBRANCH  15  29
TORSDOF 6
ENDMDL
