MODEL 1
REMARK VINA RESULT:      -8.5      0.000      0.000
REMARK  5 active torsions:
REMARK  status: ('A' for Active; 'I' for Inactive)
REMARK    1  A    between atoms: C_5  and  N_6 
REMARK    2  A    between atoms: N_6  and  C_7 
REMARK    3  A    between atoms: C_7  and  C_8 
REMARK       I    between atoms: C_8  and  N_9 
REMARK    4  A    between atoms: N_9  and  N_10 
REMARK    5  A    between atoms: C_11  and  C_12 
ROOT
HETATM    1  C   UNL     1     -42.276  55.662 -56.093  1.00  0.00     0.250 C 
HETATM    2  N   UNL     1     -41.103  55.841 -55.370  1.00  0.00    -0.246 N 
HETATM    3  O   UNL     1     -42.967  54.644 -56.082  1.00  0.00    -0.270 OA
HETATM    4  H   UNL     1     -40.625  56.736 -55.393  1.00  0.00     0.192 HD
ENDROOT
BRANCH   2   5
HETATM    5  N   UNL     1     -40.610  54.794 -54.644  1.00  0.00    -0.184 NA
HETATM    6  C   UNL     1     -41.092  54.616 -53.459  1.00  0.00     0.152 C 
BRANCH   6   7
HETATM    7  C   UNL     1     -40.569  53.534 -52.647  1.00  0.00     0.011 A 
HETATM    8  C   UNL     1     -40.272  52.191 -53.048  1.00  0.00     0.004 A 
HETATM    9  C   UNL     1     -39.812  51.510 -51.915  1.00  0.00     0.043 A 
HETATM   10  C   UNL     1     -40.353  51.483 -54.264  1.00  0.00     0.014 A 
HETATM   11  C   UNL     1     -39.436  50.161 -51.941  1.00  0.00     0.030 A 
HETATM   12  N   UNL     1     -39.822  52.402 -50.872  1.00  0.00    -0.364 N 
HETATM   13  C   UNL     1     -39.526  49.485 -53.159  1.00  0.00     0.002 A 
HETATM   14  C   UNL     1     -39.977  50.134 -54.307  1.00  0.00     0.001 A 
HETATM   15  H   UNL     1     -39.539  52.185 -49.925  1.00  0.00     0.165 HD
HETATM   16  C   UNL     1     -40.275  53.620 -51.298  1.00  0.00     0.102 A 
ENDBRANCH   6   7
ENDBRANCH   2   5
BRANCH   1  17
HETATM   17  C   UNL     1     -42.642  56.862 -56.964  1.00  0.00     0.197 C 
BRANCH  17  18
HETATM   18  N   UNL     1     -42.604  56.520 -58.394  1.00  0.00    -0.284 NA
HETATM   19  H   UNL     1     -41.981  57.137 -58.920  1.00  0.00     0.128 HD
BRANCH  18  20
HETATM   20  C   UNL     1     -43.825  56.382 -59.079  1.00  0.00     0.008 A 
HETATM   21  C   UNL     1     -44.034  55.495 -60.141  1.00  0.00     0.024 A 
HETATM   22  C   UNL     1     -45.249  55.469 -60.841  1.00  0.00     0.008 A 
HETATM   23  C   UNL     1     -46.277  56.357 -60.518  1.00  0.00    -0.062 A 
HETATM   24  C   UNL     1     -47.554  56.383 -61.303  1.00  0.00     0.048 C 
HETATM   25  C   UNL     1     -46.071  57.265 -59.476  1.00  0.00     0.008 A 
HETATM   26  C   UNL     1     -44.860  57.277 -58.773  1.00  0.00     0.024 A 
ENDBRANCH  18  20
ENDBRANCH  17  18
ENDBRANCH   1  17
TORSDOF 5
ENDMDL
MODEL 2
REMARK VINA RESULT:      -8.1      2.277      2.947
REMARK  5 active torsions:
REMARK  status: ('A' for Active; 'I' for Inactive)
REMARK    1  A    between atoms: C_5  and  N_6 
REMARK    2  A    between atoms: N_6  and  C_7 
REMARK    3  A    between atoms: C_7  and  C_8 
REMARK       I    between atoms: C_8  and  N_9 
REMARK    4  A    between atoms: N_9  and  N_10 
REMARK    5  A    between atoms: C_11  and  C_12 
ROOT
HETATM    1  C   UNL     1     -42.784  55.290 -56.596  1.00  0.00     0.250 C 
HETATM    2  N   UNL     1     -41.582  55.539 -55.944  1.00  0.00    -0.246 N 
HETATM    3  O   UNL     1     -43.473  54.282 -56.451  1.00  0.00    -0.270 OA
HETATM    4  H   UNL     1     -41.106  56.425 -56.079  1.00  0.00     0.192 HD
ENDROOT
BRANCH   2   5
HETATM    5  N   UNL     1     -41.059  54.572 -55.134  1.00  0.00    -0.184 NA
HETATM    6  C   UNL     1     -41.226  54.713 -53.861  1.00  0.00     0.152 C 
BRANCH   6   7
HETATM    7  C   UNL     1     -40.656  53.723 -52.967  1.00  0.00     0.011 A 
HETATM    8  C   UNL     1     -40.354  52.349 -53.245  1.00  0.00     0.004 A 
HETATM    9  C   UNL     1     -39.842  51.789 -52.071  1.00  0.00     0.043 A 
HETATM   10  C   UNL     1     -40.472  51.524 -54.382  1.00  0.00     0.014 A 
HETATM   11  C   UNL     1     -39.446  50.448 -51.978  1.00  0.00     0.030 A 
HETATM   12  N   UNL     1     -39.825  52.779 -51.121  1.00  0.00    -0.364 N 
HETATM   13  C   UNL     1     -39.574  49.654 -53.120  1.00  0.00     0.002 A 
HETATM   14  C   UNL     1     -40.078  50.181 -54.307  1.00  0.00     0.001 A 
HETATM   15  H   UNL     1     -39.501  52.660 -50.169  1.00  0.00     0.165 HD
HETATM   16  C   UNL     1     -40.311  53.945 -51.646  1.00  0.00     0.102 A 
ENDBRANCH   6   7
ENDBRANCH   2   5
BRANCH   1  17
HETATM   17  C   UNL     1     -43.186  56.394 -57.573  1.00  0.00     0.197 C 
BRANCH  17  18
HETATM   18  N   UNL     1     -42.076  56.749 -58.470  1.00  0.00    -0.284 NA
HETATM   19  H   UNL     1     -41.166  56.538 -58.057  1.00  0.00     0.128 HD
BRANCH  18  20
HETATM   20  C   UNL     1     -42.057  58.041 -59.028  1.00  0.00     0.008 A 
HETATM   21  C   UNL     1     -42.058  58.303 -60.403  1.00  0.00     0.024 A 
HETATM   22  C   UNL     1     -41.949  59.610 -60.896  1.00  0.00     0.008 A 
HETATM   23  C   UNL     1     -41.799  60.691 -60.024  1.00  0.00    -0.062 A 
HETATM   24  C   UNL     1     -41.613  62.085 -60.543  1.00  0.00     0.048 C 
HETATM   25  C   UNL     1     -41.771  60.440 -58.650  1.00  0.00     0.008 A 
HETATM   26  C   UNL     1     -41.894  59.132 -58.164  1.00  0.00     0.024 A 
ENDBRANCH  18  20
ENDBRANCH  17  18
ENDBRANCH   1  17
TORSDOF 5
ENDMDL
MODEL 3
REMARK VINA RESULT:      -8.0      1.334      1.791
REMARK  5 active torsions:
REMARK  status: ('A' for Active; 'I' for Inactive)
REMARK    1  A    between atoms: C_5  and  N_6 
REMARK    2  A    between atoms: N_6  and  C_7 
REMARK    3  A    between atoms: C_7  and  C_8 
REMARK       I    between atoms: C_8  and  N_9 
REMARK    4  A    between atoms: N_9  and  N_10 
REMARK    5  A    between atoms: C_11  and  C_12 
ROOT
HETATM    1  C   UNL     1     -43.196  56.949 -54.355  1.00  0.00     0.250 C 
HETATM    2  N   UNL     1     -41.835  56.845 -54.098  1.00  0.00    -0.246 N 
HETATM    3  O   UNL     1     -44.073  56.285 -53.806  1.00  0.00    -0.270 OA
HETATM    4  H   UNL     1     -41.182  57.474 -54.557  1.00  0.00     0.192 HD
ENDROOT
BRANCH   2   5
HETATM    5  N   UNL     1     -41.399  55.885 -53.231  1.00  0.00    -0.184 NA
HETATM    6  C   UNL     1     -40.967  54.779 -53.741  1.00  0.00     0.152 C 
BRANCH   6   7
HETATM    7  C   UNL     1     -40.526  53.723 -52.849  1.00  0.00     0.011 A 
HETATM    8  C   UNL     1     -40.252  52.353 -53.167  1.00  0.00     0.004 A 
HETATM    9  C   UNL     1     -39.879  51.715 -51.979  1.00  0.00     0.043 A 
HETATM   10  C   UNL     1     -40.289  51.589 -54.351  1.00  0.00     0.014 A 
HETATM   11  C   UNL     1     -39.547  50.356 -51.918  1.00  0.00     0.030 A 
HETATM   12  N   UNL     1     -39.918  52.658 -50.982  1.00  0.00    -0.364 N 
HETATM   13  C   UNL     1     -39.592  49.623 -53.106  1.00  0.00     0.002 A 
HETATM   14  C   UNL     1     -39.956  50.228 -54.308  1.00  0.00     0.001 A 
HETATM   15  H   UNL     1     -39.694  52.480 -50.011  1.00  0.00     0.165 HD
HETATM   16  C   UNL     1     -40.305  53.867 -51.490  1.00  0.00     0.102 A 
ENDBRANCH   6   7
ENDBRANCH   2   5
BRANCH   1  17
HETATM   17  C   UNL     1     -43.533  57.969 -55.442  1.00  0.00     0.197 C 
BRANCH  17  18
HETATM   18  N   UNL     1     -42.695  57.781 -56.635  1.00  0.00    -0.284 NA
HETATM   19  H   UNL     1     -42.174  58.627 -56.876  1.00  0.00     0.128 HD
BRANCH  18  20
HETATM   20  C   UNL     1     -43.292  57.245 -57.791  1.00  0.00     0.008 A 
HETATM   21  C   UNL     1     -44.397  57.809 -58.438  1.00  0.00     0.024 A 
HETATM   22  C   UNL     1     -45.001  57.178 -59.534  1.00  0.00     0.008 A 
HETATM   23  C   UNL     1     -44.536  55.943 -59.991  1.00  0.00    -0.062 A 
HETATM   24  C   UNL     1     -45.216  55.227 -61.119  1.00  0.00     0.048 C 
HETATM   25  C   UNL     1     -43.449  55.357 -59.338  1.00  0.00     0.008 A 
HETATM   26  C   UNL     1     -42.842  56.000 -58.252  1.00  0.00     0.024 A 
ENDBRANCH  18  20
ENDBRANCH  17  18
ENDBRANCH   1  17
TORSDOF 5
ENDMDL
MODEL 4
REMARK VINA RESULT:      -7.9      5.267      6.702
REMARK  5 active torsions:
REMARK  status: ('A' for Active; 'I' for Inactive)
REMARK    1  A    between atoms: C_5  and  N_6 
REMARK    2  A    between atoms: N_6  and  C_7 
REMARK    3  A    between atoms: C_7  and  C_8 
REMARK       I    between atoms: C_8  and  N_9 
REMARK    4  A    between atoms: N_9  and  N_10 
REMARK    5  A    between atoms: C_11  and  C_12 
ROOT
HETATM    1  C   UNL     1     -43.946  57.257 -51.767  1.00  0.00     0.250 C 
HETATM    2  N   UNL     1     -43.353  56.744 -50.620  1.00  0.00    -0.246 N 
HETATM    3  O   UNL     1     -44.094  56.643 -52.823  1.00  0.00    -0.270 OA
HETATM    4  H   UNL     1     -43.324  57.301 -49.772  1.00  0.00     0.192 HD
ENDROOT
BRANCH   2   5
HETATM    5  N   UNL     1     -42.811  55.491 -50.661  1.00  0.00    -0.184 NA
HETATM    6  C   UNL     1     -41.547  55.401 -50.915  1.00  0.00     0.152 C 
BRANCH   6   7
HETATM    7  C   UNL     1     -40.943  54.085 -50.999  1.00  0.00     0.011 A 
HETATM    8  C   UNL     1     -40.591  53.346 -52.176  1.00  0.00     0.004 A 
HETATM    9  C   UNL     1     -40.060  52.122 -51.756  1.00  0.00     0.043 A 
HETATM   10  C   UNL     1     -40.677  53.597 -53.560  1.00  0.00     0.014 A 
HETATM   11  C   UNL     1     -39.616  51.140 -52.651  1.00  0.00     0.030 A 
HETATM   12  N   UNL     1     -40.081  52.118 -50.384  1.00  0.00    -0.364 N 
HETATM   13  C   UNL     1     -39.713  51.415 -54.017  1.00  0.00     0.002 A 
HETATM   14  C   UNL     1     -40.234  52.626 -54.468  1.00  0.00     0.001 A 
HETATM   15  H   UNL     1     -39.756  51.355 -49.804  1.00  0.00     0.165 HD
HETATM   16  C   UNL     1     -40.609  53.290 -49.917  1.00  0.00     0.102 A 
ENDBRANCH   6   7
ENDBRANCH   2   5
BRANCH   1  17
HETATM   17  C   UNL     1     -44.389  58.712 -51.624  1.00  0.00     0.197 C 
BRANCH  17  18
HETATM   18  N   UNL     1     -43.459  59.626 -52.304  1.00  0.00    -0.284 NA
HETATM   19  H   UNL     1     -43.542  59.572 -53.321  1.00  0.00     0.128 HD
BRANCH  18  20
HETATM   20  C   UNL     1     -42.101  59.592 -51.935  1.00  0.00     0.008 A 
HETATM   21  C   UNL     1     -41.078  59.099 -52.752  1.00  0.00     0.024 A 
HETATM   22  C   UNL     1     -39.756  59.009 -52.292  1.00  0.00     0.008 A 
HETATM   23  C   UNL     1     -39.431  59.378 -50.985  1.00  0.00    -0.062 A 
HETATM   24  C   UNL     1     -38.034  59.223 -50.462  1.00  0.00     0.048 C 
HETATM   25  C   UNL     1     -40.448  59.848 -50.151  1.00  0.00     0.008 A 
HETATM   26  C   UNL     1     -41.763  59.947 -50.622  1.00  0.00     0.024 A 
ENDBRANCH  18  20
ENDBRANCH  17  18
ENDBRANCH   1  17
TORSDOF 5
ENDMDL
MODEL 5
REMARK VINA RESULT:      -7.4     13.864     17.576
REMARK  5 active torsions:
REMARK  status: ('A' for Active; 'I' for Inactive)
REMARK    1  A    between atoms: C_5  and  N_6 
REMARK    2  A    between atoms: N_6  and  C_7 
REMARK    3  A    between atoms: C_7  and  C_8 
REMARK       I    between atoms: C_8  and  N_9 
REMARK    4  A    between atoms: N_9  and  N_10 
REMARK    5  A    between atoms: C_11  and  C_12 
ROOT
HETATM    1  C   UNL     1     -35.612  41.767 -54.080  1.00  0.00     0.250 C 
HETATM    2  N   UNL     1     -36.503  42.442 -54.907  1.00  0.00    -0.246 N 
HETATM    3  O   UNL     1     -34.717  41.017 -54.466  1.00  0.00    -0.270 OA
HETATM    4  H   UNL     1     -37.176  43.087 -54.507  1.00  0.00     0.192 HD
ENDROOT
BRANCH   2   5
HETATM    5  N   UNL     1     -36.455  42.214 -56.252  1.00  0.00    -0.184 NA
HETATM    6  C   UNL     1     -37.500  41.688 -56.800  1.00  0.00     0.152 C 
BRANCH   6   7
HETATM    7  C   UNL     1     -37.475  41.401 -58.222  1.00  0.00     0.011 A 
HETATM    8  C   UNL     1     -37.762  40.161 -58.880  1.00  0.00     0.004 A 
HETATM    9  C   UNL     1     -37.583  40.366 -60.253  1.00  0.00     0.043 A 
HETATM   10  C   UNL     1     -38.154  38.879 -58.443  1.00  0.00     0.014 A 
HETATM   11  C   UNL     1     -37.773  39.354 -61.203  1.00  0.00     0.030 A 
HETATM   12  N   UNL     1     -37.210  41.676 -60.424  1.00  0.00    -0.364 N 
HETATM   13  C   UNL     1     -38.160  38.095 -60.741  1.00  0.00     0.002 A 
HETATM   14  C   UNL     1     -38.350  37.857 -59.381  1.00  0.00     0.001 A 
HETATM   15  H   UNL     1     -37.012  42.107 -61.317  1.00  0.00     0.165 HD
HETATM   16  C   UNL     1     -37.141  42.308 -59.213  1.00  0.00     0.102 A 
ENDBRANCH   6   7
ENDBRANCH   2   5
BRANCH   1  17
HETATM   17  C   UNL     1     -35.861  42.009 -52.592  1.00  0.00     0.197 C 
BRANCH  17  18
HETATM   18  N   UNL     1     -34.599  42.142 -51.850  1.00  0.00    -0.284 NA
HETATM   19  H   UNL     1     -33.840  42.487 -52.442  1.00  0.00     0.128 HD
BRANCH  18  20
HETATM   20  C   UNL     1     -34.150  41.041 -51.097  1.00  0.00     0.008 A 
HETATM   21  C   UNL     1     -34.996  40.149 -50.428  1.00  0.00     0.024 A 
HETATM   22  C   UNL     1     -34.484  39.125 -49.620  1.00  0.00     0.008 A 
HETATM   23  C   UNL     1     -33.108  38.987 -49.430  1.00  0.00    -0.062 A 
HETATM   24  C   UNL     1     -32.553  37.937 -48.515  1.00  0.00     0.048 C 
HETATM   25  C   UNL     1     -32.253  39.887 -50.072  1.00  0.00     0.008 A 
HETATM   26  C   UNL     1     -32.771  40.900 -50.888  1.00  0.00     0.024 A 
ENDBRANCH  18  20
ENDBRANCH  17  18
ENDBRANCH   1  17
TORSDOF 5
ENDMDL
MODEL 6
REMARK VINA RESULT:      -7.4      1.317      2.883
REMARK  5 active torsions:
REMARK  status: ('A' for Active; 'I' for Inactive)
REMARK    1  A    between atoms: C_5  and  N_6 
REMARK    2  A    between atoms: N_6  and  C_7 
REMARK    3  A    between atoms: C_7  and  C_8 
REMARK       I    between atoms: C_8  and  N_9 
REMARK    4  A    between atoms: N_9  and  N_10 
REMARK    5  A    between atoms: C_11  and  C_12 
ROOT
HETATM    1  C   UNL     1     -42.546  55.803 -56.084  1.00  0.00     0.250 C 
HETATM    2  N   UNL     1     -42.113  56.326 -54.871  1.00  0.00    -0.246 N 
HETATM    3  O   UNL     1     -42.863  54.631 -56.277  1.00  0.00    -0.270 OA
HETATM    4  H   UNL     1     -41.926  57.320 -54.786  1.00  0.00     0.192 HD
ENDROOT
BRANCH   2   5
HETATM    5  N   UNL     1     -41.941  55.480 -53.813  1.00  0.00    -0.184 NA
HETATM    6  C   UNL     1     -40.788  54.910 -53.692  1.00  0.00     0.152 C 
BRANCH   6   7
HETATM    7  C   UNL     1     -40.579  53.981 -52.598  1.00  0.00     0.011 A 
HETATM    8  C   UNL     1     -40.710  54.225 -51.192  1.00  0.00     0.004 A 
HETATM    9  C   UNL     1     -40.386  53.037 -50.530  1.00  0.00     0.043 A 
HETATM   10  C   UNL     1     -41.070  55.345 -50.414  1.00  0.00     0.014 A 
HETATM   11  C   UNL     1     -40.400  52.916 -49.135  1.00  0.00     0.030 A 
HETATM   12  N   UNL     1     -40.077  52.107 -51.491  1.00  0.00    -0.364 N 
HETATM   13  C   UNL     1     -40.760  54.041 -48.389  1.00  0.00     0.002 A 
HETATM   14  C   UNL     1     -41.092  55.240 -49.017  1.00  0.00     0.001 A 
HETATM   15  H   UNL     1     -39.803  51.151 -51.302  1.00  0.00     0.165 HD
HETATM   16  C   UNL     1     -40.188  52.661 -52.736  1.00  0.00     0.102 A 
ENDBRANCH   6   7
ENDBRANCH   2   5
BRANCH   1  17
HETATM   17  C   UNL     1     -42.566  56.829 -57.216  1.00  0.00     0.197 C 
BRANCH  17  18
HETATM   18  N   UNL     1     -42.688  56.179 -58.529  1.00  0.00    -0.284 NA
HETATM   19  H   UNL     1     -41.891  56.384 -59.135  1.00  0.00     0.128 HD
BRANCH  18  20
HETATM   20  C   UNL     1     -43.887  56.348 -59.247  1.00  0.00     0.008 A 
HETATM   21  C   UNL     1     -44.837  57.337 -58.968  1.00  0.00     0.024 A 
HETATM   22  C   UNL     1     -46.053  57.397 -59.663  1.00  0.00     0.008 A 
HETATM   23  C   UNL     1     -46.367  56.443 -60.634  1.00  0.00    -0.062 A 
HETATM   24  C   UNL     1     -47.692  56.458 -61.335  1.00  0.00     0.048 C 
HETATM   25  C   UNL     1     -45.437  55.436 -60.904  1.00  0.00     0.008 A 
HETATM   26  C   UNL     1     -44.219  55.390 -60.214  1.00  0.00     0.024 A 
ENDBRANCH  18  20
ENDBRANCH  17  18
ENDBRANCH   1  17
TORSDOF 5
ENDMDL
MODEL 7
REMARK VINA RESULT:      -7.4      2.097      9.048
REMARK  5 active torsions:
REMARK  status: ('A' for Active; 'I' for Inactive)
REMARK    1  A    between atoms: C_5  and  N_6 
REMARK    2  A    between atoms: N_6  and  C_7 
REMARK    3  A    between atoms: C_7  and  C_8 
REMARK       I    between atoms: C_8  and  N_9 
REMARK    4  A    between atoms: N_9  and  N_10 
REMARK    5  A    between atoms: C_11  and  C_12 
ROOT
HETATM    1  C   UNL     1     -43.175  55.846 -54.249  1.00  0.00     0.250 C 
HETATM    2  N   UNL     1     -42.335  55.894 -55.354  1.00  0.00    -0.246 N 
HETATM    3  O   UNL     1     -44.294  56.351 -54.187  1.00  0.00    -0.270 OA
HETATM    4  H   UNL     1     -41.449  55.399 -55.340  1.00  0.00     0.192 HD
ENDROOT
BRANCH   2   5
HETATM    5  N   UNL     1     -42.722  56.619 -56.445  1.00  0.00    -0.184 NA
HETATM    6  C   UNL     1     -42.999  55.965 -57.524  1.00  0.00     0.152 C 
BRANCH   6   7
HETATM    7  C   UNL     1     -43.382  56.704 -58.711  1.00  0.00     0.011 A 
HETATM    8  C   UNL     1     -42.959  58.014 -59.113  1.00  0.00     0.004 A 
HETATM    9  C   UNL     1     -43.611  58.312 -60.314  1.00  0.00     0.043 A 
HETATM   10  C   UNL     1     -42.089  58.980 -58.568  1.00  0.00     0.014 A 
HETATM   11  C   UNL     1     -43.437  59.526 -60.992  1.00  0.00     0.030 A 
HETATM   12  N   UNL     1     -44.390  57.229 -60.634  1.00  0.00    -0.364 N 
HETATM   13  C   UNL     1     -42.569  60.464 -60.429  1.00  0.00     0.002 A 
HETATM   14  C   UNL     1     -41.902  60.198 -59.235  1.00  0.00     0.001 A 
HETATM   15  H   UNL     1     -44.976  57.163 -61.457  1.00  0.00     0.165 HD
HETATM   16  C   UNL     1     -44.262  56.257 -59.681  1.00  0.00     0.102 A 
ENDBRANCH   6   7
ENDBRANCH   2   5
BRANCH   1  17
HETATM   17  C   UNL     1     -42.564  55.116 -53.053  1.00  0.00     0.197 C 
BRANCH  17  18
HETATM   18  N   UNL     1     -41.118  54.917 -53.226  1.00  0.00    -0.284 NA
HETATM   19  H   UNL     1     -40.753  55.429 -54.031  1.00  0.00     0.128 HD
BRANCH  18  20
HETATM   20  C   UNL     1     -40.623  53.600 -53.237  1.00  0.00     0.008 A 
HETATM   21  C   UNL     1     -40.670  52.752 -54.350  1.00  0.00     0.024 A 
HETATM   22  C   UNL     1     -40.241  51.420 -54.270  1.00  0.00     0.008 A 
HETATM   23  C   UNL     1     -39.785  50.889 -53.062  1.00  0.00    -0.062 A 
HETATM   24  C   UNL     1     -39.387  49.447 -52.950  1.00  0.00     0.048 C 
HETATM   25  C   UNL     1     -39.757  51.717 -51.938  1.00  0.00     0.008 A 
HETATM   26  C   UNL     1     -40.175  53.051 -52.027  1.00  0.00     0.024 A 
ENDBRANCH  18  20
ENDBRANCH  17  18
ENDBRANCH   1  17
TORSDOF 5
ENDMDL
MODEL 8
REMARK VINA RESULT:      -7.3     13.792     16.121
REMARK  5 active torsions:
REMARK  status: ('A' for Active; 'I' for Inactive)
REMARK    1  A    between atoms: C_5  and  N_6 
REMARK    2  A    between atoms: N_6  and  C_7 
REMARK    3  A    between atoms: C_7  and  C_8 
REMARK       I    between atoms: C_8  and  N_9 
REMARK    4  A    between atoms: N_9  and  N_10 
REMARK    5  A    between atoms: C_11  and  C_12 
ROOT
HETATM    1  C   UNL     1     -36.027  41.807 -53.663  1.00  0.00     0.250 C 
HETATM    2  N   UNL     1     -35.176  40.734 -53.427  1.00  0.00    -0.246 N 
HETATM    3  O   UNL     1     -36.804  42.289 -52.840  1.00  0.00    -0.270 OA
HETATM    4  H   UNL     1     -34.524  40.436 -54.145  1.00  0.00     0.192 HD
ENDROOT
BRANCH   2   5
HETATM    5  N   UNL     1     -35.243  40.092 -52.223  1.00  0.00    -0.184 NA
HETATM    6  C   UNL     1     -34.126  39.845 -51.622  1.00  0.00     0.152 C 
BRANCH   6   7
HETATM    7  C   UNL     1     -34.156  39.136 -50.357  1.00  0.00     0.011 A 
HETATM    8  C   UNL     1     -33.188  39.170 -49.300  1.00  0.00     0.004 A 
HETATM    9  C   UNL     1     -33.637  38.308 -48.295  1.00  0.00     0.043 A 
HETATM   10  C   UNL     1     -31.968  39.848 -49.102  1.00  0.00     0.014 A 
HETATM   11  C   UNL     1     -32.927  38.089 -47.108  1.00  0.00     0.030 A 
HETATM   12  N   UNL     1     -34.831  37.777 -48.717  1.00  0.00    -0.364 N 
HETATM   13  C   UNL     1     -31.721  38.774 -46.938  1.00  0.00     0.002 A 
HETATM   14  C   UNL     1     -31.246  39.642 -47.918  1.00  0.00     0.001 A 
HETATM   15  H   UNL     1     -35.387  37.117 -48.189  1.00  0.00     0.165 HD
HETATM   16  C   UNL     1     -35.153  38.266 -49.953  1.00  0.00     0.102 A 
ENDBRANCH   6   7
ENDBRANCH   2   5
BRANCH   1  17
HETATM   17  C   UNL     1     -35.945  42.345 -55.090  1.00  0.00     0.197 C 
BRANCH  17  18
HETATM   18  N   UNL     1     -37.276  42.428 -55.711  1.00  0.00    -0.284 NA
HETATM   19  H   UNL     1     -38.022  42.199 -55.052  1.00  0.00     0.128 HD
BRANCH  18  20
HETATM   20  C   UNL     1     -37.488  41.747 -56.924  1.00  0.00     0.008 A 
HETATM   21  C   UNL     1     -38.113  40.499 -57.026  1.00  0.00     0.024 A 
HETATM   22  C   UNL     1     -38.215  39.832 -58.255  1.00  0.00     0.008 A 
HETATM   23  C   UNL     1     -37.660  40.383 -59.412  1.00  0.00    -0.062 A 
HETATM   24  C   UNL     1     -37.705  39.647 -60.718  1.00  0.00     0.048 C 
HETATM   25  C   UNL     1     -37.012  41.616 -59.320  1.00  0.00     0.008 A 
HETATM   26  C   UNL     1     -36.925  42.283 -58.091  1.00  0.00     0.024 A 
ENDBRANCH  18  20
ENDBRANCH  17  18
ENDBRANCH   1  17
TORSDOF 5
ENDMDL
MODEL 9
REMARK VINA RESULT:      -7.2      2.249      8.370
REMARK  5 active torsions:
REMARK  status: ('A' for Active; 'I' for Inactive)
REMARK    1  A    between atoms: C_5  and  N_6 
REMARK    2  A    between atoms: N_6  and  C_7 
REMARK    3  A    between atoms: C_7  and  C_8 
REMARK       I    between atoms: C_8  and  N_9 
REMARK    4  A    between atoms: N_9  and  N_10 
REMARK    5  A    between atoms: C_11  and  C_12 
ROOT
HETATM    1  C   UNL     1     -41.508  57.095 -52.900  1.00  0.00     0.250 C 
HETATM    2  N   UNL     1     -42.846  57.201 -53.258  1.00  0.00    -0.246 N 
HETATM    3  O   UNL     1     -40.561  57.496 -53.574  1.00  0.00    -0.270 OA
HETATM    4  H   UNL     1     -43.569  56.895 -52.614  1.00  0.00     0.192 HD
ENDROOT
BRANCH   2   5
HETATM    5  N   UNL     1     -43.163  57.711 -54.484  1.00  0.00    -0.184 NA
HETATM    6  C   UNL     1     -44.165  57.183 -55.105  1.00  0.00     0.152 C 
BRANCH   6   7
HETATM    7  C   UNL     1     -44.510  57.678 -56.424  1.00  0.00     0.011 A 
HETATM    8  C   UNL     1     -44.023  57.226 -57.694  1.00  0.00     0.004 A 
HETATM    9  C   UNL     1     -44.623  58.020 -58.677  1.00  0.00     0.043 A 
HETATM   10  C   UNL     1     -43.123  56.222 -58.105  1.00  0.00     0.014 A 
HETATM   11  C   UNL     1     -44.367  57.859 -60.045  1.00  0.00     0.030 A 
HETATM   12  N   UNL     1     -45.446  58.911 -58.035  1.00  0.00    -0.364 N 
HETATM   13  C   UNL     1     -43.472  56.856 -60.423  1.00  0.00     0.002 A 
HETATM   14  C   UNL     1     -42.858  56.046 -59.470  1.00  0.00     0.001 A 
HETATM   15  H   UNL     1     -46.012  59.611 -58.497  1.00  0.00     0.165 HD
HETATM   16  C   UNL     1     -45.387  58.716 -56.682  1.00  0.00     0.102 A 
ENDBRANCH   6   7
ENDBRANCH   2   5
BRANCH   1  17
HETATM   17  C   UNL     1     -41.290  56.385 -51.564  1.00  0.00     0.197 C 
BRANCH  17  18
HETATM   18  N   UNL     1     -41.936  55.064 -51.546  1.00  0.00    -0.284 NA
HETATM   19  H   UNL     1     -42.145  54.752 -50.595  1.00  0.00     0.128 HD
BRANCH  18  20
HETATM   20  C   UNL     1     -41.334  54.018 -52.268  1.00  0.00     0.008 A 
HETATM   21  C   UNL     1     -41.731  53.618 -53.549  1.00  0.00     0.024 A 
HETATM   22  C   UNL     1     -41.150  52.509 -54.180  1.00  0.00     0.008 A 
HETATM   23  C   UNL     1     -40.177  51.748 -53.529  1.00  0.00    -0.062 A 
HETATM   24  C   UNL     1     -39.597  50.521 -54.167  1.00  0.00     0.048 C 
HETATM   25  C   UNL     1     -39.790  52.122 -52.240  1.00  0.00     0.008 A 
HETATM   26  C   UNL     1     -40.366  53.238 -51.621  1.00  0.00     0.024 A 
ENDBRANCH  18  20
ENDBRANCH  17  18
ENDBRANCH   1  17
TORSDOF 5
ENDMDL
MODEL 10
REMARK VINA RESULT:      -7.1      3.780      4.751
REMARK  5 active torsions:
REMARK  status: ('A' for Active; 'I' for Inactive)
REMARK    1  A    between atoms: C_5  and  N_6 
REMARK    2  A    between atoms: N_6  and  C_7 
REMARK    3  A    between atoms: C_7  and  C_8 
REMARK       I    between atoms: C_8  and  N_9 
REMARK    4  A    between atoms: N_9  and  N_10 
REMARK    5  A    between atoms: C_11  and  C_12 
ROOT
HETATM    1  C   UNL     1     -44.200  57.714 -51.006  1.00  0.00     0.250 C 
HETATM    2  N   UNL     1     -42.818  57.575 -51.005  1.00  0.00    -0.246 N 
HETATM    3  O   UNL     1     -45.001  56.832 -50.703  1.00  0.00    -0.270 OA
HETATM    4  H   UNL     1     -42.227  58.373 -51.213  1.00  0.00     0.192 HD
ENDROOT
BRANCH   2   5
HETATM    5  N   UNL     1     -42.279  56.351 -50.727  1.00  0.00    -0.184 NA
HETATM    6  C   UNL     1     -41.452  55.859 -51.589  1.00  0.00     0.152 C 
BRANCH   6   7
HETATM    7  C   UNL     1     -40.885  54.547 -51.343  1.00  0.00     0.011 A 
HETATM    8  C   UNL     1     -40.532  53.541 -52.302  1.00  0.00     0.004 A 
HETATM    9  C   UNL     1     -40.045  52.440 -51.591  1.00  0.00     0.043 A 
HETATM   10  C   UNL     1     -40.586  53.457 -53.708  1.00  0.00     0.014 A 
HETATM   11  C   UNL     1     -39.613  51.263 -52.215  1.00  0.00     0.030 A 
HETATM   12  N   UNL     1     -40.090  52.763 -50.257  1.00  0.00    -0.364 N 
HETATM   13  C   UNL     1     -39.677  51.207 -53.609  1.00  0.00     0.002 A 
HETATM   14  C   UNL     1     -40.155  52.287 -54.348  1.00  0.00     0.001 A 
HETATM   15  H   UNL     1     -39.797  52.153 -49.505  1.00  0.00     0.165 HD
HETATM   16  C   UNL     1     -40.593  54.025 -50.095  1.00  0.00     0.102 A 
ENDBRANCH   6   7
ENDBRANCH   2   5
BRANCH   1  17
HETATM   17  C   UNL     1     -44.671  59.094 -51.464  1.00  0.00     0.197 C 
BRANCH  17  18
HETATM   18  N   UNL     1     -45.210  59.051 -52.831  1.00  0.00    -0.284 NA
HETATM   19  H   UNL     1     -45.812  58.239 -52.982  1.00  0.00     0.128 HD
BRANCH  18  20
HETATM   20  C   UNL     1     -44.312  59.184 -53.906  1.00  0.00     0.008 A 
HETATM   21  C   UNL     1     -43.192  60.024 -53.894  1.00  0.00     0.024 A 
HETATM   22  C   UNL     1     -42.385  60.179 -55.030  1.00  0.00     0.008 A 
HETATM   23  C   UNL     1     -42.699  59.523 -56.222  1.00  0.00    -0.062 A 
HETATM   24  C   UNL     1     -41.882  59.735 -57.462  1.00  0.00     0.048 C 
HETATM   25  C   UNL     1     -43.829  58.702 -56.254  1.00  0.00     0.008 A 
HETATM   26  C   UNL     1     -44.623  58.542 -55.112  1.00  0.00     0.024 A 
ENDBRANCH  18  20
ENDBRANCH  17  18
ENDBRANCH   1  17
TORSDOF 5
ENDMDL
