MODEL 1
REMARK VINA RESULT:      -7.9      0.000      0.000
REMARK  8 active torsions:
REMARK  status: ('A' for Active; 'I' for Inactive)
REMARK    1  A    between atoms: C_4  and  C_5 
REMARK    2  A    between atoms: C_9  and  C_10 
REMARK       I    between atoms: C_10  and  N_11 
REMARK    3  A    between atoms: N_11  and  C_12 
REMARK    4  A    between atoms: C_12  and  C_13 
REMARK    5  A    between atoms: C_13  and  C_14 
REMARK    6  A    between atoms: C_14  and  C_15 
REMARK    7  A    between atoms: C_15  and  O_16 
REMARK    8  A    between atoms: O_16  and  C_17 
ROOT
HETATM    1  C   UNL     1     -41.168  58.750 -53.389  1.00  0.00     0.270 C 
HETATM    2  N   UNL     1     -42.023  58.342 -52.396  1.00  0.00    -0.345 N 
HETATM    3  O   UNL     1     -40.044  59.188 -53.168  1.00  0.00    -0.266 OA
HETATM    4  H   UNL     1     -42.865  57.845 -52.640  1.00  0.00     0.163 HD
ENDROOT
BRANCH   2   5
HETATM    5  C   UNL     1     -41.658  58.401 -51.007  1.00  0.00     0.217 C 
BRANCH   5   6
HETATM    6  C   UNL     1     -41.157  57.046 -50.534  1.00  0.00    -0.085 C 
BRANCH   6   7
HETATM    7  C   UNL     1     -40.727  55.884 -50.128  1.00  0.00    -0.078 C 
BRANCH   7   8
HETATM    8  C   UNL     1     -40.226  54.529 -49.654  1.00  0.00     0.269 C 
BRANCH   8   9
HETATM    9  O   UNL     1     -41.077  53.507 -50.156  1.00  0.00    -0.337 OA
BRANCH   9  10
HETATM   10  C   UNL     1     -40.955  53.180 -51.492  1.00  0.00     0.099 A 
HETATM   11  C   UNL     1     -41.764  53.622 -52.563  1.00  0.00     0.100 A 
HETATM   12  C   UNL     1     -41.439  53.145 -53.857  1.00  0.00    -0.005 A 
HETATM   13  N   UNL     1     -42.815  54.467 -52.404  1.00  0.00    -0.257 NA
HETATM   14  C   UNL     1     -42.217  53.557 -54.949  1.00  0.00     0.015 A 
HETATM   15  C   UNL     1     -40.358  52.273 -54.060  1.00  0.00     0.014 A 
HETATM   16  C   UNL     1     -43.286  54.419 -54.762  1.00  0.00     0.020 A 
HETATM   17  C   UNL     1     -43.543  54.844 -53.478  1.00  0.00     0.117 A 
HETATM   18  C   UNL     1     -39.576  51.856 -52.991  1.00  0.00     0.004 A 
HETATM   19  C   UNL     1     -39.874  52.310 -51.713  1.00  0.00     0.039 A 
ENDBRANCH   9  10
ENDBRANCH   8   9
ENDBRANCH   7   8
ENDBRANCH   6   7
ENDBRANCH   5   6
ENDBRANCH   2   5
BRANCH   1  20
HETATM   20  C   UNL     1     -41.693  58.645 -54.723  1.00  0.00     0.120 A 
HETATM   21  N   UNL     1     -42.100  59.745 -55.423  1.00  0.00    -0.272 N 
HETATM   22  N   UNL     1     -42.579  59.474 -56.646  1.00  0.00    -0.174 NA
HETATM   23  H   UNL     1     -42.072  60.710 -55.107  1.00  0.00     0.189 HD
HETATM   24  C   UNL     1     -42.523  58.137 -56.743  1.00  0.00     0.089 A 
HETATM   25  C   UNL     1     -41.953  57.581 -55.563  1.00  0.00     0.071 A 
BRANCH  24  26
HETATM   26  C   UNL     1     -43.010  57.426 -57.929  1.00  0.00    -0.006 A 
HETATM   27  C   UNL     1     -43.291  58.128 -59.111  1.00  0.00     0.014 A 
HETATM   28  C   UNL     1     -43.753  57.458 -60.246  1.00  0.00     0.001 A 
HETATM   29  C   UNL     1     -43.947  56.079 -60.211  1.00  0.00     0.000 A 
HETATM   30  C   UNL     1     -43.679  55.369 -59.043  1.00  0.00     0.001 A 
HETATM   31  C   UNL     1     -43.213  56.039 -57.908  1.00  0.00     0.014 A 
ENDBRANCH  24  26
ENDBRANCH   1  20
TORSDOF 8
ENDMDL
MODEL 2
REMARK VINA RESULT:      -7.8      2.881      6.859
REMARK  8 active torsions:
REMARK  status: ('A' for Active; 'I' for Inactive)
REMARK    1  A    between atoms: C_4  and  C_5 
REMARK    2  A    between atoms: C_9  and  C_10 
REMARK       I    between atoms: C_10  and  N_11 
REMARK    3  A    between atoms: N_11  and  C_12 
REMARK    4  A    between atoms: C_12  and  C_13 
REMARK    5  A    between atoms: C_13  and  C_14 
REMARK    6  A    between atoms: C_14  and  C_15 
REMARK    7  A    between atoms: C_15  and  O_16 
REMARK    8  A    between atoms: O_16  and  C_17 
ROOT
HETATM    1  C   UNL     1     -42.863  55.672 -56.176  1.00  0.00     0.270 C 
HETATM    2  N   UNL     1     -43.330  56.707 -55.404  1.00  0.00    -0.345 N 
HETATM    3  O   UNL     1     -43.228  55.480 -57.332  1.00  0.00    -0.266 OA
HETATM    4  H   UNL     1     -42.881  56.911 -54.525  1.00  0.00     0.163 HD
ENDROOT
BRANCH   2   5
HETATM    5  C   UNL     1     -44.294  57.650 -55.900  1.00  0.00     0.217 C 
BRANCH   5   6
HETATM    6  C   UNL     1     -44.792  58.540 -54.772  1.00  0.00    -0.085 C 
BRANCH   6   7
HETATM    7  C   UNL     1     -45.217  59.303 -53.805  1.00  0.00    -0.078 C 
BRANCH   7   8
HETATM    8  C   UNL     1     -45.714  60.191 -52.676  1.00  0.00     0.269 C 
BRANCH   8   9
HETATM    9  O   UNL     1     -45.357  59.615 -51.426  1.00  0.00    -0.337 OA
BRANCH   9  10
HETATM   10  C   UNL     1     -44.015  59.394 -51.190  1.00  0.00     0.099 A 
HETATM   11  C   UNL     1     -43.308  58.177 -51.320  1.00  0.00     0.100 A 
HETATM   12  C   UNL     1     -41.923  58.199 -51.019  1.00  0.00    -0.005 A 
HETATM   13  N   UNL     1     -43.889  57.014 -51.713  1.00  0.00    -0.257 NA
HETATM   14  C   UNL     1     -41.183  57.014 -51.132  1.00  0.00     0.015 A 
HETATM   15  C   UNL     1     -41.287  59.383 -50.613  1.00  0.00     0.014 A 
HETATM   16  C   UNL     1     -41.799  55.839 -51.535  1.00  0.00     0.020 A 
HETATM   17  C   UNL     1     -43.146  55.890 -51.812  1.00  0.00     0.117 A 
HETATM   18  C   UNL     1     -42.004  60.567 -50.496  1.00  0.00     0.004 A 
HETATM   19  C   UNL     1     -43.361  60.570 -50.786  1.00  0.00     0.039 A 
ENDBRANCH   9  10
ENDBRANCH   8   9
ENDBRANCH   7   8
ENDBRANCH   6   7
ENDBRANCH   5   6
ENDBRANCH   2   5
BRANCH   1  20
HETATM   20  C   UNL     1     -41.918  54.808 -55.525  1.00  0.00     0.120 A 
HETATM   21  N   UNL     1     -40.571  55.023 -55.610  1.00  0.00    -0.272 N 
HETATM   22  N   UNL     1     -39.826  54.118 -54.958  1.00  0.00    -0.174 NA
HETATM   23  H   UNL     1     -40.108  55.780 -56.104  1.00  0.00     0.189 HD
HETATM   24  C   UNL     1     -40.714  53.246 -54.457  1.00  0.00     0.089 A 
HETATM   25  C   UNL     1     -42.040  53.657 -54.773  1.00  0.00     0.071 A 
BRANCH  24  26
HETATM   26  C   UNL     1     -40.293  52.059 -53.706  1.00  0.00    -0.006 A 
HETATM   27  C   UNL     1     -40.249  50.804 -54.331  1.00  0.00     0.014 A 
HETATM   28  C   UNL     1     -39.847  49.668 -53.623  1.00  0.00     0.001 A 
HETATM   29  C   UNL     1     -39.491  49.773 -52.280  1.00  0.00     0.000 A 
HETATM   30  C   UNL     1     -39.537  51.011 -51.644  1.00  0.00     0.001 A 
HETATM   31  C   UNL     1     -39.936  52.149 -52.353  1.00  0.00     0.014 A 
ENDBRANCH  24  26
ENDBRANCH   1  20
TORSDOF 8
ENDMDL
MODEL 3
REMARK VINA RESULT:      -7.6      2.809      7.936
REMARK  8 active torsions:
REMARK  status: ('A' for Active; 'I' for Inactive)
REMARK    1  A    between atoms: C_4  and  C_5 
REMARK    2  A    between atoms: C_9  and  C_10 
REMARK       I    between atoms: C_10  and  N_11 
REMARK    3  A    between atoms: N_11  and  C_12 
REMARK    4  A    between atoms: C_12  and  C_13 
REMARK    5  A    between atoms: C_13  and  C_14 
REMARK    6  A    between atoms: C_14  and  C_15 
REMARK    7  A    between atoms: C_15  and  O_16 
REMARK    8  A    between atoms: O_16  and  C_17 
ROOT
HETATM    1  C   UNL     1     -42.117  56.861 -54.262  1.00  0.00     0.270 C 
HETATM    2  N   UNL     1     -43.481  56.804 -54.407  1.00  0.00    -0.345 N 
HETATM    3  O   UNL     1     -41.500  57.912 -54.131  1.00  0.00    -0.266 OA
HETATM    4  H   UNL     1     -43.950  55.914 -54.350  1.00  0.00     0.163 HD
ENDROOT
BRANCH   2   5
HETATM    5  C   UNL     1     -44.294  57.990 -54.418  1.00  0.00     0.217 C 
BRANCH   5   6
HETATM    6  C   UNL     1     -45.067  58.089 -55.723  1.00  0.00    -0.085 C 
BRANCH   6   7
HETATM    7  C   UNL     1     -45.730  58.173 -56.842  1.00  0.00    -0.078 C 
BRANCH   7   8
HETATM    8  C   UNL     1     -46.503  58.271 -58.147  1.00  0.00     0.269 C 
BRANCH   8   9
HETATM    9  O   UNL     1     -46.056  57.260 -59.041  1.00  0.00    -0.337 OA
BRANCH   9  10
HETATM   10  C   UNL     1     -44.732  57.298 -59.429  1.00  0.00     0.099 A 
HETATM   11  C   UNL     1     -44.042  58.377 -60.028  1.00  0.00     0.100 A 
HETATM   12  C   UNL     1     -42.674  58.176 -60.339  1.00  0.00    -0.005 A 
HETATM   13  N   UNL     1     -44.625  59.571 -60.310  1.00  0.00    -0.257 NA
HETATM   14  C   UNL     1     -41.952  59.219 -60.936  1.00  0.00     0.015 A 
HETATM   15  C   UNL     1     -42.037  56.957 -60.060  1.00  0.00     0.014 A 
HETATM   16  C   UNL     1     -42.569  60.429 -61.215  1.00  0.00     0.020 A 
HETATM   17  C   UNL     1     -43.899  60.554 -60.885  1.00  0.00     0.117 A 
HETATM   18  C   UNL     1     -42.736  55.913 -59.468  1.00  0.00     0.004 A 
HETATM   19  C   UNL     1     -44.077  56.086 -59.154  1.00  0.00     0.039 A 
ENDBRANCH   9  10
ENDBRANCH   8   9
ENDBRANCH   7   8
ENDBRANCH   6   7
ENDBRANCH   5   6
ENDBRANCH   2   5
BRANCH   1  20
HETATM   20  C   UNL     1     -41.451  55.587 -54.292  1.00  0.00     0.120 A 
HETATM   21  N   UNL     1     -40.777  55.157 -55.399  1.00  0.00    -0.272 N 
HETATM   22  N   UNL     1     -40.224  53.941 -55.270  1.00  0.00    -0.174 NA
HETATM   23  H   UNL     1     -40.663  55.659 -56.275  1.00  0.00     0.189 HD
HETATM   24  C   UNL     1     -40.583  53.535 -54.042  1.00  0.00     0.089 A 
HETATM   25  C   UNL     1     -41.336  54.550 -53.388  1.00  0.00     0.071 A 
BRANCH  24  26
HETATM   26  C   UNL     1     -40.215  52.213 -53.526  1.00  0.00    -0.006 A 
HETATM   27  C   UNL     1     -40.237  51.092 -54.368  1.00  0.00     0.014 A 
HETATM   28  C   UNL     1     -39.885  49.829 -53.885  1.00  0.00     0.001 A 
HETATM   29  C   UNL     1     -39.515  49.671 -52.551  1.00  0.00     0.000 A 
HETATM   30  C   UNL     1     -39.495  50.774 -51.701  1.00  0.00     0.001 A 
HETATM   31  C   UNL     1     -39.843  52.039 -52.185  1.00  0.00     0.014 A 
ENDBRANCH  24  26
ENDBRANCH   1  20
TORSDOF 8
ENDMDL
MODEL 4
REMARK VINA RESULT:      -7.6      2.041      7.538
REMARK  8 active torsions:
REMARK  status: ('A' for Active; 'I' for Inactive)
REMARK    1  A    between atoms: C_4  and  C_5 
REMARK    2  A    between atoms: C_9  and  C_10 
REMARK       I    between atoms: C_10  and  N_11 
REMARK    3  A    between atoms: N_11  and  C_12 
REMARK    4  A    between atoms: C_12  and  C_13 
REMARK    5  A    between atoms: C_13  and  C_14 
REMARK    6  A    between atoms: C_14  and  C_15 
REMARK    7  A    between atoms: C_15  and  O_16 
REMARK    8  A    between atoms: O_16  and  C_17 
ROOT
HETATM    1  C   UNL     1     -42.002  57.083 -51.533  1.00  0.00     0.270 C 
HETATM    2  N   UNL     1     -41.126  58.099 -51.823  1.00  0.00    -0.345 N 
HETATM    3  O   UNL     1     -43.192  57.269 -51.299  1.00  0.00    -0.266 OA
HETATM    4  H   UNL     1     -40.203  57.877 -52.162  1.00  0.00     0.163 HD
ENDROOT
BRANCH   2   5
HETATM    5  C   UNL     1     -41.546  59.474 -51.871  1.00  0.00     0.217 C 
BRANCH   5   6
HETATM    6  C   UNL     1     -41.868  59.877 -53.301  1.00  0.00    -0.085 C 
BRANCH   6   7
HETATM    7  C   UNL     1     -42.145  60.224 -54.526  1.00  0.00    -0.078 C 
BRANCH   7   8
HETATM    8  C   UNL     1     -42.468  60.629 -55.956  1.00  0.00     0.269 C 
BRANCH   8   9
HETATM    9  O   UNL     1     -41.437  60.173 -56.822  1.00  0.00    -0.337 OA
BRANCH   9  10
HETATM   10  C   UNL     1     -41.817  59.675 -58.052  1.00  0.00     0.099 A 
HETATM   11  C   UNL     1     -42.270  58.369 -58.348  1.00  0.00     0.100 A 
HETATM   12  C   UNL     1     -42.606  58.093 -59.697  1.00  0.00    -0.005 A 
HETATM   13  N   UNL     1     -42.397  57.393 -57.413  1.00  0.00    -0.257 NA
HETATM   14  C   UNL     1     -43.058  56.810 -60.037  1.00  0.00     0.015 A 
HETATM   15  C   UNL     1     -42.491  59.077 -60.691  1.00  0.00     0.014 A 
HETATM   16  C   UNL     1     -43.178  55.829 -59.064  1.00  0.00     0.020 A 
HETATM   17  C   UNL     1     -42.837  56.168 -57.774  1.00  0.00     0.117 A 
HETATM   18  C   UNL     1     -42.046  60.354 -60.373  1.00  0.00     0.004 A 
HETATM   19  C   UNL     1     -41.712  60.649 -59.058  1.00  0.00     0.039 A 
ENDBRANCH   9  10
ENDBRANCH   8   9
ENDBRANCH   7   8
ENDBRANCH   6   7
ENDBRANCH   5   6
ENDBRANCH   2   5
BRANCH   1  20
HETATM   20  C   UNL     1     -41.420  55.770 -51.505  1.00  0.00     0.120 A 
HETATM   21  N   UNL     1     -40.648  55.349 -50.458  1.00  0.00    -0.272 N 
HETATM   22  N   UNL     1     -40.168  54.104 -50.593  1.00  0.00    -0.174 NA
HETATM   23  H   UNL     1     -40.418  55.878 -49.622  1.00  0.00     0.189 HD
HETATM   24  C   UNL     1     -40.606  53.701 -51.796  1.00  0.00     0.089 A 
HETATM   25  C   UNL     1     -41.413  54.710 -52.390  1.00  0.00     0.071 A 
BRANCH  24  26
HETATM   26  C   UNL     1     -40.250  52.390 -52.349  1.00  0.00    -0.006 A 
HETATM   27  C   UNL     1     -39.808  51.361 -51.505  1.00  0.00     0.014 A 
HETATM   28  C   UNL     1     -39.469  50.108 -52.024  1.00  0.00     0.001 A 
HETATM   29  C   UNL     1     -39.561  49.874 -53.394  1.00  0.00     0.000 A 
HETATM   30  C   UNL     1     -39.991  50.888 -54.245  1.00  0.00     0.001 A 
HETATM   31  C   UNL     1     -40.334  52.140 -53.726  1.00  0.00     0.014 A 
ENDBRANCH  24  26
ENDBRANCH   1  20
TORSDOF 8
ENDMDL
MODEL 5
REMARK VINA RESULT:      -7.5      2.441      7.608
REMARK  8 active torsions:
REMARK  status: ('A' for Active; 'I' for Inactive)
REMARK    1  A    between atoms: C_4  and  C_5 
REMARK    2  A    between atoms: C_9  and  C_10 
REMARK       I    between atoms: C_10  and  N_11 
REMARK    3  A    between atoms: N_11  and  C_12 
REMARK    4  A    between atoms: C_12  and  C_13 
REMARK    5  A    between atoms: C_13  and  C_14 
REMARK    6  A    between atoms: C_14  and  C_15 
REMARK    7  A    between atoms: C_15  and  O_16 
REMARK    8  A    between atoms: O_16  and  C_17 
ROOT
HETATM    1  C   UNL     1     -41.666  56.983 -53.843  1.00  0.00     0.270 C 
HETATM    2  N   UNL     1     -43.024  57.077 -54.020  1.00  0.00    -0.345 N 
HETATM    3  O   UNL     1     -40.953  57.950 -53.597  1.00  0.00    -0.266 OA
HETATM    4  H   UNL     1     -43.579  56.237 -54.060  1.00  0.00     0.163 HD
ENDROOT
BRANCH   2   5
HETATM    5  C   UNL     1     -43.716  58.335 -53.932  1.00  0.00     0.217 C 
BRANCH   5   6
HETATM    6  C   UNL     1     -43.526  59.133 -55.212  1.00  0.00    -0.085 C 
BRANCH   6   7
HETATM    7  C   UNL     1     -43.363  59.817 -56.309  1.00  0.00    -0.078 C 
BRANCH   7   8
HETATM    8  C   UNL     1     -43.174  60.614 -57.590  1.00  0.00     0.269 C 
BRANCH   8   9
HETATM    9  O   UNL     1     -44.003  60.074 -58.611  1.00  0.00    -0.337 OA
BRANCH   9  10
HETATM   10  C   UNL     1     -43.616  58.875 -59.175  1.00  0.00     0.099 A 
HETATM   11  C   UNL     1     -44.442  57.783 -59.524  1.00  0.00     0.100 A 
HETATM   12  C   UNL     1     -43.809  56.651 -60.094  1.00  0.00    -0.005 A 
HETATM   13  N   UNL     1     -45.787  57.777 -59.340  1.00  0.00    -0.257 NA
HETATM   14  C   UNL     1     -44.590  55.543 -60.454  1.00  0.00     0.015 A 
HETATM   15  C   UNL     1     -42.421  56.622 -60.302  1.00  0.00     0.014 A 
HETATM   16  C   UNL     1     -45.962  55.560 -60.256  1.00  0.00     0.020 A 
HETATM   17  C   UNL     1     -46.510  56.693 -59.699  1.00  0.00     0.117 A 
HETATM   18  C   UNL     1     -41.631  57.711 -59.953  1.00  0.00     0.004 A 
HETATM   19  C   UNL     1     -42.229  58.831 -59.393  1.00  0.00     0.039 A 
ENDBRANCH   9  10
ENDBRANCH   8   9
ENDBRANCH   7   8
ENDBRANCH   6   7
ENDBRANCH   5   6
ENDBRANCH   2   5
BRANCH   1  20
HETATM   20  C   UNL     1     -41.127  55.658 -53.983  1.00  0.00     0.120 A 
HETATM   21  N   UNL     1     -40.632  55.207 -55.174  1.00  0.00    -0.272 N 
HETATM   22  N   UNL     1     -40.181  53.944 -55.141  1.00  0.00    -0.174 NA
HETATM   23  H   UNL     1     -40.580  55.726 -56.046  1.00  0.00     0.189 HD
HETATM   24  C   UNL     1     -40.425  53.531 -53.888  1.00  0.00     0.089 A 
HETATM   25  C   UNL     1     -40.998  54.586 -53.124  1.00  0.00     0.071 A 
BRANCH  24  26
HETATM   26  C   UNL     1     -40.119  52.165 -53.451  1.00  0.00    -0.006 A 
HETATM   27  C   UNL     1     -40.138  51.105 -54.369  1.00  0.00     0.014 A 
HETATM   28  C   UNL     1     -39.846  49.801 -53.961  1.00  0.00     0.001 A 
HETATM   29  C   UNL     1     -39.538  49.541 -52.628  1.00  0.00     0.000 A 
HETATM   30  C   UNL     1     -39.522  50.581 -51.702  1.00  0.00     0.001 A 
HETATM   31  C   UNL     1     -39.810  51.887 -52.111  1.00  0.00     0.014 A 
ENDBRANCH  24  26
ENDBRANCH   1  20
TORSDOF 8
ENDMDL
MODEL 6
REMARK VINA RESULT:      -7.5      2.551      7.021
REMARK  8 active torsions:
REMARK  status: ('A' for Active; 'I' for Inactive)
REMARK    1  A    between atoms: C_4  and  C_5 
REMARK    2  A    between atoms: C_9  and  C_10 
REMARK       I    between atoms: C_10  and  N_11 
REMARK    3  A    between atoms: N_11  and  C_12 
REMARK    4  A    between atoms: C_12  and  C_13 
REMARK    5  A    between atoms: C_13  and  C_14 
REMARK    6  A    between atoms: C_14  and  C_15 
REMARK    7  A    between atoms: C_15  and  O_16 
REMARK    8  A    between atoms: O_16  and  C_17 
ROOT
HETATM    1  C   UNL     1     -42.857  56.063 -55.376  1.00  0.00     0.270 C 
HETATM    2  N   UNL     1     -42.508  56.799 -56.481  1.00  0.00    -0.345 N 
HETATM    3  O   UNL     1     -43.889  56.255 -54.741  1.00  0.00    -0.266 OA
HETATM    4  H   UNL     1     -41.736  56.498 -57.055  1.00  0.00     0.163 HD
ENDROOT
BRANCH   2   5
HETATM    5  C   UNL     1     -43.336  57.865 -56.977  1.00  0.00     0.217 C 
BRANCH   5   6
HETATM    6  C   UNL     1     -43.238  59.078 -56.066  1.00  0.00    -0.085 C 
BRANCH   6   7
HETATM    7  C   UNL     1     -43.154  60.118 -55.284  1.00  0.00    -0.078 C 
BRANCH   7   8
HETATM    8  C   UNL     1     -43.056  61.331 -54.373  1.00  0.00     0.269 C 
BRANCH   8   9
HETATM    9  O   UNL     1     -42.657  60.917 -53.073  1.00  0.00    -0.337 OA
BRANCH   9  10
HETATM   10  C   UNL     1     -43.442  59.975 -52.439  1.00  0.00     0.099 A 
HETATM   11  C   UNL     1     -43.074  58.665 -52.057  1.00  0.00     0.100 A 
HETATM   12  C   UNL     1     -44.061  57.879 -51.413  1.00  0.00    -0.005 A 
HETATM   13  N   UNL     1     -41.840  58.143 -52.277  1.00  0.00    -0.257 NA
HETATM   14  C   UNL     1     -43.740  56.572 -51.018  1.00  0.00     0.015 A 
HETATM   15  C   UNL     1     -45.346  58.386 -51.166  1.00  0.00     0.014 A 
HETATM   16  C   UNL     1     -42.473  56.060 -51.255  1.00  0.00     0.020 A 
HETATM   17  C   UNL     1     -41.564  56.880 -51.883  1.00  0.00     0.117 A 
HETATM   18  C   UNL     1     -45.682  59.678 -51.548  1.00  0.00     0.004 A 
HETATM   19  C   UNL     1     -44.732  60.468 -52.181  1.00  0.00     0.039 A 
ENDBRANCH   9  10
ENDBRANCH   8   9
ENDBRANCH   7   8
ENDBRANCH   6   7
ENDBRANCH   5   6
ENDBRANCH   2   5
BRANCH   1  20
HETATM   20  C   UNL     1     -41.911  55.048 -55.000  1.00  0.00     0.120 A 
HETATM   21  N   UNL     1     -40.632  55.047 -55.480  1.00  0.00    -0.272 N 
HETATM   22  N   UNL     1     -39.881  54.024 -55.045  1.00  0.00    -0.174 NA
HETATM   23  H   UNL     1     -40.220  55.726 -56.113  1.00  0.00     0.189 HD
HETATM   24  C   UNL     1     -40.710  53.298 -54.278  1.00  0.00     0.089 A 
HETATM   25  C   UNL     1     -41.988  53.921 -54.207  1.00  0.00     0.071 A 
BRANCH  24  26
HETATM   26  C   UNL     1     -40.281  52.048 -53.644  1.00  0.00    -0.006 A 
HETATM   27  C   UNL     1     -40.228  50.858 -54.385  1.00  0.00     0.014 A 
HETATM   28  C   UNL     1     -39.818  49.663 -53.788  1.00  0.00     0.001 A 
HETATM   29  C   UNL     1     -39.463  49.643 -52.441  1.00  0.00     0.000 A 
HETATM   30  C   UNL     1     -39.517  50.814 -51.690  1.00  0.00     0.001 A 
HETATM   31  C   UNL     1     -39.923  52.011 -52.288  1.00  0.00     0.014 A 
ENDBRANCH  24  26
ENDBRANCH   1  20
TORSDOF 8
ENDMDL
MODEL 7
REMARK VINA RESULT:      -7.5      2.634      7.672
REMARK  8 active torsions:
REMARK  status: ('A' for Active; 'I' for Inactive)
REMARK    1  A    between atoms: C_4  and  C_5 
REMARK    2  A    between atoms: C_9  and  C_10 
REMARK       I    between atoms: C_10  and  N_11 
REMARK    3  A    between atoms: N_11  and  C_12 
REMARK    4  A    between atoms: C_12  and  C_13 
REMARK    5  A    between atoms: C_13  and  C_14 
REMARK    6  A    between atoms: C_14  and  C_15 
REMARK    7  A    between atoms: C_15  and  O_16 
REMARK    8  A    between atoms: O_16  and  C_17 
ROOT
HETATM    1  C   UNL     1     -42.215  56.952 -53.110  1.00  0.00     0.270 C 
HETATM    2  N   UNL     1     -43.582  56.831 -53.081  1.00  0.00    -0.345 N 
HETATM    3  O   UNL     1     -41.632  58.017 -52.937  1.00  0.00    -0.266 OA
HETATM    4  H   UNL     1     -43.999  55.914 -53.070  1.00  0.00     0.163 HD
ENDROOT
BRANCH   2   5
HETATM    5  C   UNL     1     -44.440  57.961 -52.846  1.00  0.00     0.217 C 
BRANCH   5   6
HETATM    6  C   UNL     1     -44.722  58.691 -54.149  1.00  0.00    -0.085 C 
BRANCH   6   7
HETATM    7  C   UNL     1     -44.963  59.318 -55.265  1.00  0.00    -0.078 C 
BRANCH   7   8
HETATM    8  C   UNL     1     -45.246  60.050 -56.568  1.00  0.00     0.269 C 
BRANCH   8   9
HETATM    9  O   UNL     1     -44.520  59.435 -57.624  1.00  0.00    -0.337 OA
BRANCH   9  10
HETATM   10  C   UNL     1     -45.217  58.594 -58.468  1.00  0.00     0.099 A 
HETATM   11  C   UNL     1     -44.879  57.273 -58.838  1.00  0.00     0.100 A 
HETATM   12  C   UNL     1     -45.760  56.605 -59.724  1.00  0.00    -0.005 A 
HETATM   13  N   UNL     1     -43.770  56.633 -58.386  1.00  0.00    -0.257 NA
HETATM   14  C   UNL     1     -45.462  55.293 -60.120  1.00  0.00     0.015 A 
HETATM   15  C   UNL     1     -46.918  57.234 -60.209  1.00  0.00     0.014 A 
HETATM   16  C   UNL     1     -44.323  54.660 -59.646  1.00  0.00     0.020 A 
HETATM   17  C   UNL     1     -43.514  55.368 -58.787  1.00  0.00     0.117 A 
HETATM   18  C   UNL     1     -47.230  58.532 -59.827  1.00  0.00     0.004 A 
HETATM   19  C   UNL     1     -46.382  59.207 -58.959  1.00  0.00     0.039 A 
ENDBRANCH   9  10
ENDBRANCH   8   9
ENDBRANCH   7   8
ENDBRANCH   6   7
ENDBRANCH   5   6
ENDBRANCH   2   5
BRANCH   1  20
HETATM   20  C   UNL     1     -41.504  55.732 -53.377  1.00  0.00     0.120 A 
HETATM   21  N   UNL     1     -40.693  55.599 -54.469  1.00  0.00    -0.272 N 
HETATM   22  N   UNL     1     -40.114  54.394 -54.582  1.00  0.00    -0.174 NA
HETATM   23  H   UNL     1     -40.500  56.306 -55.172  1.00  0.00     0.189 HD
HETATM   24  C   UNL     1     -40.595  53.689 -53.545  1.00  0.00     0.089 A 
HETATM   25  C   UNL     1     -41.454  54.502 -52.753  1.00  0.00     0.071 A 
BRANCH  24  26
HETATM   26  C   UNL     1     -40.239  52.282 -53.335  1.00  0.00    -0.006 A 
HETATM   27  C   UNL     1     -39.825  51.837 -52.072  1.00  0.00     0.014 A 
HETATM   28  C   UNL     1     -39.486  50.497 -51.863  1.00  0.00     0.001 A 
HETATM   29  C   UNL     1     -39.551  49.589 -52.918  1.00  0.00     0.000 A 
HETATM   30  C   UNL     1     -39.954  50.018 -54.180  1.00  0.00     0.001 A 
HETATM   31  C   UNL     1     -40.297  51.358 -54.388  1.00  0.00     0.014 A 
ENDBRANCH  24  26
ENDBRANCH   1  20
TORSDOF 8
ENDMDL
MODEL 8
REMARK VINA RESULT:      -7.3      2.239      3.224
REMARK  8 active torsions:
REMARK  status: ('A' for Active; 'I' for Inactive)
REMARK    1  A    between atoms: C_4  and  C_5 
REMARK    2  A    between atoms: C_9  and  C_10 
REMARK       I    between atoms: C_10  and  N_11 
REMARK    3  A    between atoms: N_11  and  C_12 
REMARK    4  A    between atoms: C_12  and  C_13 
REMARK    5  A    between atoms: C_13  and  C_14 
REMARK    6  A    between atoms: C_14  and  C_15 
REMARK    7  A    between atoms: C_15  and  O_16 
REMARK    8  A    between atoms: O_16  and  C_17 
ROOT
HETATM    1  C   UNL     1     -43.988  57.713 -54.014  1.00  0.00     0.270 C 
HETATM    2  N   UNL     1     -43.531  58.074 -52.770  1.00  0.00    -0.345 N 
HETATM    3  O   UNL     1     -44.906  56.919 -54.186  1.00  0.00    -0.266 OA
HETATM    4  H   UNL     1     -42.888  58.845 -52.682  1.00  0.00     0.163 HD
ENDROOT
BRANCH   2   5
HETATM    5  C   UNL     1     -44.102  57.536 -51.565  1.00  0.00     0.217 C 
BRANCH   5   6
HETATM    6  C   UNL     1     -43.250  56.391 -51.042  1.00  0.00    -0.085 C 
BRANCH   6   7
HETATM    7  C   UNL     1     -42.519  55.409 -50.594  1.00  0.00    -0.078 C 
BRANCH   7   8
HETATM    8  C   UNL     1     -41.667  54.264 -50.071  1.00  0.00     0.269 C 
BRANCH   8   9
HETATM    9  O   UNL     1     -40.421  54.250 -50.755  1.00  0.00    -0.337 OA
BRANCH   9  10
HETATM   10  C   UNL     1     -40.347  53.520 -51.924  1.00  0.00     0.099 A 
HETATM   11  C   UNL     1     -40.062  52.142 -52.061  1.00  0.00     0.100 A 
HETATM   12  C   UNL     1     -40.044  51.615 -53.376  1.00  0.00    -0.005 A 
HETATM   13  N   UNL     1     -39.814  51.323 -51.007  1.00  0.00    -0.257 NA
HETATM   14  C   UNL     1     -39.763  50.253 -53.559  1.00  0.00     0.015 A 
HETATM   15  C   UNL     1     -40.299  52.430 -54.490  1.00  0.00     0.014 A 
HETATM   16  C   UNL     1     -39.512  49.437 -52.467  1.00  0.00     0.020 A 
HETATM   17  C   UNL     1     -39.548  50.015 -51.219  1.00  0.00     0.117 A 
HETATM   18  C   UNL     1     -40.579  53.781 -54.328  1.00  0.00     0.004 A 
HETATM   19  C   UNL     1     -40.604  54.320 -53.049  1.00  0.00     0.039 A 
ENDBRANCH   9  10
ENDBRANCH   8   9
ENDBRANCH   7   8
ENDBRANCH   6   7
ENDBRANCH   5   6
ENDBRANCH   2   5
BRANCH   1  20
HETATM   20  C   UNL     1     -43.297  58.327 -55.115  1.00  0.00     0.120 A 
HETATM   21  N   UNL     1     -42.284  59.222 -54.916  1.00  0.00    -0.272 N 
HETATM   22  N   UNL     1     -41.754  59.714 -56.046  1.00  0.00    -0.174 NA
HETATM   23  H   UNL     1     -41.914  59.533 -54.023  1.00  0.00     0.189 HD
HETATM   24  C   UNL     1     -42.473  59.152 -57.030  1.00  0.00     0.089 A 
HETATM   25  C   UNL     1     -43.438  58.258 -56.486  1.00  0.00     0.071 A 
BRANCH  24  26
HETATM   26  C   UNL     1     -42.238  59.473 -58.441  1.00  0.00    -0.006 A 
HETATM   27  C   UNL     1     -42.135  60.809 -58.856  1.00  0.00     0.014 A 
HETATM   28  C   UNL     1     -41.909  61.124 -60.199  1.00  0.00     0.001 A 
HETATM   29  C   UNL     1     -41.790  60.106 -61.143  1.00  0.00     0.000 A 
HETATM   30  C   UNL     1     -41.898  58.775 -60.747  1.00  0.00     0.001 A 
HETATM   31  C   UNL     1     -42.120  58.460 -59.403  1.00  0.00     0.014 A 
ENDBRANCH  24  26
ENDBRANCH   1  20
TORSDOF 8
ENDMDL
MODEL 9
REMARK VINA RESULT:      -7.2      2.648      6.681
REMARK  8 active torsions:
REMARK  status: ('A' for Active; 'I' for Inactive)
REMARK    1  A    between atoms: C_4  and  C_5 
REMARK    2  A    between atoms: C_9  and  C_10 
REMARK       I    between atoms: C_10  and  N_11 
REMARK    3  A    between atoms: N_11  and  C_12 
REMARK    4  A    between atoms: C_12  and  C_13 
REMARK    5  A    between atoms: C_13  and  C_14 
REMARK    6  A    between atoms: C_14  and  C_15 
REMARK    7  A    between atoms: C_15  and  O_16 
REMARK    8  A    between atoms: O_16  and  C_17 
ROOT
HETATM    1  C   UNL     1     -42.983  57.430 -56.113  1.00  0.00     0.270 C 
HETATM    2  N   UNL     1     -42.073  58.428 -55.866  1.00  0.00    -0.345 N 
HETATM    3  O   UNL     1     -44.035  57.615 -56.714  1.00  0.00    -0.266 OA
HETATM    4  H   UNL     1     -41.159  58.191 -55.513  1.00  0.00     0.163 HD
ENDROOT
BRANCH   2   5
HETATM    5  C   UNL     1     -42.295  59.782 -56.297  1.00  0.00     0.217 C 
BRANCH   5   6
HETATM    6  C   UNL     1     -42.788  60.631 -55.136  1.00  0.00    -0.085 C 
BRANCH   6   7
HETATM    7  C   UNL     1     -43.211  61.359 -54.141  1.00  0.00    -0.078 C 
BRANCH   7   8
HETATM    8  C   UNL     1     -43.705  62.208 -52.981  1.00  0.00     0.269 C 
BRANCH   8   9
HETATM    9  O   UNL     1     -43.312  61.608 -51.754  1.00  0.00    -0.337 OA
BRANCH   9  10
HETATM   10  C   UNL     1     -43.686  60.297 -51.539  1.00  0.00     0.099 A 
HETATM   11  C   UNL     1     -42.845  59.164 -51.463  1.00  0.00     0.100 A 
HETATM   12  C   UNL     1     -43.468  57.912 -51.232  1.00  0.00    -0.005 A 
HETATM   13  N   UNL     1     -41.496  59.226 -51.598  1.00  0.00    -0.257 NA
HETATM   14  C   UNL     1     -42.672  56.760 -51.152  1.00  0.00     0.015 A 
HETATM   15  C   UNL     1     -44.860  57.809 -51.085  1.00  0.00     0.014 A 
HETATM   16  C   UNL     1     -41.296  56.849 -51.293  1.00  0.00     0.020 A 
HETATM   17  C   UNL     1     -40.759  58.097 -51.514  1.00  0.00     0.117 A 
HETATM   18  C   UNL     1     -45.664  58.939 -51.160  1.00  0.00     0.004 A 
HETATM   19  C   UNL     1     -45.078  60.176 -51.385  1.00  0.00     0.039 A 
ENDBRANCH   9  10
ENDBRANCH   8   9
ENDBRANCH   7   8
ENDBRANCH   6   7
ENDBRANCH   5   6
ENDBRANCH   2   5
BRANCH   1  20
HETATM   20  C   UNL     1     -42.619  56.138 -55.599  1.00  0.00     0.120 A 
HETATM   21  N   UNL     1     -43.406  55.039 -55.799  1.00  0.00    -0.272 N 
HETATM   22  N   UNL     1     -42.934  53.913 -55.242  1.00  0.00    -0.174 NA
HETATM   23  H   UNL     1     -44.282  55.004 -56.313  1.00  0.00     0.189 HD
HETATM   24  C   UNL     1     -41.810  54.293 -54.614  1.00  0.00     0.089 A 
HETATM   25  C   UNL     1     -41.567  55.678 -54.833  1.00  0.00     0.071 A 
BRANCH  24  26
HETATM   26  C   UNL     1     -41.008  53.350 -53.829  1.00  0.00    -0.006 A 
HETATM   27  C   UNL     1     -40.802  53.565 -52.458  1.00  0.00     0.014 A 
HETATM   28  C   UNL     1     -40.040  52.670 -51.702  1.00  0.00     0.001 A 
HETATM   29  C   UNL     1     -39.469  51.554 -52.310  1.00  0.00     0.000 A 
HETATM   30  C   UNL     1     -39.658  51.331 -53.671  1.00  0.00     0.001 A 
HETATM   31  C   UNL     1     -40.424  52.224 -54.427  1.00  0.00     0.014 A 
ENDBRANCH  24  26
ENDBRANCH   1  20
TORSDOF 8
ENDMDL
MODEL 10
REMARK VINA RESULT:      -7.2      2.359      7.564
REMARK  8 active torsions:
REMARK  status: ('A' for Active; 'I' for Inactive)
REMARK    1  A    between atoms: C_4  and  C_5 
REMARK    2  A    between atoms: C_9  and  C_10 
REMARK       I    between atoms: C_10  and  N_11 
REMARK    3  A    between atoms: N_11  and  C_12 
REMARK    4  A    between atoms: C_12  and  C_13 
REMARK    5  A    between atoms: C_13  and  C_14 
REMARK    6  A    between atoms: C_14  and  C_15 
REMARK    7  A    between atoms: C_15  and  O_16 
REMARK    8  A    between atoms: O_16  and  C_17 
ROOT
HETATM    1  C   UNL     1     -42.074  57.905 -52.722  1.00  0.00     0.270 C 
HETATM    2  N   UNL     1     -41.474  58.501 -53.803  1.00  0.00    -0.345 N 
HETATM    3  O   UNL     1     -42.907  58.469 -52.022  1.00  0.00    -0.266 OA
HETATM    4  H   UNL     1     -40.921  57.943 -54.435  1.00  0.00     0.163 HD
ENDROOT
BRANCH   2   5
HETATM    5  C   UNL     1     -41.783  59.850 -54.195  1.00  0.00     0.217 C 
BRANCH   5   6
HETATM    6  C   UNL     1     -42.622  59.853 -55.463  1.00  0.00    -0.085 C 
BRANCH   6   7
HETATM    7  C   UNL     1     -43.341  59.855 -56.550  1.00  0.00    -0.078 C 
BRANCH   7   8
HETATM    8  C   UNL     1     -44.180  59.857 -57.818  1.00  0.00     0.269 C 
BRANCH   8   9
HETATM    9  O   UNL     1     -43.420  59.312 -58.889  1.00  0.00    -0.337 OA
BRANCH   9  10
HETATM   10  C   UNL     1     -43.746  58.040 -59.315  1.00  0.00     0.099 A 
HETATM   11  C   UNL     1     -44.967  57.610 -59.882  1.00  0.00     0.100 A 
HETATM   12  C   UNL     1     -45.064  56.243 -60.245  1.00  0.00    -0.005 A 
HETATM   13  N   UNL     1     -46.025  58.435 -60.091  1.00  0.00    -0.257 NA
HETATM   14  C   UNL     1     -46.258  55.772 -60.809  1.00  0.00     0.015 A 
HETATM   15  C   UNL     1     -43.990  55.361 -60.047  1.00  0.00     0.014 A 
HETATM   16  C   UNL     1     -47.325  56.634 -61.011  1.00  0.00     0.020 A 
HETATM   17  C   UNL     1     -47.160  57.948 -60.638  1.00  0.00     0.117 A 
HETATM   18  C   UNL     1     -42.800  55.809 -59.491  1.00  0.00     0.004 A 
HETATM   19  C   UNL     1     -42.680  57.144 -59.128  1.00  0.00     0.039 A 
ENDBRANCH   9  10
ENDBRANCH   8   9
ENDBRANCH   7   8
ENDBRANCH   6   7
ENDBRANCH   5   6
ENDBRANCH   2   5
BRANCH   1  20
HETATM   20  C   UNL     1     -41.641  56.561 -52.453  1.00  0.00     0.120 A 
HETATM   21  N   UNL     1     -41.344  56.143 -51.187  1.00  0.00    -0.272 N 
HETATM   22  N   UNL     1     -40.940  54.866 -51.108  1.00  0.00    -0.174 NA
HETATM   23  H   UNL     1     -41.402  56.694 -50.336  1.00  0.00     0.189 HD
HETATM   24  C   UNL     1     -40.930  54.436 -52.380  1.00  0.00     0.089 A 
HETATM   25  C   UNL     1     -41.384  55.464 -53.252  1.00  0.00     0.071 A 
BRANCH  24  26
HETATM   26  C   UNL     1     -40.491  53.082 -52.734  1.00  0.00    -0.006 A 
HETATM   27  C   UNL     1     -40.712  52.581 -54.025  1.00  0.00     0.014 A 
HETATM   28  C   UNL     1     -40.295  51.293 -54.372  1.00  0.00     0.001 A 
HETATM   29  C   UNL     1     -39.659  50.488 -53.428  1.00  0.00     0.000 A 
HETATM   30  C   UNL     1     -39.440  50.970 -52.140  1.00  0.00     0.001 A 
HETATM   31  C   UNL     1     -39.854  52.260 -51.794  1.00  0.00     0.014 A 
ENDBRANCH  24  26
ENDBRANCH   1  20
TORSDOF 8
ENDMDL
