MODEL 1
REMARK VINA RESULT:      -8.3      0.000      0.000
REMARK  6 active torsions:
REMARK  status: ('A' for Active; 'I' for Inactive)
REMARK    1  A    between atoms: C_2  and  C_3 
REMARK    2  A    between atoms: C_4  and  O_5 
REMARK    3  A    between atoms: O_5  and  C_6 
REMARK    4  A    between atoms: C_6  and  C_7 
REMARK       I    between atoms: C_7  and  N_8 
REMARK    5  A    between atoms: N_8  and  N_9 
REMARK    6  A    between atoms: C_10  and  C_11 
ROOT
HETATM    1  C   UNL     1     -40.880  54.000 -49.353  1.00  0.00     0.261 C 
HETATM    2  N   UNL     1     -41.128  54.952 -50.334  1.00  0.00    -0.246 N 
HETATM    3  O   UNL     1     -40.990  54.148 -48.139  1.00  0.00    -0.269 OA
HETATM    4  H   UNL     1     -40.995  54.671 -51.304  1.00  0.00     0.192 HD
ENDROOT
BRANCH   2   5
HETATM    5  N   UNL     1     -41.496  56.262 -50.186  1.00  0.00    -0.184 NA
HETATM    6  C   UNL     1     -41.358  57.104 -51.158  1.00  0.00     0.152 C 
BRANCH   6   7
HETATM    7  C   UNL     1     -41.772  58.481 -50.952  1.00  0.00     0.011 A 
HETATM    8  C   UNL     1     -43.016  59.078 -51.341  1.00  0.00     0.004 A 
HETATM    9  C   UNL     1     -42.972  60.421 -50.961  1.00  0.00     0.043 A 
HETATM   10  C   UNL     1     -44.175  58.605 -51.993  1.00  0.00     0.014 A 
HETATM   11  C   UNL     1     -44.024  61.313 -51.201  1.00  0.00     0.030 A 
HETATM   12  N   UNL     1     -41.757  60.631 -50.352  1.00  0.00    -0.364 N 
HETATM   13  C   UNL     1     -45.159  60.818 -51.852  1.00  0.00     0.002 A 
HETATM   14  C   UNL     1     -45.236  59.483 -52.241  1.00  0.00     0.001 A 
HETATM   15  H   UNL     1     -41.449  61.516 -49.974  1.00  0.00     0.165 HD
HETATM   16  C   UNL     1     -41.027  59.474 -50.343  1.00  0.00     0.102 A 
ENDBRANCH   6   7
ENDBRANCH   2   5
BRANCH   1  17
HETATM   17  C   UNL     1     -40.346  52.697 -49.948  1.00  0.00     0.280 C 
BRANCH  17  18
HETATM   18  O   UNL     1     -39.654  52.924 -51.174  1.00  0.00    -0.341 OA
BRANCH  18  19
HETATM   19  C   UNL     1     -39.758  51.911 -52.094  1.00  0.00     0.076 A 
HETATM   20  C   UNL     1     -40.228  52.249 -53.379  1.00  0.00    -0.021 A 
HETATM   21  C   UNL     1     -40.303  51.230 -54.346  1.00  0.00     0.010 A 
HETATM   22  C   UNL     1     -39.971  49.911 -54.031  1.00  0.00     0.001 A 
HETATM   23  C   UNL     1     -39.564  49.584 -52.742  1.00  0.00     0.003 A 
HETATM   24  C   UNL     1     -39.463  50.581 -51.771  1.00  0.00     0.037 A 
BRANCH  20  25
HETATM   25  C   UNL     1     -40.598  53.688 -53.715  1.00  0.00     0.013 C 
HETATM   26  C   UNL     1     -42.090  54.008 -53.561  1.00  0.00     0.015 C 
HETATM   27  C   UNL     1     -40.121  54.043 -55.125  1.00  0.00     0.015 C 
ENDBRANCH  20  25
ENDBRANCH  18  19
ENDBRANCH  17  18
ENDBRANCH   1  17
TORSDOF 6
ENDMDL
MODEL 2
REMARK VINA RESULT:      -8.0      5.240      8.887
REMARK  6 active torsions:
REMARK  status: ('A' for Active; 'I' for Inactive)
REMARK    1  A    between atoms: C_2  and  C_3 
REMARK    2  A    between atoms: C_4  and  O_5 
REMARK    3  A    between atoms: O_5  and  C_6 
REMARK    4  A    between atoms: C_6  and  C_7 
REMARK       I    between atoms: C_7  and  N_8 
REMARK    5  A    between atoms: N_8  and  N_9 
REMARK    6  A    between atoms: C_10  and  C_11 
ROOT
HETATM    1  C   UNL     1     -42.098  57.318 -56.219  1.00  0.00     0.261 C 
HETATM    2  N   UNL     1     -41.703  55.995 -56.064  1.00  0.00    -0.246 N 
HETATM    3  O   UNL     1     -42.189  58.166 -55.336  1.00  0.00    -0.269 OA
HETATM    4  H   UNL     1     -41.673  55.414 -56.900  1.00  0.00     0.192 HD
ENDROOT
BRANCH   2   5
HETATM    5  N   UNL     1     -41.379  55.323 -54.916  1.00  0.00    -0.184 NA
HETATM    6  C   UNL     1     -40.866  54.137 -54.963  1.00  0.00     0.152 C 
BRANCH   6   7
HETATM    7  C   UNL     1     -40.531  53.472 -53.716  1.00  0.00     0.011 A 
HETATM    8  C   UNL     1     -40.187  52.092 -53.536  1.00  0.00     0.004 A 
HETATM    9  C   UNL     1     -39.963  51.892 -52.171  1.00  0.00     0.043 A 
HETATM   10  C   UNL     1     -40.054  50.988 -54.405  1.00  0.00     0.014 A 
HETATM   11  C   UNL     1     -39.618  50.646 -51.634  1.00  0.00     0.030 A 
HETATM   12  N   UNL     1     -40.151  53.103 -51.547  1.00  0.00    -0.364 N 
HETATM   13  C   UNL     1     -39.496  49.569 -52.517  1.00  0.00     0.002 A 
HETATM   14  C   UNL     1     -39.709  49.735 -53.884  1.00  0.00     0.001 A 
HETATM   15  H   UNL     1     -40.054  53.258 -50.554  1.00  0.00     0.165 HD
HETATM   16  C   UNL     1     -40.494  54.059 -52.464  1.00  0.00     0.102 A 
ENDBRANCH   6   7
ENDBRANCH   2   5
BRANCH   1  17
HETATM   17  C   UNL     1     -42.513  57.623 -57.657  1.00  0.00     0.280 C 
BRANCH  17  18
HETATM   18  O   UNL     1     -43.930  57.612 -57.808  1.00  0.00    -0.341 OA
BRANCH  18  19
HETATM   19  C   UNL     1     -44.405  56.752 -58.767  1.00  0.00     0.076 A 
HETATM   20  C   UNL     1     -45.648  57.060 -59.356  1.00  0.00    -0.021 A 
HETATM   21  C   UNL     1     -46.130  56.211 -60.369  1.00  0.00     0.010 A 
HETATM   22  C   UNL     1     -45.425  55.067 -60.746  1.00  0.00     0.001 A 
HETATM   23  C   UNL     1     -44.229  54.745 -60.114  1.00  0.00     0.003 A 
HETATM   24  C   UNL     1     -43.721  55.583 -59.121  1.00  0.00     0.037 A 
BRANCH  20  25
HETATM   25  C   UNL     1     -46.417  58.306 -58.935  1.00  0.00     0.013 C 
HETATM   26  C   UNL     1     -47.297  58.114 -57.693  1.00  0.00     0.015 C 
HETATM   27  C   UNL     1     -47.253  58.834 -60.102  1.00  0.00     0.015 C 
ENDBRANCH  20  25
ENDBRANCH  18  19
ENDBRANCH  17  18
ENDBRANCH   1  17
TORSDOF 6
ENDMDL
MODEL 3
REMARK VINA RESULT:      -7.7      5.103      8.747
REMARK  6 active torsions:
REMARK  status: ('A' for Active; 'I' for Inactive)
REMARK    1  A    between atoms: C_2  and  C_3 
REMARK    2  A    between atoms: C_4  and  O_5 
REMARK    3  A    between atoms: O_5  and  C_6 
REMARK    4  A    between atoms: C_6  and  C_7 
REMARK       I    between atoms: C_7  and  N_8 
REMARK    5  A    between atoms: N_8  and  N_9 
REMARK    6  A    between atoms: C_10  and  C_11 
ROOT
HETATM    1  C   UNL     1     -41.332  58.616 -54.242  1.00  0.00     0.261 C 
HETATM    2  N   UNL     1     -41.574  57.249 -54.270  1.00  0.00    -0.246 N 
HETATM    3  O   UNL     1     -40.512  59.204 -53.541  1.00  0.00    -0.269 OA
HETATM    4  H   UNL     1     -42.287  56.913 -54.915  1.00  0.00     0.192 HD
ENDROOT
BRANCH   2   5
HETATM    5  N   UNL     1     -41.010  56.260 -53.510  1.00  0.00    -0.184 NA
HETATM    6  C   UNL     1     -41.573  55.100 -53.406  1.00  0.00     0.152 C 
BRANCH   6   7
HETATM    7  C   UNL     1     -40.928  54.083 -52.593  1.00  0.00     0.011 A 
HETATM    8  C   UNL     1     -40.521  52.773 -53.009  1.00  0.00     0.004 A 
HETATM    9  C   UNL     1     -39.965  52.136 -51.897  1.00  0.00     0.043 A 
HETATM   10  C   UNL     1     -40.583  52.062 -54.226  1.00  0.00     0.014 A 
HETATM   11  C   UNL     1     -39.471  50.826 -51.941  1.00  0.00     0.030 A 
HETATM   12  N   UNL     1     -40.018  53.026 -50.850  1.00  0.00    -0.364 N 
HETATM   13  C   UNL     1     -39.549  50.144 -53.158  1.00  0.00     0.002 A 
HETATM   14  C   UNL     1     -40.094  50.751 -54.287  1.00  0.00     0.001 A 
HETATM   15  H   UNL     1     -39.683  52.835 -49.916  1.00  0.00     0.165 HD
HETATM   16  C   UNL     1     -40.596  54.198 -51.255  1.00  0.00     0.102 A 
ENDBRANCH   6   7
ENDBRANCH   2   5
BRANCH   1  17
HETATM   17  C   UNL     1     -42.288  59.382 -55.154  1.00  0.00     0.280 C 
BRANCH  17  18
HETATM   18  O   UNL     1     -41.587  60.095 -56.171  1.00  0.00    -0.341 OA
BRANCH  18  19
HETATM   19  C   UNL     1     -41.825  59.663 -57.451  1.00  0.00     0.076 A 
HETATM   20  C   UNL     1     -41.733  60.617 -58.484  1.00  0.00    -0.021 A 
HETATM   21  C   UNL     1     -41.934  60.184 -59.807  1.00  0.00     0.010 A 
HETATM   22  C   UNL     1     -42.267  58.857 -60.088  1.00  0.00     0.001 A 
HETATM   23  C   UNL     1     -42.411  57.941 -59.052  1.00  0.00     0.003 A 
HETATM   24  C   UNL     1     -42.197  58.343 -57.734  1.00  0.00     0.037 A 
BRANCH  20  25
HETATM   25  C   UNL     1     -41.377  62.065 -58.172  1.00  0.00     0.013 C 
HETATM   26  C   UNL     1     -42.488  63.072 -58.500  1.00  0.00     0.015 C 
HETATM   27  C   UNL     1     -40.078  62.459 -58.879  1.00  0.00     0.015 C 
ENDBRANCH  20  25
ENDBRANCH  18  19
ENDBRANCH  17  18
ENDBRANCH   1  17
TORSDOF 6
ENDMDL
MODEL 4
REMARK VINA RESULT:      -7.7      4.533      8.561
REMARK  6 active torsions:
REMARK  status: ('A' for Active; 'I' for Inactive)
REMARK    1  A    between atoms: C_2  and  C_3 
REMARK    2  A    between atoms: C_4  and  O_5 
REMARK    3  A    between atoms: O_5  and  C_6 
REMARK    4  A    between atoms: C_6  and  C_7 
REMARK       I    between atoms: C_7  and  N_8 
REMARK    5  A    between atoms: N_8  and  N_9 
REMARK    6  A    between atoms: C_10  and  C_11 
ROOT
HETATM    1  C   UNL     1     -43.423  57.007 -54.406  1.00  0.00     0.261 C 
HETATM    2  N   UNL     1     -42.137  56.754 -53.945  1.00  0.00    -0.246 N 
HETATM    3  O   UNL     1     -44.438  56.368 -54.143  1.00  0.00    -0.269 OA
HETATM    4  H   UNL     1     -41.398  57.383 -54.251  1.00  0.00     0.192 HD
ENDROOT
BRANCH   2   5
HETATM    5  N   UNL     1     -41.695  55.730 -53.151  1.00  0.00    -0.184 NA
HETATM    6  C   UNL     1     -41.013  54.751 -53.650  1.00  0.00     0.152 C 
BRANCH   6   7
HETATM    7  C   UNL     1     -40.559  53.693 -52.762  1.00  0.00     0.011 A 
HETATM    8  C   UNL     1     -40.247  52.340 -53.117  1.00  0.00     0.004 A 
HETATM    9  C   UNL     1     -39.873  51.677 -51.946  1.00  0.00     0.043 A 
HETATM   10  C   UNL     1     -40.259  51.610 -54.325  1.00  0.00     0.014 A 
HETATM   11  C   UNL     1     -39.513  50.324 -51.921  1.00  0.00     0.030 A 
HETATM   12  N   UNL     1     -39.940  52.592 -50.922  1.00  0.00    -0.364 N 
HETATM   13  C   UNL     1     -39.537  49.624 -53.131  1.00  0.00     0.002 A 
HETATM   14  C   UNL     1     -39.902  50.256 -54.318  1.00  0.00     0.001 A 
HETATM   15  H   UNL     1     -39.722  52.391 -49.956  1.00  0.00     0.165 HD
HETATM   16  C   UNL     1     -40.353  53.806 -51.400  1.00  0.00     0.102 A 
ENDBRANCH   6   7
ENDBRANCH   2   5
BRANCH   1  17
HETATM   17  C   UNL     1     -43.454  58.172 -55.393  1.00  0.00     0.280 C 
BRANCH  17  18
HETATM   18  O   UNL     1     -43.374  57.719 -56.743  1.00  0.00    -0.341 OA
BRANCH  18  19
HETATM   19  C   UNL     1     -44.548  57.789 -57.448  1.00  0.00     0.076 A 
HETATM   20  C   UNL     1     -44.630  57.048 -58.644  1.00  0.00    -0.021 A 
HETATM   21  C   UNL     1     -45.841  57.076 -59.360  1.00  0.00     0.010 A 
HETATM   22  C   UNL     1     -46.916  57.855 -58.928  1.00  0.00     0.001 A 
HETATM   23  C   UNL     1     -46.798  58.626 -57.776  1.00  0.00     0.003 A 
HETATM   24  C   UNL     1     -45.615  58.599 -57.040  1.00  0.00     0.037 A 
BRANCH  20  25
HETATM   25  C   UNL     1     -43.452  56.206 -59.116  1.00  0.00     0.013 C 
HETATM   26  C   UNL     1     -42.512  56.927 -60.092  1.00  0.00     0.015 C 
HETATM   27  C   UNL     1     -43.947  54.893 -59.728  1.00  0.00     0.015 C 
ENDBRANCH  20  25
ENDBRANCH  18  19
ENDBRANCH  17  18
ENDBRANCH   1  17
TORSDOF 6
ENDMDL
MODEL 5
REMARK VINA RESULT:      -7.7      5.052      8.717
REMARK  6 active torsions:
REMARK  status: ('A' for Active; 'I' for Inactive)
REMARK    1  A    between atoms: C_2  and  C_3 
REMARK    2  A    between atoms: C_4  and  O_5 
REMARK    3  A    between atoms: O_5  and  C_6 
REMARK    4  A    between atoms: C_6  and  C_7 
REMARK       I    between atoms: C_7  and  N_8 
REMARK    5  A    between atoms: N_8  and  N_9 
REMARK    6  A    between atoms: C_10  and  C_11 
ROOT
HETATM    1  C   UNL     1     -43.718  56.697 -54.745  1.00  0.00     0.261 C 
HETATM    2  N   UNL     1     -42.910  55.586 -54.950  1.00  0.00    -0.246 N 
HETATM    3  O   UNL     1     -44.091  57.146 -53.665  1.00  0.00    -0.269 OA
HETATM    4  H   UNL     1     -42.683  55.343 -55.913  1.00  0.00     0.192 HD
ENDROOT
BRANCH   2   5
HETATM    5  N   UNL     1     -42.392  54.718 -54.027  1.00  0.00    -0.184 NA
HETATM    6  C   UNL     1     -41.122  54.476 -53.984  1.00  0.00     0.152 C 
BRANCH   6   7
HETATM    7  C   UNL     1     -40.622  53.554 -52.978  1.00  0.00     0.011 A 
HETATM    8  C   UNL     1     -40.277  52.175 -53.163  1.00  0.00     0.004 A 
HETATM    9  C   UNL     1     -39.863  51.677 -51.926  1.00  0.00     0.043 A 
HETATM   10  C   UNL     1     -40.288  51.296 -54.268  1.00  0.00     0.014 A 
HETATM   11  C   UNL     1     -39.463  50.349 -51.736  1.00  0.00     0.030 A 
HETATM   12  N   UNL     1     -39.940  52.715 -51.026  1.00  0.00    -0.364 N 
HETATM   13  C   UNL     1     -39.487  49.500 -52.846  1.00  0.00     0.002 A 
HETATM   14  C   UNL     1     -39.891  49.964 -54.096  1.00  0.00     0.001 A 
HETATM   15  H   UNL     1     -39.699  52.644 -50.047  1.00  0.00     0.165 HD
HETATM   16  C   UNL     1     -40.396  53.846 -51.646  1.00  0.00     0.102 A 
ENDBRANCH   6   7
ENDBRANCH   2   5
BRANCH   1  17
HETATM   17  C   UNL     1     -44.198  57.301 -56.063  1.00  0.00     0.280 C 
BRANCH  17  18
HETATM   18  O   UNL     1     -43.570  56.684 -57.185  1.00  0.00    -0.341 OA
BRANCH  18  19
HETATM   19  C   UNL     1     -43.293  57.527 -58.231  1.00  0.00     0.076 A 
HETATM   20  C   UNL     1     -43.995  57.317 -59.435  1.00  0.00    -0.021 A 
HETATM   21  C   UNL     1     -43.754  58.197 -60.506  1.00  0.00     0.010 A 
HETATM   22  C   UNL     1     -42.808  59.219 -60.400  1.00  0.00     0.001 A 
HETATM   23  C   UNL     1     -42.082  59.376 -59.224  1.00  0.00     0.003 A 
HETATM   24  C   UNL     1     -42.318  58.528 -58.142  1.00  0.00     0.037 A 
BRANCH  20  25
HETATM   25  C   UNL     1     -45.020  56.196 -59.549  1.00  0.00     0.013 C 
HETATM   26  C   UNL     1     -44.723  55.181 -60.660  1.00  0.00     0.015 C 
HETATM   27  C   UNL     1     -46.426  56.776 -59.722  1.00  0.00     0.015 C 
ENDBRANCH  20  25
ENDBRANCH  18  19
ENDBRANCH  17  18
ENDBRANCH   1  17
TORSDOF 6
ENDMDL
MODEL 6
REMARK VINA RESULT:      -7.5      5.327      6.487
REMARK  6 active torsions:
REMARK  status: ('A' for Active; 'I' for Inactive)
REMARK    1  A    between atoms: C_2  and  C_3 
REMARK    2  A    between atoms: C_4  and  O_5 
REMARK    3  A    between atoms: O_5  and  C_6 
REMARK    4  A    between atoms: C_6  and  C_7 
REMARK       I    between atoms: C_7  and  N_8 
REMARK    5  A    between atoms: N_8  and  N_9 
REMARK    6  A    between atoms: C_10  and  C_11 
ROOT
HETATM    1  C   UNL     1     -43.828  56.304 -54.183  1.00  0.00     0.261 C 
HETATM    2  N   UNL     1     -43.126  55.734 -55.237  1.00  0.00    -0.246 N 
HETATM    3  O   UNL     1     -44.561  57.288 -54.233  1.00  0.00    -0.269 OA
HETATM    4  H   UNL     1     -42.563  54.911 -55.034  1.00  0.00     0.192 HD
ENDROOT
BRANCH   2   5
HETATM    5  N   UNL     1     -43.042  56.151 -56.538  1.00  0.00    -0.184 NA
HETATM    6  C   UNL     1     -42.484  57.278 -56.839  1.00  0.00     0.152 C 
BRANCH   6   7
HETATM    7  C   UNL     1     -42.413  57.669 -58.237  1.00  0.00     0.011 A 
HETATM    8  C   UNL     1     -42.062  58.958 -58.758  1.00  0.00     0.004 A 
HETATM    9  C   UNL     1     -42.144  58.882 -60.151  1.00  0.00     0.043 A 
HETATM   10  C   UNL     1     -41.692  60.189 -58.176  1.00  0.00     0.014 A 
HETATM   11  C   UNL     1     -41.878  59.972 -60.987  1.00  0.00     0.030 A 
HETATM   12  N   UNL     1     -42.516  57.596 -60.465  1.00  0.00    -0.364 N 
HETATM   13  C   UNL     1     -41.518  61.181 -60.384  1.00  0.00     0.002 A 
HETATM   14  C   UNL     1     -41.423  61.290 -58.998  1.00  0.00     0.001 A 
HETATM   15  H   UNL     1     -42.652  57.251 -61.406  1.00  0.00     0.165 HD
HETATM   16  C   UNL     1     -42.682  56.859 -59.325  1.00  0.00     0.102 A 
ENDBRANCH   6   7
ENDBRANCH   2   5
BRANCH   1  17
HETATM   17  C   UNL     1     -43.529  55.606 -52.857  1.00  0.00     0.280 C 
BRANCH  17  18
HETATM   18  O   UNL     1     -42.960  54.315 -53.060  1.00  0.00    -0.341 OA
BRANCH  18  19
HETATM   19  C   UNL     1     -41.988  53.961 -52.158  1.00  0.00     0.076 A 
HETATM   20  C   UNL     1     -40.921  53.171 -52.632  1.00  0.00    -0.021 A 
HETATM   21  C   UNL     1     -39.895  52.833 -51.730  1.00  0.00     0.010 A 
HETATM   22  C   UNL     1     -39.955  53.223 -50.391  1.00  0.00     0.001 A 
HETATM   23  C   UNL     1     -41.044  53.953 -49.926  1.00  0.00     0.003 A 
HETATM   24  C   UNL     1     -42.063  54.316 -50.806  1.00  0.00     0.037 A 
BRANCH  20  25
HETATM   25  C   UNL     1     -40.864  52.741 -54.092  1.00  0.00     0.013 C 
HETATM   26  C   UNL     1     -40.279  51.340 -54.314  1.00  0.00     0.015 C 
HETATM   27  C   UNL     1     -40.098  53.774 -54.922  1.00  0.00     0.015 C 
ENDBRANCH  20  25
ENDBRANCH  18  19
ENDBRANCH  17  18
ENDBRANCH   1  17
TORSDOF 6
ENDMDL
MODEL 7
REMARK VINA RESULT:      -7.3      5.462      6.534
REMARK  6 active torsions:
REMARK  status: ('A' for Active; 'I' for Inactive)
REMARK    1  A    between atoms: C_2  and  C_3 
REMARK    2  A    between atoms: C_4  and  O_5 
REMARK    3  A    between atoms: O_5  and  C_6 
REMARK    4  A    between atoms: C_6  and  C_7 
REMARK       I    between atoms: C_7  and  N_8 
REMARK    5  A    between atoms: N_8  and  N_9 
REMARK    6  A    between atoms: C_10  and  C_11 
ROOT
HETATM    1  C   UNL     1     -43.731  55.808 -54.473  1.00  0.00     0.261 C 
HETATM    2  N   UNL     1     -43.361  55.727 -55.810  1.00  0.00    -0.246 N 
HETATM    3  O   UNL     1     -44.360  56.716 -53.938  1.00  0.00    -0.269 OA
HETATM    4  H   UNL     1     -42.843  54.902 -56.103  1.00  0.00     0.192 HD
ENDROOT
BRANCH   2   5
HETATM    5  N   UNL     1     -43.559  56.638 -56.813  1.00  0.00    -0.184 NA
HETATM    6  C   UNL     1     -42.955  56.515 -57.949  1.00  0.00     0.152 C 
BRANCH   6   7
HETATM    7  C   UNL     1     -43.207  57.504 -58.984  1.00  0.00     0.011 A 
HETATM    8  C   UNL     1     -42.674  58.833 -59.059  1.00  0.00     0.004 A 
HETATM    9  C   UNL     1     -43.200  59.430 -60.207  1.00  0.00     0.043 A 
HETATM   10  C   UNL     1     -41.800  59.592 -58.251  1.00  0.00     0.014 A 
HETATM   11  C   UNL     1     -42.899  60.744 -60.586  1.00  0.00     0.030 A 
HETATM   12  N   UNL     1     -44.009  58.498 -60.815  1.00  0.00    -0.364 N 
HETATM   13  C   UNL     1     -42.034  61.473 -59.765  1.00  0.00     0.002 A 
HETATM   14  C   UNL     1     -41.489  60.907 -58.614  1.00  0.00     0.001 A 
HETATM   15  H   UNL     1     -44.522  58.654 -61.671  1.00  0.00     0.165 HD
HETATM   16  C   UNL     1     -44.022  57.338 -60.088  1.00  0.00     0.102 A 
ENDBRANCH   6   7
ENDBRANCH   2   5
BRANCH   1  17
HETATM   17  C   UNL     1     -43.183  54.637 -53.660  1.00  0.00     0.280 C 
BRANCH  17  18
HETATM   18  O   UNL     1     -41.814  54.835 -53.311  1.00  0.00    -0.341 OA
BRANCH  18  19
HETATM   19  C   UNL     1     -41.080  53.685 -53.170  1.00  0.00     0.076 A 
HETATM   20  C   UNL     1     -40.504  53.434 -51.908  1.00  0.00    -0.021 A 
HETATM   21  C   UNL     1     -39.781  52.240 -51.734  1.00  0.00     0.010 A 
HETATM   22  C   UNL     1     -39.593  51.351 -52.794  1.00  0.00     0.001 A 
HETATM   23  C   UNL     1     -40.119  51.641 -54.048  1.00  0.00     0.003 A 
HETATM   24  C   UNL     1     -40.856  52.809 -54.239  1.00  0.00     0.037 A 
BRANCH  20  25
HETATM   25  C   UNL     1     -40.704  54.412 -50.757  1.00  0.00     0.013 C 
HETATM   26  C   UNL     1     -39.605  54.361 -49.688  1.00  0.00     0.015 C 
HETATM   27  C   UNL     1     -42.078  54.205 -50.117  1.00  0.00     0.015 C 
ENDBRANCH  20  25
ENDBRANCH  18  19
ENDBRANCH  17  18
ENDBRANCH   1  17
TORSDOF 6
ENDMDL
MODEL 8
REMARK VINA RESULT:      -7.2      3.821      7.825
REMARK  6 active torsions:
REMARK  status: ('A' for Active; 'I' for Inactive)
REMARK    1  A    between atoms: C_2  and  C_3 
REMARK    2  A    between atoms: C_4  and  O_5 
REMARK    3  A    between atoms: O_5  and  C_6 
REMARK    4  A    between atoms: C_6  and  C_7 
REMARK       I    between atoms: C_7  and  N_8 
REMARK    5  A    between atoms: N_8  and  N_9 
REMARK    6  A    between atoms: C_10  and  C_11 
ROOT
HETATM    1  C   UNL     1     -44.023  57.368 -52.882  1.00  0.00     0.261 C 
HETATM    2  N   UNL     1     -43.088  56.499 -53.430  1.00  0.00    -0.246 N 
HETATM    3  O   UNL     1     -44.516  57.307 -51.759  1.00  0.00    -0.269 OA
HETATM    4  H   UNL     1     -42.771  56.690 -54.378  1.00  0.00     0.192 HD
ENDROOT
BRANCH   2   5
HETATM    5  N   UNL     1     -42.545  55.367 -52.884  1.00  0.00    -0.184 NA
HETATM    6  C   UNL     1     -41.340  55.370 -52.414  1.00  0.00     0.152 C 
BRANCH   6   7
HETATM    7  C   UNL     1     -40.814  54.145 -51.837  1.00  0.00     0.011 A 
HETATM    8  C   UNL     1     -40.451  52.946 -52.535  1.00  0.00     0.004 A 
HETATM    9  C   UNL     1     -40.014  52.023 -51.582  1.00  0.00     0.043 A 
HETATM   10  C   UNL     1     -40.464  52.553 -53.890  1.00  0.00     0.014 A 
HETATM   11  C   UNL     1     -39.593  50.730 -51.914  1.00  0.00     0.030 A 
HETATM   12  N   UNL     1     -40.094  52.639 -50.354  1.00  0.00    -0.364 N 
HETATM   13  C   UNL     1     -39.619  50.366 -53.263  1.00  0.00     0.002 A 
HETATM   14  C   UNL     1     -40.046  51.263 -54.240  1.00  0.00     0.001 A 
HETATM   15  H   UNL     1     -39.839  52.207 -49.478  1.00  0.00     0.165 HD
HETATM   16  C   UNL     1     -40.575  53.913 -50.495  1.00  0.00     0.102 A 
ENDBRANCH   6   7
ENDBRANCH   2   5
BRANCH   1  17
HETATM   17  C   UNL     1     -44.474  58.426 -53.888  1.00  0.00     0.280 C 
BRANCH  17  18
HETATM   18  O   UNL     1     -44.456  57.923 -55.222  1.00  0.00    -0.341 OA
BRANCH  18  19
HETATM   19  C   UNL     1     -43.563  58.540 -56.062  1.00  0.00     0.076 A 
HETATM   20  C   UNL     1     -42.986  57.757 -57.082  1.00  0.00    -0.021 A 
HETATM   21  C   UNL     1     -42.099  58.383 -57.977  1.00  0.00     0.010 A 
HETATM   22  C   UNL     1     -41.758  59.729 -57.830  1.00  0.00     0.001 A 
HETATM   23  C   UNL     1     -42.292  60.472 -56.783  1.00  0.00     0.003 A 
HETATM   24  C   UNL     1     -43.188  59.878 -55.896  1.00  0.00     0.037 A 
BRANCH  20  25
HETATM   25  C   UNL     1     -43.355  56.287 -57.233  1.00  0.00     0.013 C 
HETATM   26  C   UNL     1     -42.400  55.321 -56.519  1.00  0.00     0.015 C 
HETATM   27  C   UNL     1     -43.474  55.917 -58.713  1.00  0.00     0.015 C 
ENDBRANCH  20  25
ENDBRANCH  18  19
ENDBRANCH  17  18
ENDBRANCH   1  17
TORSDOF 6
ENDMDL
MODEL 9
REMARK VINA RESULT:      -7.2     15.353     17.721
REMARK  6 active torsions:
REMARK  status: ('A' for Active; 'I' for Inactive)
REMARK    1  A    between atoms: C_2  and  C_3 
REMARK    2  A    between atoms: C_4  and  O_5 
REMARK    3  A    between atoms: O_5  and  C_6 
REMARK    4  A    between atoms: C_6  and  C_7 
REMARK       I    between atoms: C_7  and  N_8 
REMARK    5  A    between atoms: N_8  and  N_9 
REMARK    6  A    between atoms: C_10  and  C_11 
ROOT
HETATM    1  C   UNL     1     -35.254  41.543 -53.815  1.00  0.00     0.261 C 
HETATM    2  N   UNL     1     -36.103  42.072 -54.779  1.00  0.00    -0.246 N 
HETATM    3  O   UNL     1     -34.378  40.700 -53.988  1.00  0.00    -0.269 OA
HETATM    4  H   UNL     1     -36.777  42.772 -54.477  1.00  0.00     0.192 HD
ENDROOT
BRANCH   2   5
HETATM    5  N   UNL     1     -36.199  41.752 -56.107  1.00  0.00    -0.184 NA
HETATM    6  C   UNL     1     -37.320  41.880 -56.740  1.00  0.00     0.152 C 
BRANCH   6   7
HETATM    7  C   UNL     1     -37.366  41.535 -58.151  1.00  0.00     0.011 A 
HETATM    8  C   UNL     1     -37.700  40.263 -58.721  1.00  0.00     0.004 A 
HETATM    9  C   UNL     1     -37.596  40.386 -60.109  1.00  0.00     0.043 A 
HETATM   10  C   UNL     1     -38.071  39.011 -58.187  1.00  0.00     0.014 A 
HETATM   11  C   UNL     1     -37.841  39.323 -60.986  1.00  0.00     0.030 A 
HETATM   12  N   UNL     1     -37.227  41.685 -60.374  1.00  0.00    -0.364 N 
HETATM   13  C   UNL     1     -38.203  38.093 -60.429  1.00  0.00     0.002 A 
HETATM   14  C   UNL     1     -38.319  37.937 -59.050  1.00  0.00     0.001 A 
HETATM   15  H   UNL     1     -37.078  42.061 -61.300  1.00  0.00     0.165 HD
HETATM   16  C   UNL     1     -37.084  42.383 -59.207  1.00  0.00     0.102 A 
ENDBRANCH   6   7
ENDBRANCH   2   5
BRANCH   1  17
HETATM   17  C   UNL     1     -35.579  42.074 -52.420  1.00  0.00     0.280 C 
BRANCH  17  18
HETATM   18  O   UNL     1     -34.619  41.643 -51.457  1.00  0.00    -0.341 OA
BRANCH  18  19
HETATM   19  C   UNL     1     -35.037  40.623 -50.640  1.00  0.00     0.076 A 
HETATM   20  C   UNL     1     -34.043  39.796 -50.076  1.00  0.00    -0.021 A 
HETATM   21  C   UNL     1     -34.451  38.770 -49.204  1.00  0.00     0.010 A 
HETATM   22  C   UNL     1     -35.803  38.542 -48.942  1.00  0.00     0.001 A 
HETATM   23  C   UNL     1     -36.773  39.330 -49.552  1.00  0.00     0.003 A 
HETATM   24  C   UNL     1     -36.392  40.365 -50.405  1.00  0.00     0.037 A 
BRANCH  20  25
HETATM   25  C   UNL     1     -32.570  40.045 -50.372  1.00  0.00     0.013 C 
HETATM   26  C   UNL     1     -32.015  39.225 -51.544  1.00  0.00     0.015 C 
HETATM   27  C   UNL     1     -31.728  39.810 -49.115  1.00  0.00     0.015 C 
ENDBRANCH  20  25
ENDBRANCH  18  19
ENDBRANCH  17  18
ENDBRANCH   1  17
TORSDOF 6
ENDMDL
MODEL 10
REMARK VINA RESULT:      -7.0      2.925      4.583
REMARK  6 active torsions:
REMARK  status: ('A' for Active; 'I' for Inactive)
REMARK    1  A    between atoms: C_2  and  C_3 
REMARK    2  A    between atoms: C_4  and  O_5 
REMARK    3  A    between atoms: O_5  and  C_6 
REMARK    4  A    between atoms: C_6  and  C_7 
REMARK       I    between atoms: C_7  and  N_8 
REMARK    5  A    between atoms: N_8  and  N_9 
REMARK    6  A    between atoms: C_10  and  C_11 
ROOT
HETATM    1  C   UNL     1     -40.740  58.909 -52.619  1.00  0.00     0.261 C 
HETATM    2  N   UNL     1     -41.993  59.486 -52.455  1.00  0.00    -0.246 N 
HETATM    3  O   UNL     1     -39.679  59.308 -52.149  1.00  0.00    -0.269 OA
HETATM    4  H   UNL     1     -42.782  59.028 -52.907  1.00  0.00     0.192 HD
ENDROOT
BRANCH   2   5
HETATM    5  N   UNL     1     -42.329  60.636 -51.792  1.00  0.00    -0.184 NA
HETATM    6  C   UNL     1     -43.115  60.604 -50.765  1.00  0.00     0.152 C 
BRANCH   6   7
HETATM    7  C   UNL     1     -43.433  61.851 -50.092  1.00  0.00     0.011 A 
HETATM    8  C   UNL     1     -44.279  62.026 -48.948  1.00  0.00     0.004 A 
HETATM    9  C   UNL     1     -44.312  63.392 -48.657  1.00  0.00     0.043 A 
HETATM   10  C   UNL     1     -45.032  61.151 -48.136  1.00  0.00     0.014 A 
HETATM   11  C   UNL     1     -45.059  63.926 -47.600  1.00  0.00     0.030 A 
HETATM   12  N   UNL     1     -43.507  64.022 -49.577  1.00  0.00    -0.364 N 
HETATM   13  C   UNL     1     -45.799  63.036 -46.815  1.00  0.00     0.002 A 
HETATM   14  C   UNL     1     -45.786  61.668 -47.076  1.00  0.00     0.001 A 
HETATM   15  H   UNL     1     -43.341  65.018 -49.608  1.00  0.00     0.165 HD
HETATM   16  C   UNL     1     -42.975  63.107 -50.445  1.00  0.00     0.102 A 
ENDBRANCH   6   7
ENDBRANCH   2   5
BRANCH   1  17
HETATM   17  C   UNL     1     -40.788  57.705 -53.559  1.00  0.00     0.280 C 
BRANCH  17  18
HETATM   18  O   UNL     1     -41.396  56.576 -52.936  1.00  0.00    -0.341 OA
BRANCH  18  19
HETATM   19  C   UNL     1     -40.990  55.358 -53.420  1.00  0.00     0.076 A 
HETATM   20  C   UNL     1     -40.929  54.286 -52.507  1.00  0.00    -0.021 A 
HETATM   21  C   UNL     1     -40.553  53.021 -52.995  1.00  0.00     0.010 A 
HETATM   22  C   UNL     1     -40.200  52.840 -54.334  1.00  0.00     0.001 A 
HETATM   23  C   UNL     1     -40.211  53.921 -55.209  1.00  0.00     0.003 A 
HETATM   24  C   UNL     1     -40.599  55.180 -54.753  1.00  0.00     0.037 A 
BRANCH  20  25
HETATM   25  C   UNL     1     -41.306  54.490 -51.046  1.00  0.00     0.013 C 
HETATM   26  C   UNL     1     -40.434  53.709 -50.055  1.00  0.00     0.015 C 
HETATM   27  C   UNL     1     -42.784  54.160 -50.827  1.00  0.00     0.015 C 
ENDBRANCH  20  25
ENDBRANCH  18  19
ENDBRANCH  17  18
ENDBRANCH   1  17
TORSDOF 6
ENDMDL
