MODEL 1
REMARK VINA RESULT:      -7.3      0.000      0.000
REMARK  3 active torsions:
REMARK  status: ('A' for Active; 'I' for Inactive)
REMARK    1  A    between atoms: C_8  and  N_9 
REMARK       I    between atoms: N_9  and  C_10 
REMARK       I    between atoms: C_10  and  N_11 
REMARK    2  A    between atoms: N_11  and  C_12 
REMARK    3  A    between atoms: C_13  and  O_14 
ROOT
HETATM    1  N   UNL     1     -42.277  56.302 -56.507  1.00  0.00    -0.305 N 
HETATM    2  C   UNL     1     -42.272  55.153 -55.738  1.00  0.00     0.325 C 
HETATM    3  N   UNL     1     -40.995  54.896 -55.277  1.00  0.00    -0.306 N 
HETATM    4  O   UNL     1     -43.255  54.467 -55.490  1.00  0.00    -0.247 OA
HETATM    5  H   UNL     1     -41.609  57.006 -56.232  1.00  0.00     0.171 HD
HETATM    6  H   UNL     1     -40.234  55.221 -55.862  1.00  0.00     0.171 HD
ENDROOT
BRANCH   1   7
HETATM    7  C   UNL     1     -43.332  56.725 -57.297  1.00  0.00     0.086 A 
HETATM    8  C   UNL     1     -44.375  57.491 -56.813  1.00  0.00     0.052 A 
HETATM    9  C   UNL     1     -44.700  58.013 -55.466  1.00  0.00     0.072 C 
HETATM   10  N   UNL     1     -45.196  57.713 -57.883  1.00  0.00    -0.280 N 
HETATM   11  H   UNL     1     -46.071  58.224 -57.905  1.00  0.00     0.189 HD
HETATM   12  N   UNL     1     -44.753  57.183 -59.027  1.00  0.00    -0.177 NA
HETATM   13  C   UNL     1     -43.608  56.573 -58.686  1.00  0.00     0.079 A 
HETATM   14  C   UNL     1     -42.802  55.924 -59.752  1.00  0.00     0.075 C 
ENDBRANCH   1   7
BRANCH   3  15
HETATM   15  C   UNL     1     -40.619  53.928 -54.319  1.00  0.00     0.071 A 
HETATM   16  C   UNL     1     -40.634  54.318 -52.966  1.00  0.00     0.095 A 
HETATM   17  C   UNL     1     -40.328  53.393 -51.965  1.00  0.00     0.040 A 
HETATM   18  C   UNL     1     -39.981  52.085 -52.310  1.00  0.00     0.022 A 
HETATM   19  C   UNL     1     -39.950  51.707 -53.651  1.00  0.00     0.013 A 
HETATM   20 BR   UNL     1     -39.495  49.928 -54.106  1.00  0.00    -0.051 Br
HETATM   21  C   UNL     1     -40.269  52.618 -54.658  1.00  0.00     0.051 A 
BRANCH  16  22
HETATM   22  O   UNL     1     -40.989  55.623 -52.708  1.00  0.00    -0.354 OA
HETATM   23  C   UNL     1     -42.211  55.764 -51.987  1.00  0.00     0.210 C 
ENDBRANCH  16  22
ENDBRANCH   3  15
TORSDOF 3
ENDMDL
MODEL 2
REMARK VINA RESULT:      -6.9      2.151      3.071
REMARK  3 active torsions:
REMARK  status: ('A' for Active; 'I' for Inactive)
REMARK    1  A    between atoms: C_8  and  N_9 
REMARK       I    between atoms: N_9  and  C_10 
REMARK       I    between atoms: C_10  and  N_11 
REMARK    2  A    between atoms: N_11  and  C_12 
REMARK    3  A    between atoms: C_13  and  O_14 
ROOT
HETATM    1  N   UNL     1     -42.281  56.517 -54.467  1.00  0.00    -0.305 N 
HETATM    2  C   UNL     1     -41.226  55.676 -54.167  1.00  0.00     0.325 C 
HETATM    3  N   UNL     1     -41.635  54.699 -53.279  1.00  0.00    -0.306 N 
HETATM    4  O   UNL     1     -40.095  55.772 -54.627  1.00  0.00    -0.247 OA
HETATM    5  H   UNL     1     -43.191  56.083 -54.465  1.00  0.00     0.171 HD
HETATM    6  H   UNL     1     -42.388  54.953 -52.651  1.00  0.00     0.171 HD
ENDROOT
BRANCH   1   7
HETATM    7  C   UNL     1     -42.171  57.719 -55.144  1.00  0.00     0.086 A 
HETATM    8  C   UNL     1     -42.510  57.868 -56.475  1.00  0.00     0.052 A 
HETATM    9  C   UNL     1     -42.997  56.919 -57.502  1.00  0.00     0.072 C 
HETATM   10  N   UNL     1     -42.280  59.183 -56.769  1.00  0.00    -0.280 N 
HETATM   11  H   UNL     1     -42.400  59.656 -57.657  1.00  0.00     0.189 HD
HETATM   12  N   UNL     1     -41.852  59.905 -55.729  1.00  0.00    -0.177 NA
HETATM   13  C   UNL     1     -41.780  59.023 -54.721  1.00  0.00     0.079 A 
HETATM   14  C   UNL     1     -41.395  59.511 -53.372  1.00  0.00     0.075 C 
ENDBRANCH   1   7
BRANCH   3  15
HETATM   15  C   UNL     1     -40.905  53.557 -52.880  1.00  0.00     0.071 A 
HETATM   16  C   UNL     1     -40.470  53.503 -51.542  1.00  0.00     0.095 A 
HETATM   17  C   UNL     1     -39.793  52.376 -51.069  1.00  0.00     0.040 A 
HETATM   18  C   UNL     1     -39.525  51.313 -51.933  1.00  0.00     0.022 A 
HETATM   19  C   UNL     1     -39.942  51.377 -53.261  1.00  0.00     0.013 A 
HETATM   20 BR   UNL     1     -39.588  49.923 -54.419  1.00  0.00    -0.051 Br
HETATM   21  C   UNL     1     -40.632  52.490 -53.740  1.00  0.00     0.051 A 
BRANCH  16  22
HETATM   22  O   UNL     1     -40.776  54.589 -50.754  1.00  0.00    -0.354 OA
HETATM   23  C   UNL     1     -40.761  54.317 -49.354  1.00  0.00     0.210 C 
ENDBRANCH  16  22
ENDBRANCH   3  15
TORSDOF 3
ENDMDL
MODEL 3
REMARK VINA RESULT:      -6.6      3.036      6.892
REMARK  3 active torsions:
REMARK  status: ('A' for Active; 'I' for Inactive)
REMARK    1  A    between atoms: C_8  and  N_9 
REMARK       I    between atoms: N_9  and  C_10 
REMARK       I    between atoms: C_10  and  N_11 
REMARK    2  A    between atoms: N_11  and  C_12 
REMARK    3  A    between atoms: C_13  and  O_14 
ROOT
HETATM    1  N   UNL     1     -40.179  53.190 -54.260  1.00  0.00    -0.305 N 
HETATM    2  C   UNL     1     -41.328  53.923 -54.497  1.00  0.00     0.325 C 
HETATM    3  N   UNL     1     -41.083  54.896 -55.447  1.00  0.00    -0.306 N 
HETATM    4  O   UNL     1     -42.409  53.733 -53.955  1.00  0.00    -0.247 OA
HETATM    5  H   UNL     1     -39.567  53.081 -55.054  1.00  0.00     0.171 HD
HETATM    6  H   UNL     1     -40.134  55.250 -55.490  1.00  0.00     0.171 HD
ENDROOT
BRANCH   1   7
HETATM    7  C   UNL     1     -40.011  52.291 -53.221  1.00  0.00     0.086 A 
HETATM    8  C   UNL     1     -39.768  50.946 -53.421  1.00  0.00     0.052 A 
HETATM    9  C   UNL     1     -39.663  50.113 -54.640  1.00  0.00     0.072 C 
HETATM   10  N   UNL     1     -39.647  50.404 -52.172  1.00  0.00    -0.280 N 
HETATM   11  H   UNL     1     -39.483  49.435 -51.923  1.00  0.00     0.189 HD
HETATM   12  N   UNL     1     -39.758  51.294 -51.181  1.00  0.00    -0.177 NA
HETATM   13  C   UNL     1     -39.981  52.459 -51.806  1.00  0.00     0.079 A 
HETATM   14  C   UNL     1     -40.087  53.697 -50.991  1.00  0.00     0.075 C 
ENDBRANCH   1   7
BRANCH   3  15
HETATM   15  C   UNL     1     -42.039  55.717 -56.086  1.00  0.00     0.071 A 
HETATM   16  C   UNL     1     -42.344  56.949 -55.475  1.00  0.00     0.095 A 
HETATM   17  C   UNL     1     -43.239  57.832 -56.085  1.00  0.00     0.040 A 
HETATM   18  C   UNL     1     -43.851  57.480 -57.290  1.00  0.00     0.022 A 
HETATM   19  C   UNL     1     -43.559  56.252 -57.882  1.00  0.00     0.013 A 
HETATM   20 BR   UNL     1     -44.382  55.792 -59.523  1.00  0.00    -0.051 Br
HETATM   21  C   UNL     1     -42.656  55.369 -57.290  1.00  0.00     0.051 A 
BRANCH  16  22
HETATM   22  O   UNL     1     -41.698  57.223 -54.292  1.00  0.00    -0.354 OA
HETATM   23  C   UNL     1     -42.562  57.319 -53.162  1.00  0.00     0.210 C 
ENDBRANCH  16  22
ENDBRANCH   3  15
TORSDOF 3
ENDMDL
MODEL 4
REMARK VINA RESULT:      -6.5      2.825      6.563
REMARK  3 active torsions:
REMARK  status: ('A' for Active; 'I' for Inactive)
REMARK    1  A    between atoms: C_8  and  N_9 
REMARK       I    between atoms: N_9  and  C_10 
REMARK       I    between atoms: C_10  and  N_11 
REMARK    2  A    between atoms: N_11  and  C_12 
REMARK    3  A    between atoms: C_13  and  O_14 
ROOT
HETATM    1  N   UNL     1     -40.886  54.455 -54.928  1.00  0.00    -0.305 N 
HETATM    2  C   UNL     1     -42.131  54.816 -55.408  1.00  0.00     0.325 C 
HETATM    3  N   UNL     1     -41.995  55.678 -56.480  1.00  0.00    -0.306 N 
HETATM    4  O   UNL     1     -43.201  54.423 -54.961  1.00  0.00    -0.247 OA
HETATM    5  H   UNL     1     -40.156  54.403 -55.622  1.00  0.00     0.171 HD
HETATM    6  H   UNL     1     -41.166  56.260 -56.483  1.00  0.00     0.171 HD
ENDROOT
BRANCH   1   7
HETATM    7  C   UNL     1     -40.658  53.786 -53.738  1.00  0.00     0.086 A 
HETATM    8  C   UNL     1     -40.814  54.378 -52.499  1.00  0.00     0.052 A 
HETATM    9  C   UNL     1     -41.184  55.748 -52.078  1.00  0.00     0.072 C 
HETATM   10  N   UNL     1     -40.516  53.406 -51.587  1.00  0.00    -0.280 N 
HETATM   11  H   UNL     1     -40.505  53.478 -50.575  1.00  0.00     0.189 HD
HETATM   12  N   UNL     1     -40.212  52.223 -52.131  1.00  0.00    -0.177 NA
HETATM   13  C   UNL     1     -40.295  52.438 -53.452  1.00  0.00     0.079 A 
HETATM   14  C   UNL     1     -40.080  51.294 -54.376  1.00  0.00     0.075 C 
ENDBRANCH   1   7
BRANCH   3  15
HETATM   15  C   UNL     1     -43.018  56.118 -57.349  1.00  0.00     0.071 A 
HETATM   16  C   UNL     1     -43.634  57.349 -57.051  1.00  0.00     0.095 A 
HETATM   17  C   UNL     1     -44.613  57.868 -57.902  1.00  0.00     0.040 A 
HETATM   18  C   UNL     1     -45.000  57.151 -59.036  1.00  0.00     0.022 A 
HETATM   19  C   UNL     1     -44.401  55.925 -59.318  1.00  0.00     0.013 A 
HETATM   20 BR   UNL     1     -44.921  54.970 -60.866  1.00  0.00    -0.051 Br
HETATM   21  C   UNL     1     -43.411  55.404 -58.485  1.00  0.00     0.051 A 
BRANCH  16  22
HETATM   22  O   UNL     1     -43.195  57.995 -55.918  1.00  0.00    -0.354 OA
HETATM   23  C   UNL     1     -44.180  58.111 -54.893  1.00  0.00     0.210 C 
ENDBRANCH  16  22
ENDBRANCH   3  15
TORSDOF 3
ENDMDL
MODEL 5
REMARK VINA RESULT:      -6.5      1.801      2.056
REMARK  3 active torsions:
REMARK  status: ('A' for Active; 'I' for Inactive)
REMARK    1  A    between atoms: C_8  and  N_9 
REMARK       I    between atoms: N_9  and  C_10 
REMARK       I    between atoms: C_10  and  N_11 
REMARK    2  A    between atoms: N_11  and  C_12 
REMARK    3  A    between atoms: C_13  and  O_14 
ROOT
HETATM    1  N   UNL     1     -44.003  56.154 -57.533  1.00  0.00    -0.305 N 
HETATM    2  C   UNL     1     -43.115  56.090 -56.475  1.00  0.00     0.325 C 
HETATM    3  N   UNL     1     -43.445  55.038 -55.641  1.00  0.00    -0.306 N 
HETATM    4  O   UNL     1     -42.166  56.844 -56.304  1.00  0.00    -0.247 OA
HETATM    5  H   UNL     1     -44.371  55.266 -57.840  1.00  0.00     0.171 HD
HETATM    6  H   UNL     1     -44.425  54.784 -55.609  1.00  0.00     0.171 HD
ENDROOT
BRANCH   1   7
HETATM    7  C   UNL     1     -44.098  57.206 -58.427  1.00  0.00     0.086 A 
HETATM    8  C   UNL     1     -45.064  58.189 -58.334  1.00  0.00     0.052 A 
HETATM    9  C   UNL     1     -46.198  58.401 -57.406  1.00  0.00     0.072 C 
HETATM   10  N   UNL     1     -44.821  59.044 -59.372  1.00  0.00    -0.280 N 
HETATM   11  H   UNL     1     -45.338  59.876 -59.632  1.00  0.00     0.189 HD
HETATM   12  N   UNL     1     -43.755  58.715 -60.109  1.00  0.00    -0.177 NA
HETATM   13  C   UNL     1     -43.297  57.589 -59.542  1.00  0.00     0.079 A 
HETATM   14  C   UNL     1     -42.056  56.974 -60.079  1.00  0.00     0.075 C 
ENDBRANCH   1   7
BRANCH   3  15
HETATM   15  C   UNL     1     -42.679  54.536 -54.566  1.00  0.00     0.071 A 
HETATM   16  C   UNL     1     -42.886  55.116 -53.299  1.00  0.00     0.095 A 
HETATM   17  C   UNL     1     -42.201  54.628 -52.183  1.00  0.00     0.040 A 
HETATM   18  C   UNL     1     -41.291  53.579 -52.330  1.00  0.00     0.022 A 
HETATM   19  C   UNL     1     -41.076  53.019 -53.589  1.00  0.00     0.013 A 
HETATM   20 BR   UNL     1     -39.852  51.589 -53.773  1.00  0.00    -0.051 Br
HETATM   21  C   UNL     1     -41.765  53.489 -54.706  1.00  0.00     0.051 A 
BRANCH  16  22
HETATM   22  O   UNL     1     -43.801  56.142 -53.237  1.00  0.00    -0.354 OA
HETATM   23  C   UNL     1     -43.346  57.287 -52.518  1.00  0.00     0.210 C 
ENDBRANCH  16  22
ENDBRANCH   3  15
TORSDOF 3
ENDMDL
MODEL 6
REMARK VINA RESULT:      -6.3      2.364      3.136
REMARK  3 active torsions:
REMARK  status: ('A' for Active; 'I' for Inactive)
REMARK    1  A    between atoms: C_8  and  N_9 
REMARK       I    between atoms: N_9  and  C_10 
REMARK       I    between atoms: C_10  and  N_11 
REMARK    2  A    between atoms: N_11  and  C_12 
REMARK    3  A    between atoms: C_13  and  O_14 
ROOT
HETATM    1  N   UNL     1     -44.024  56.053 -53.273  1.00  0.00    -0.305 N 
HETATM    2  C   UNL     1     -42.714  55.619 -53.190  1.00  0.00     0.325 C 
HETATM    3  N   UNL     1     -42.656  54.407 -52.526  1.00  0.00    -0.306 N 
HETATM    4  O   UNL     1     -41.745  56.211 -53.646  1.00  0.00    -0.247 OA
HETATM    5  H   UNL     1     -44.716  55.322 -53.343  1.00  0.00     0.171 HD
HETATM    6  H   UNL     1     -43.382  54.239 -51.840  1.00  0.00     0.171 HD
ENDROOT
BRANCH   1   7
HETATM    7  C   UNL     1     -44.417  57.318 -53.674  1.00  0.00     0.086 A 
HETATM    8  C   UNL     1     -44.855  58.286 -52.792  1.00  0.00     0.052 A 
HETATM    9  C   UNL     1     -45.068  58.290 -51.327  1.00  0.00     0.072 C 
HETATM   10  N   UNL     1     -45.131  59.384 -53.557  1.00  0.00    -0.280 N 
HETATM   11  H   UNL     1     -45.490  60.283 -53.256  1.00  0.00     0.189 HD
HETATM   12  N   UNL     1     -44.875  59.218 -54.858  1.00  0.00    -0.177 NA
HETATM   13  C   UNL     1     -44.434  57.955 -54.949  1.00  0.00     0.079 A 
HETATM   14  C   UNL     1     -43.987  57.449 -56.273  1.00  0.00     0.075 C 
ENDBRANCH   1   7
BRANCH   3  15
HETATM   15  C   UNL     1     -41.533  53.561 -52.405  1.00  0.00     0.071 A 
HETATM   16  C   UNL     1     -40.739  53.703 -51.250  1.00  0.00     0.095 A 
HETATM   17  C   UNL     1     -39.646  52.858 -51.041  1.00  0.00     0.040 A 
HETATM   18  C   UNL     1     -39.326  51.887 -51.993  1.00  0.00     0.022 A 
HETATM   19  C   UNL     1     -40.104  51.760 -53.142  1.00  0.00     0.013 A 
HETATM   20 BR   UNL     1     -39.671  50.431 -54.417  1.00  0.00    -0.051 Br
HETATM   21  C   UNL     1     -41.206  52.588 -53.354  1.00  0.00     0.051 A 
BRANCH  16  22
HETATM   22  O   UNL     1     -41.121  54.680 -50.360  1.00  0.00    -0.354 OA
HETATM   23  C   UNL     1     -40.993  54.304 -48.990  1.00  0.00     0.210 C 
ENDBRANCH  16  22
ENDBRANCH   3  15
TORSDOF 3
ENDMDL
MODEL 7
REMARK VINA RESULT:      -6.3      2.878      6.781
REMARK  3 active torsions:
REMARK  status: ('A' for Active; 'I' for Inactive)
REMARK    1  A    between atoms: C_8  and  N_9 
REMARK       I    between atoms: N_9  and  C_10 
REMARK       I    between atoms: C_10  and  N_11 
REMARK    2  A    between atoms: N_11  and  C_12 
REMARK    3  A    between atoms: C_13  and  O_14 
ROOT
HETATM    1  N   UNL     1     -40.793  54.564 -54.348  1.00  0.00    -0.305 N 
HETATM    2  C   UNL     1     -41.989  54.986 -54.899  1.00  0.00     0.325 C 
HETATM    3  N   UNL     1     -41.748  55.820 -55.975  1.00  0.00    -0.306 N 
HETATM    4  O   UNL     1     -43.101  54.662 -54.503  1.00  0.00    -0.247 OA
HETATM    5  H   UNL     1     -40.032  54.460 -55.001  1.00  0.00     0.171 HD
HETATM    6  H   UNL     1     -40.889  56.355 -55.942  1.00  0.00     0.171 HD
ENDROOT
BRANCH   1   7
HETATM    7  C   UNL     1     -40.666  53.905 -53.138  1.00  0.00     0.086 A 
HETATM    8  C   UNL     1     -40.237  52.596 -53.035  1.00  0.00     0.052 A 
HETATM    9  C   UNL     1     -39.864  51.577 -54.042  1.00  0.00     0.072 C 
HETATM   10  N   UNL     1     -40.229  52.315 -51.698  1.00  0.00    -0.280 N 
HETATM   11  H   UNL     1     -39.986  51.442 -51.242  1.00  0.00     0.189 HD
HETATM   12  N   UNL     1     -40.583  53.346 -50.924  1.00  0.00    -0.177 NA
HETATM   13  C   UNL     1     -40.854  54.332 -51.791  1.00  0.00     0.079 A 
HETATM   14  C   UNL     1     -41.221  55.670 -51.259  1.00  0.00     0.075 C 
ENDBRANCH   1   7
BRANCH   3  15
HETATM   15  C   UNL     1     -42.698  56.301 -56.903  1.00  0.00     0.071 A 
HETATM   16  C   UNL     1     -43.179  57.611 -56.715  1.00  0.00     0.095 A 
HETATM   17  C   UNL     1     -44.076  58.168 -57.630  1.00  0.00     0.040 A 
HETATM   18  C   UNL     1     -44.517  57.413 -58.719  1.00  0.00     0.022 A 
HETATM   19  C   UNL     1     -44.051  56.110 -58.892  1.00  0.00     0.013 A 
HETATM   20 BR   UNL     1     -44.643  55.103 -60.380  1.00  0.00    -0.051 Br
HETATM   21  C   UNL     1     -43.144  55.551 -57.994  1.00  0.00     0.051 A 
BRANCH  16  22
HETATM   22  O   UNL     1     -42.695  58.291 -55.620  1.00  0.00    -0.354 OA
HETATM   23  C   UNL     1     -43.677  58.569 -54.624  1.00  0.00     0.210 C 
ENDBRANCH  16  22
ENDBRANCH   3  15
TORSDOF 3
ENDMDL
MODEL 8
REMARK VINA RESULT:      -6.3      3.042      6.675
REMARK  3 active torsions:
REMARK  status: ('A' for Active; 'I' for Inactive)
REMARK    1  A    between atoms: C_8  and  N_9 
REMARK       I    between atoms: N_9  and  C_10 
REMARK       I    between atoms: C_10  and  N_11 
REMARK    2  A    between atoms: N_11  and  C_12 
REMARK    3  A    between atoms: C_13  and  O_14 
ROOT
HETATM    1  N   UNL     1     -41.894  53.556 -53.675  1.00  0.00    -0.305 N 
HETATM    2  C   UNL     1     -41.715  54.629 -54.528  1.00  0.00     0.325 C 
HETATM    3  N   UNL     1     -42.854  54.830 -55.285  1.00  0.00    -0.306 N 
HETATM    4  O   UNL     1     -40.701  55.312 -54.599  1.00  0.00    -0.247 OA
HETATM    5  H   UNL     1     -42.838  53.422 -53.345  1.00  0.00     0.171 HD
HETATM    6  H   UNL     1     -43.415  54.007 -55.475  1.00  0.00     0.171 HD
ENDROOT
BRANCH   1   7
HETATM    7  C   UNL     1     -40.890  52.949 -52.942  1.00  0.00     0.086 A 
HETATM    8  C   UNL     1     -40.521  53.367 -51.678  1.00  0.00     0.052 A 
HETATM    9  C   UNL     1     -40.977  54.479 -50.813  1.00  0.00     0.072 C 
HETATM   10  N   UNL     1     -39.523  52.521 -51.286  1.00  0.00    -0.280 N 
HETATM   11  H   UNL     1     -38.996  52.532 -50.419  1.00  0.00     0.189 HD
HETATM   12  N   UNL     1     -39.238  51.567 -52.177  1.00  0.00    -0.177 NA
HETATM   13  C   UNL     1     -40.069  51.813 -53.201  1.00  0.00     0.079 A 
HETATM   14  C   UNL     1     -40.067  50.884 -54.360  1.00  0.00     0.075 C 
ENDBRANCH   1   7
BRANCH   3  15
HETATM   15  C   UNL     1     -43.129  55.929 -56.129  1.00  0.00     0.071 A 
HETATM   16  C   UNL     1     -43.871  56.993 -55.582  1.00  0.00     0.095 A 
HETATM   17  C   UNL     1     -44.128  58.135 -56.345  1.00  0.00     0.040 A 
HETATM   18  C   UNL     1     -43.669  58.208 -57.662  1.00  0.00     0.022 A 
HETATM   19  C   UNL     1     -42.949  57.145 -58.205  1.00  0.00     0.013 A 
HETATM   20 BR   UNL     1     -42.318  57.262 -59.985  1.00  0.00    -0.051 Br
HETATM   21  C   UNL     1     -42.674  56.008 -57.447  1.00  0.00     0.051 A 
BRANCH  16  22
HETATM   22  O   UNL     1     -44.285  56.846 -54.278  1.00  0.00    -0.354 OA
HETATM   23  C   UNL     1     -43.719  57.794 -53.375  1.00  0.00     0.210 C 
ENDBRANCH  16  22
ENDBRANCH   3  15
TORSDOF 3
ENDMDL
MODEL 9
REMARK VINA RESULT:      -6.2      3.768      7.187
REMARK  3 active torsions:
REMARK  status: ('A' for Active; 'I' for Inactive)
REMARK    1  A    between atoms: C_8  and  N_9 
REMARK       I    between atoms: N_9  and  C_10 
REMARK       I    between atoms: C_10  and  N_11 
REMARK    2  A    between atoms: N_11  and  C_12 
REMARK    3  A    between atoms: C_13  and  O_14 
ROOT
HETATM    1  N   UNL     1     -40.449  53.868 -52.713  1.00  0.00    -0.305 N 
HETATM    2  C   UNL     1     -41.692  54.471 -52.688  1.00  0.00     0.325 C 
HETATM    3  N   UNL     1     -41.580  55.805 -53.031  1.00  0.00    -0.306 N 
HETATM    4  O   UNL     1     -42.744  53.908 -52.414  1.00  0.00    -0.247 OA
HETATM    5  H   UNL     1     -39.806  54.236 -53.397  1.00  0.00     0.171 HD
HETATM    6  H   UNL     1     -40.699  56.252 -52.806  1.00  0.00     0.171 HD
ENDROOT
BRANCH   1   7
HETATM    7  C   UNL     1     -40.167  52.608 -52.215  1.00  0.00     0.086 A 
HETATM    8  C   UNL     1     -40.160  52.316 -50.864  1.00  0.00     0.052 A 
HETATM    9  C   UNL     1     -40.374  53.142 -49.655  1.00  0.00     0.072 C 
HETATM   10  N   UNL     1     -39.859  50.986 -50.777  1.00  0.00    -0.280 N 
HETATM   11  H   UNL     1     -39.750  50.422 -49.941  1.00  0.00     0.189 HD
HETATM   12  N   UNL     1     -39.706  50.384 -51.961  1.00  0.00    -0.177 NA
HETATM   13  C   UNL     1     -39.893  51.365 -52.856  1.00  0.00     0.079 A 
HETATM   14  C   UNL     1     -39.859  51.026 -54.302  1.00  0.00     0.075 C 
ENDBRANCH   1   7
BRANCH   3  15
HETATM   15  C   UNL     1     -42.637  56.704 -53.297  1.00  0.00     0.071 A 
HETATM   16  C   UNL     1     -42.950  56.952 -54.647  1.00  0.00     0.095 A 
HETATM   17  C   UNL     1     -44.021  57.786 -54.978  1.00  0.00     0.040 A 
HETATM   18  C   UNL     1     -44.766  58.395 -53.966  1.00  0.00     0.022 A 
HETATM   19  C   UNL     1     -44.442  58.160 -52.630  1.00  0.00     0.013 A 
HETATM   20 BR   UNL     1     -45.469  58.978 -51.267  1.00  0.00    -0.051 Br
HETATM   21  C   UNL     1     -43.385  57.318 -52.289  1.00  0.00     0.051 A 
BRANCH  16  22
HETATM   22  O   UNL     1     -42.172  56.313 -55.585  1.00  0.00    -0.354 OA
HETATM   23  C   UNL     1     -42.859  55.309 -56.329  1.00  0.00     0.210 C 
ENDBRANCH  16  22
ENDBRANCH   3  15
TORSDOF 3
ENDMDL
MODEL 10
REMARK VINA RESULT:      -6.2      2.621      3.584
REMARK  3 active torsions:
REMARK  status: ('A' for Active; 'I' for Inactive)
REMARK    1  A    between atoms: C_8  and  N_9 
REMARK       I    between atoms: N_9  and  C_10 
REMARK       I    between atoms: C_10  and  N_11 
REMARK    2  A    between atoms: N_11  and  C_12 
REMARK    3  A    between atoms: C_13  and  O_14 
ROOT
HETATM    1  N   UNL     1     -42.482  55.697 -57.833  1.00  0.00    -0.305 N 
HETATM    2  C   UNL     1     -42.915  55.820 -56.526  1.00  0.00     0.325 C 
HETATM    3  N   UNL     1     -42.345  54.835 -55.741  1.00  0.00    -0.306 N 
HETATM    4  O   UNL     1     -43.681  56.682 -56.116  1.00  0.00    -0.247 OA
HETATM    5  H   UNL     1     -41.545  55.340 -57.944  1.00  0.00     0.171 HD
HETATM    6  H   UNL     1     -42.116  53.967 -56.211  1.00  0.00     0.171 HD
ENDROOT
BRANCH   1   7
HETATM    7  C   UNL     1     -43.018  56.375 -58.914  1.00  0.00     0.086 A 
HETATM    8  C   UNL     1     -43.952  55.817 -59.765  1.00  0.00     0.052 A 
HETATM    9  C   UNL     1     -44.579  54.477 -59.832  1.00  0.00     0.072 C 
HETATM   10  N   UNL     1     -44.242  56.788 -60.681  1.00  0.00    -0.280 N 
HETATM   11  H   UNL     1     -44.875  56.735 -61.472  1.00  0.00     0.189 HD
HETATM   12  N   UNL     1     -43.598  57.941 -60.474  1.00  0.00    -0.177 NA
HETATM   13  C   UNL     1     -42.842  57.706 -59.391  1.00  0.00     0.079 A 
HETATM   14  C   UNL     1     -42.031  58.818 -58.833  1.00  0.00     0.075 C 
ENDBRANCH   1   7
BRANCH   3  15
HETATM   15  C   UNL     1     -42.394  54.739 -54.333  1.00  0.00     0.071 A 
HETATM   16  C   UNL     1     -41.639  53.715 -53.729  1.00  0.00     0.095 A 
HETATM   17  C   UNL     1     -41.598  53.600 -52.337  1.00  0.00     0.040 A 
HETATM   18  C   UNL     1     -42.329  54.488 -51.545  1.00  0.00     0.022 A 
HETATM   19  C   UNL     1     -43.088  55.490 -52.147  1.00  0.00     0.013 A 
HETATM   20 BR   UNL     1     -44.062  56.697 -51.064  1.00  0.00    -0.051 Br
HETATM   21  C   UNL     1     -43.124  55.623 -53.535  1.00  0.00     0.051 A 
BRANCH  16  22
HETATM   22  O   UNL     1     -40.945  52.883 -54.578  1.00  0.00    -0.354 OA
HETATM   23  C   UNL     1     -40.058  51.982 -53.917  1.00  0.00     0.210 C 
ENDBRANCH  16  22
ENDBRANCH   3  15
TORSDOF 3
ENDMDL
