MODEL 1
REMARK VINA RESULT:      -8.2      0.000      0.000
REMARK  2 active torsions:
REMARK  status: ('A' for Active; 'I' for Inactive)
REMARK    1  A    between atoms: C_4  and  N_5 
REMARK       I    between atoms: N_5  and  C_6 
REMARK    2  A    between atoms: C_6  and  C_7 
ROOT
HETATM    1  C   UNL     1     -41.513  53.900 -50.412  1.00  0.00     0.099 C 
HETATM    2  C   UNL     1     -42.190  54.921 -50.974  1.00  0.00     0.079 C 
HETATM    3  S   UNL     1     -41.486  56.327 -51.676  1.00  0.00    -0.082 SA
HETATM    4  C   UNL     1     -42.750  57.538 -51.396  1.00  0.00     0.032 A 
HETATM    5  C   UNL     1     -44.085  57.187 -51.188  1.00  0.00     0.052 A 
HETATM    6  N   UNL     1     -44.489  55.853 -51.089  1.00  0.00    -0.321 N 
HETATM    7  C   UNL     1     -42.402  58.894 -51.453  1.00  0.00     0.021 A 
HETATM    8  C   UNL     1     -43.376  59.885 -51.312  1.00  0.00     0.002 A 
HETATM    9  C   UNL     1     -44.708  59.528 -51.130  1.00  0.00     0.002 A 
HETATM   10  C   UNL     1     -45.065  58.180 -51.073  1.00  0.00     0.031 A 
HETATM   11  C   UNL     1     -43.683  54.757 -50.986  1.00  0.00     0.263 C 
HETATM   12  O   UNL     1     -44.210  53.650 -50.860  1.00  0.00    -0.267 OA
HETATM   13  H   UNL     1     -45.476  55.643 -51.015  1.00  0.00     0.169 HD
ENDROOT
BRANCH   1  14
HETATM   14  C   UNL     1     -40.040  53.755 -50.305  1.00  0.00     0.247 C 
HETATM   15  N   UNL     1     -39.386  52.797 -51.026  1.00  0.00    -0.324 N 
HETATM   16  H   UNL     1     -38.462  52.647 -50.633  1.00  0.00     0.169 HD
HETATM   17  O   UNL     1     -39.373  54.406 -49.503  1.00  0.00    -0.268 OA
BRANCH  15  18
HETATM   18  C   UNL     1     -39.706  52.000 -52.137  1.00  0.00     0.035 A 
HETATM   19  C   UNL     1     -40.157  52.487 -53.364  1.00  0.00     0.029 A 
HETATM   20  C   UNL     1     -40.442  51.606 -54.413  1.00  0.00     0.002 A 
HETATM   21  C   UNL     1     -40.251  50.235 -54.254  1.00  0.00     0.000 A 
HETATM   22  C   UNL     1     -39.756  49.743 -53.050  1.00  0.00     0.002 A 
HETATM   23  C   UNL     1     -39.474  50.624 -52.004  1.00  0.00     0.029 A 
ENDBRANCH  15  18
ENDBRANCH   1  14
TORSDOF 2
ENDMDL
MODEL 2
REMARK VINA RESULT:      -8.1      1.608      6.762
REMARK  2 active torsions:
REMARK  status: ('A' for Active; 'I' for Inactive)
REMARK    1  A    between atoms: C_4  and  N_5 
REMARK       I    between atoms: N_5  and  C_6 
REMARK    2  A    between atoms: C_6  and  C_7 
ROOT
HETATM    1  C   UNL     1     -42.359  55.169 -50.110  1.00  0.00     0.099 C 
HETATM    2  C   UNL     1     -41.462  54.458 -50.822  1.00  0.00     0.079 C 
HETATM    3  S   UNL     1     -41.318  54.456 -52.539  1.00  0.00    -0.082 SA
HETATM    4  C   UNL     1     -40.695  52.824 -52.843  1.00  0.00     0.032 A 
HETATM    5  C   UNL     1     -40.024  52.088 -51.865  1.00  0.00     0.052 A 
HETATM    6  N   UNL     1     -39.889  52.556 -50.555  1.00  0.00    -0.321 N 
HETATM    7  C   UNL     1     -40.827  52.287 -54.130  1.00  0.00     0.021 A 
HETATM    8  C   UNL     1     -40.288  51.036 -54.438  1.00  0.00     0.002 A 
HETATM    9  C   UNL     1     -39.598  50.319 -53.465  1.00  0.00     0.002 A 
HETATM   10  C   UNL     1     -39.461  50.846 -52.180  1.00  0.00     0.031 A 
HETATM   11  C   UNL     1     -40.514  53.633 -50.000  1.00  0.00     0.263 C 
HETATM   12  O   UNL     1     -40.315  53.879 -48.808  1.00  0.00    -0.267 OA
HETATM   13  H   UNL     1     -39.329  52.025 -49.900  1.00  0.00     0.169 HD
ENDROOT
BRANCH   1  14
HETATM   14  C   UNL     1     -43.378  56.109 -50.639  1.00  0.00     0.247 C 
HETATM   15  N   UNL     1     -43.020  57.369 -51.028  1.00  0.00    -0.324 N 
HETATM   16  H   UNL     1     -43.847  57.955 -51.087  1.00  0.00     0.169 HD
HETATM   17  O   UNL     1     -44.577  55.838 -50.652  1.00  0.00    -0.268 OA
BRANCH  15  18
HETATM   18  C   UNL     1     -41.807  58.004 -51.339  1.00  0.00     0.035 A 
HETATM   19  C   UNL     1     -40.894  58.482 -50.397  1.00  0.00     0.029 A 
HETATM   20  C   UNL     1     -39.707  59.095 -50.813  1.00  0.00     0.002 A 
HETATM   21  C   UNL     1     -39.409  59.211 -52.169  1.00  0.00     0.000 A 
HETATM   22  C   UNL     1     -40.290  58.694 -53.114  1.00  0.00     0.002 A 
HETATM   23  C   UNL     1     -41.475  58.085 -52.698  1.00  0.00     0.029 A 
ENDBRANCH  15  18
ENDBRANCH   1  14
TORSDOF 2
ENDMDL
MODEL 3
REMARK VINA RESULT:      -7.7      2.495      6.630
REMARK  2 active torsions:
REMARK  status: ('A' for Active; 'I' for Inactive)
REMARK    1  A    between atoms: C_4  and  N_5 
REMARK       I    between atoms: N_5  and  C_6 
REMARK    2  A    between atoms: C_6  and  C_7 
ROOT
HETATM    1  C   UNL     1     -43.755  56.534 -52.737  1.00  0.00     0.099 C 
HETATM    2  C   UNL     1     -43.231  55.295 -52.813  1.00  0.00     0.079 C 
HETATM    3  S   UNL     1     -42.720  54.338 -51.475  1.00  0.00    -0.082 SA
HETATM    4  C   UNL     1     -41.427  53.368 -52.204  1.00  0.00     0.032 A 
HETATM    5  C   UNL     1     -41.352  53.137 -53.578  1.00  0.00     0.052 A 
HETATM    6  N   UNL     1     -42.238  53.741 -54.475  1.00  0.00    -0.321 N 
HETATM    7  C   UNL     1     -40.489  52.761 -51.358  1.00  0.00     0.021 A 
HETATM    8  C   UNL     1     -39.495  51.928 -51.879  1.00  0.00     0.002 A 
HETATM    9  C   UNL     1     -39.442  51.683 -53.248  1.00  0.00     0.002 A 
HETATM   10  C   UNL     1     -40.372  52.283 -54.098  1.00  0.00     0.031 A 
HETATM   11  C   UNL     1     -43.129  54.737 -54.204  1.00  0.00     0.263 C 
HETATM   12  O   UNL     1     -43.807  55.188 -55.130  1.00  0.00    -0.267 OA
HETATM   13  H   UNL     1     -42.195  53.486 -55.454  1.00  0.00     0.169 HD
ENDROOT
BRANCH   1  14
HETATM   14  C   UNL     1     -44.028  57.317 -51.506  1.00  0.00     0.247 C 
HETATM   15  N   UNL     1     -43.019  57.989 -50.877  1.00  0.00    -0.324 N 
HETATM   16  H   UNL     1     -43.304  58.223 -49.931  1.00  0.00     0.169 HD
HETATM   17  O   UNL     1     -45.127  57.310 -50.954  1.00  0.00    -0.268 OA
BRANCH  15  18
HETATM   18  C   UNL     1     -41.724  58.398 -51.235  1.00  0.00     0.035 A 
HETATM   19  C   UNL     1     -41.225  58.411 -52.538  1.00  0.00     0.029 A 
HETATM   20  C   UNL     1     -39.919  58.845 -52.790  1.00  0.00     0.002 A 
HETATM   21  C   UNL     1     -39.112  59.296 -51.747  1.00  0.00     0.000 A 
HETATM   22  C   UNL     1     -39.617  59.332 -50.451  1.00  0.00     0.002 A 
HETATM   23  C   UNL     1     -40.920  58.896 -50.202  1.00  0.00     0.029 A 
ENDBRANCH  15  18
ENDBRANCH   1  14
TORSDOF 2
ENDMDL
MODEL 4
REMARK VINA RESULT:      -7.4      2.386      3.091
REMARK  2 active torsions:
REMARK  status: ('A' for Active; 'I' for Inactive)
REMARK    1  A    between atoms: C_4  and  N_5 
REMARK       I    between atoms: N_5  and  C_6 
REMARK    2  A    between atoms: C_6  and  C_7 
ROOT
HETATM    1  C   UNL     1     -40.768  55.947 -50.298  1.00  0.00     0.099 C 
HETATM    2  C   UNL     1     -41.580  56.816 -50.933  1.00  0.00     0.079 C 
HETATM    3  S   UNL     1     -43.264  56.592 -51.217  1.00  0.00    -0.082 SA
HETATM    4  C   UNL     1     -43.497  57.503 -52.720  1.00  0.00     0.032 A 
HETATM    5  C   UNL     1     -42.627  58.518 -53.119  1.00  0.00     0.052 A 
HETATM    6  N   UNL     1     -41.462  58.812 -52.405  1.00  0.00    -0.321 N 
HETATM    7  C   UNL     1     -44.632  57.233 -53.497  1.00  0.00     0.021 A 
HETATM    8  C   UNL     1     -44.898  57.974 -54.650  1.00  0.00     0.002 A 
HETATM    9  C   UNL     1     -44.038  59.002 -55.028  1.00  0.00     0.002 A 
HETATM   10  C   UNL     1     -42.906  59.278 -54.261  1.00  0.00     0.031 A 
HETATM   11  C   UNL     1     -40.915  58.082 -51.391  1.00  0.00     0.263 C 
HETATM   12  O   UNL     1     -39.850  58.464 -50.899  1.00  0.00    -0.267 OA
HETATM   13  H   UNL     1     -40.901  59.606 -52.686  1.00  0.00     0.169 HD
ENDROOT
BRANCH   1  14
HETATM   14  C   UNL     1     -41.148  54.647 -49.691  1.00  0.00     0.247 C 
HETATM   15  N   UNL     1     -41.372  53.555 -50.479  1.00  0.00    -0.324 N 
HETATM   16  H   UNL     1     -41.884  52.854 -49.953  1.00  0.00     0.169 HD
HETATM   17  O   UNL     1     -41.373  54.526 -48.488  1.00  0.00    -0.268 OA
BRANCH  15  18
HETATM   18  C   UNL     1     -41.072  53.211 -51.807  1.00  0.00     0.035 A 
HETATM   19  C   UNL     1     -41.741  53.703 -52.929  1.00  0.00     0.029 A 
HETATM   20  C   UNL     1     -41.357  53.302 -54.213  1.00  0.00     0.002 A 
HETATM   21  C   UNL     1     -40.285  52.430 -54.389  1.00  0.00     0.000 A 
HETATM   22  C   UNL     1     -39.581  51.972 -53.280  1.00  0.00     0.002 A 
HETATM   23  C   UNL     1     -39.966  52.371 -51.999  1.00  0.00     0.029 A 
ENDBRANCH  15  18
ENDBRANCH   1  14
TORSDOF 2
ENDMDL
MODEL 5
REMARK VINA RESULT:      -7.2      4.992      6.225
REMARK  2 active torsions:
REMARK  status: ('A' for Active; 'I' for Inactive)
REMARK    1  A    between atoms: C_4  and  N_5 
REMARK       I    between atoms: N_5  and  C_6 
REMARK    2  A    between atoms: C_6  and  C_7 
ROOT
HETATM    1  C   UNL     1     -42.992  57.877 -53.549  1.00  0.00     0.099 C 
HETATM    2  C   UNL     1     -43.104  58.061 -54.880  1.00  0.00     0.079 C 
HETATM    3  S   UNL     1     -44.276  57.317 -55.900  1.00  0.00    -0.082 SA
HETATM    4  C   UNL     1     -43.402  57.228 -57.440  1.00  0.00     0.032 A 
HETATM    5  C   UNL     1     -42.328  58.067 -57.738  1.00  0.00     0.052 A 
HETATM    6  N   UNL     1     -41.812  58.963 -56.798  1.00  0.00    -0.321 N 
HETATM    7  C   UNL     1     -43.853  56.326 -58.413  1.00  0.00     0.021 A 
HETATM    8  C   UNL     1     -43.244  56.271 -59.669  1.00  0.00     0.002 A 
HETATM    9  C   UNL     1     -42.189  57.128 -59.967  1.00  0.00     0.002 A 
HETATM   10  C   UNL     1     -41.734  58.030 -59.005  1.00  0.00     0.031 A 
HETATM   11  C   UNL     1     -42.115  59.025 -55.469  1.00  0.00     0.263 C 
HETATM   12  O   UNL     1     -41.529  59.854 -54.770  1.00  0.00    -0.267 OA
HETATM   13  H   UNL     1     -41.083  59.606 -57.081  1.00  0.00     0.169 HD
ENDROOT
BRANCH   1  14
HETATM   14  C   UNL     1     -43.855  57.033 -52.686  1.00  0.00     0.247 C 
HETATM   15  N   UNL     1     -43.656  55.684 -52.616  1.00  0.00    -0.324 N 
HETATM   16  H   UNL     1     -44.480  55.238 -52.226  1.00  0.00     0.169 HD
HETATM   17  O   UNL     1     -44.830  57.487 -52.089  1.00  0.00    -0.268 OA
BRANCH  15  18
HETATM   18  C   UNL     1     -42.608  54.816 -52.966  1.00  0.00     0.035 A 
HETATM   19  C   UNL     1     -41.601  54.393 -52.097  1.00  0.00     0.029 A 
HETATM   20  C   UNL     1     -40.604  53.519 -52.545  1.00  0.00     0.002 A 
HETATM   21  C   UNL     1     -40.622  53.039 -53.853  1.00  0.00     0.000 A 
HETATM   22  C   UNL     1     -41.649  53.417 -54.712  1.00  0.00     0.002 A 
HETATM   23  C   UNL     1     -42.641  54.291 -54.264  1.00  0.00     0.029 A 
ENDBRANCH  15  18
ENDBRANCH   1  14
TORSDOF 2
ENDMDL
MODEL 6
REMARK VINA RESULT:      -7.1      2.872      7.333
REMARK  2 active torsions:
REMARK  status: ('A' for Active; 'I' for Inactive)
REMARK    1  A    between atoms: C_4  and  N_5 
REMARK       I    between atoms: N_5  and  C_6 
REMARK    2  A    between atoms: C_6  and  C_7 
ROOT
HETATM    1  C   UNL     1     -41.025  57.768 -53.997  1.00  0.00     0.099 C 
HETATM    2  C   UNL     1     -41.235  56.455 -53.774  1.00  0.00     0.079 C 
HETATM    3  S   UNL     1     -41.084  55.660 -52.254  1.00  0.00    -0.082 SA
HETATM    4  C   UNL     1     -40.611  54.025 -52.751  1.00  0.00     0.032 A 
HETATM    5  C   UNL     1     -40.885  53.525 -54.025  1.00  0.00     0.052 A 
HETATM    6  N   UNL     1     -41.463  54.319 -55.019  1.00  0.00    -0.321 N 
HETATM    7  C   UNL     1     -39.999  53.190 -51.808  1.00  0.00     0.021 A 
HETATM    8  C   UNL     1     -39.675  51.870 -52.130  1.00  0.00     0.002 A 
HETATM    9  C   UNL     1     -39.974  51.371 -53.394  1.00  0.00     0.002 A 
HETATM   10  C   UNL     1     -40.583  52.195 -54.340  1.00  0.00     0.031 A 
HETATM   11  C   UNL     1     -41.657  55.669 -54.981  1.00  0.00     0.263 C 
HETATM   12  O   UNL     1     -42.143  56.221 -55.971  1.00  0.00    -0.267 OA
HETATM   13  H   UNL     1     -41.714  53.895 -55.903  1.00  0.00     0.169 HD
ENDROOT
BRANCH   1  14
HETATM   14  C   UNL     1     -40.656  58.799 -52.996  1.00  0.00     0.247 C 
HETATM   15  N   UNL     1     -41.625  59.494 -52.330  1.00  0.00    -0.324 N 
HETATM   16  H   UNL     1     -41.221  60.327 -51.914  1.00  0.00     0.169 HD
HETATM   17  O   UNL     1     -39.490  59.137 -52.801  1.00  0.00    -0.268 OA
BRANCH  15  18
HETATM   18  C   UNL     1     -43.002  59.320 -52.117  1.00  0.00     0.035 A 
HETATM   19  C   UNL     1     -43.567  58.310 -51.337  1.00  0.00     0.029 A 
HETATM   20  C   UNL     1     -44.956  58.230 -51.183  1.00  0.00     0.002 A 
HETATM   21  C   UNL     1     -45.788  59.172 -51.783  1.00  0.00     0.000 A 
HETATM   22  C   UNL     1     -45.232  60.211 -52.522  1.00  0.00     0.002 A 
HETATM   23  C   UNL     1     -43.846  60.289 -52.677  1.00  0.00     0.029 A 
ENDBRANCH  15  18
ENDBRANCH   1  14
TORSDOF 2
ENDMDL
MODEL 7
REMARK VINA RESULT:      -7.1     14.941     16.838
REMARK  2 active torsions:
REMARK  status: ('A' for Active; 'I' for Inactive)
REMARK    1  A    between atoms: C_4  and  N_5 
REMARK       I    between atoms: N_5  and  C_6 
REMARK    2  A    between atoms: C_6  and  C_7 
ROOT
HETATM    1  C   UNL     1     -35.302  40.571 -54.065  1.00  0.00     0.099 C 
HETATM    2  C   UNL     1     -35.282  40.622 -55.412  1.00  0.00     0.079 C 
HETATM    3  S   UNL     1     -35.453  42.046 -56.365  1.00  0.00    -0.082 SA
HETATM    4  C   UNL     1     -36.202  41.402 -57.838  1.00  0.00     0.032 A 
HETATM    5  C   UNL     1     -36.091  40.060 -58.205  1.00  0.00     0.052 A 
HETATM    6  N   UNL     1     -35.464  39.121 -57.381  1.00  0.00    -0.321 N 
HETATM    7  C   UNL     1     -36.871  42.289 -58.691  1.00  0.00     0.021 A 
HETATM    8  C   UNL     1     -37.414  41.844 -59.898  1.00  0.00     0.002 A 
HETATM    9  C   UNL     1     -37.277  40.509 -60.269  1.00  0.00     0.002 A 
HETATM   10  C   UNL     1     -36.612  39.618 -59.427  1.00  0.00     0.031 A 
HETATM   11  C   UNL     1     -35.063  39.300 -56.090  1.00  0.00     0.263 C 
HETATM   12  O   UNL     1     -34.565  38.344 -55.491  1.00  0.00    -0.267 OA
HETATM   13  H   UNL     1     -35.338  38.176 -57.721  1.00  0.00     0.169 HD
ENDROOT
BRANCH   1  14
HETATM   14  C   UNL     1     -35.444  41.714 -53.129  1.00  0.00     0.247 C 
HETATM   15  N   UNL     1     -34.878  41.663 -51.886  1.00  0.00    -0.324 N 
HETATM   16  H   UNL     1     -35.298  42.371 -51.292  1.00  0.00     0.169 HD
HETATM   17  O   UNL     1     -36.147  42.689 -53.385  1.00  0.00    -0.268 OA
BRANCH  15  18
HETATM   18  C   UNL     1     -33.894  40.868 -51.275  1.00  0.00     0.035 A 
HETATM   19  C   UNL     1     -32.545  40.859 -51.630  1.00  0.00     0.029 A 
HETATM   20  C   UNL     1     -31.642  40.033 -50.951  1.00  0.00     0.002 A 
HETATM   21  C   UNL     1     -32.074  39.233 -49.896  1.00  0.00     0.000 A 
HETATM   22  C   UNL     1     -33.409  39.271 -49.503  1.00  0.00     0.002 A 
HETATM   23  C   UNL     1     -34.308  40.094 -50.183  1.00  0.00     0.029 A 
ENDBRANCH  15  18
ENDBRANCH   1  14
TORSDOF 2
ENDMDL
MODEL 8
REMARK VINA RESULT:      -7.1      3.427      4.865
REMARK  2 active torsions:
REMARK  status: ('A' for Active; 'I' for Inactive)
REMARK    1  A    between atoms: C_4  and  N_5 
REMARK       I    between atoms: N_5  and  C_6 
REMARK    2  A    between atoms: C_6  and  C_7 
ROOT
HETATM    1  C   UNL     1     -42.602  58.008 -54.842  1.00  0.00     0.099 C 
HETATM    2  C   UNL     1     -42.728  58.370 -53.550  1.00  0.00     0.079 C 
HETATM    3  S   UNL     1     -43.969  57.845 -52.478  1.00  0.00    -0.082 SA
HETATM    4  C   UNL     1     -44.104  59.232 -51.382  1.00  0.00     0.032 A 
HETATM    5  C   UNL     1     -43.064  60.146 -51.204  1.00  0.00     0.052 A 
HETATM    6  N   UNL     1     -41.887  60.077 -51.955  1.00  0.00    -0.321 N 
HETATM    7  C   UNL     1     -45.273  59.374 -50.622  1.00  0.00     0.021 A 
HETATM    8  C   UNL     1     -45.396  60.408 -49.692  1.00  0.00     0.002 A 
HETATM    9  C   UNL     1     -44.345  61.300 -49.502  1.00  0.00     0.002 A 
HETATM   10  C   UNL     1     -43.177  61.167 -50.253  1.00  0.00     0.031 A 
HETATM   11  C   UNL     1     -41.654  59.290 -53.045  1.00  0.00     0.263 C 
HETATM   12  O   UNL     1     -40.568  59.389 -53.620  1.00  0.00    -0.267 OA
HETATM   13  H   UNL     1     -41.129  60.712 -51.740  1.00  0.00     0.169 HD
ENDROOT
BRANCH   1  14
HETATM   14  C   UNL     1     -43.471  57.073 -55.599  1.00  0.00     0.247 C 
HETATM   15  N   UNL     1     -43.189  55.737 -55.629  1.00  0.00    -0.324 N 
HETATM   16  H   UNL     1     -43.690  55.300 -56.395  1.00  0.00     0.169 HD
HETATM   17  O   UNL     1     -44.402  57.465 -56.300  1.00  0.00    -0.268 OA
BRANCH  15  18
HETATM   18  C   UNL     1     -42.379  54.877 -54.869  1.00  0.00     0.035 A 
HETATM   19  C   UNL     1     -42.712  54.374 -53.611  1.00  0.00     0.029 A 
HETATM   20  C   UNL     1     -41.835  53.514 -52.939  1.00  0.00     0.002 A 
HETATM   21  C   UNL     1     -40.634  53.129 -53.530  1.00  0.00     0.000 A 
HETATM   22  C   UNL     1     -40.315  53.587 -54.805  1.00  0.00     0.002 A 
HETATM   23  C   UNL     1     -41.190  54.446 -55.473  1.00  0.00     0.029 A 
ENDBRANCH  15  18
ENDBRANCH   1  14
TORSDOF 2
ENDMDL
MODEL 9
REMARK VINA RESULT:      -7.1     15.250     16.997
REMARK  2 active torsions:
REMARK  status: ('A' for Active; 'I' for Inactive)
REMARK    1  A    between atoms: C_4  and  N_5 
REMARK       I    between atoms: N_5  and  C_6 
REMARK    2  A    between atoms: C_6  and  C_7 
ROOT
HETATM    1  C   UNL     1     -35.977  41.126 -55.148  1.00  0.00     0.099 C 
HETATM    2  C   UNL     1     -35.103  40.504 -54.332  1.00  0.00     0.079 C 
HETATM    3  S   UNL     1     -35.517  39.511 -52.988  1.00  0.00    -0.082 SA
HETATM    4  C   UNL     1     -34.125  39.759 -51.918  1.00  0.00     0.032 A 
HETATM    5  C   UNL     1     -32.885  40.187 -52.395  1.00  0.00     0.052 A 
HETATM    6  N   UNL     1     -32.693  40.540 -53.734  1.00  0.00    -0.321 N 
HETATM    7  C   UNL     1     -34.263  39.452 -50.558  1.00  0.00     0.021 A 
HETATM    8  C   UNL     1     -33.174  39.561 -49.690  1.00  0.00     0.002 A 
HETATM    9  C   UNL     1     -31.935  39.964 -50.178  1.00  0.00     0.002 A 
HETATM   10  C   UNL     1     -31.787  40.272 -51.530  1.00  0.00     0.031 A 
HETATM   11  C   UNL     1     -33.657  40.707 -54.685  1.00  0.00     0.263 C 
HETATM   12  O   UNL     1     -33.314  41.068 -55.813  1.00  0.00    -0.267 OA
HETATM   13  H   UNL     1     -31.761  40.771 -54.052  1.00  0.00     0.169 HD
ENDROOT
BRANCH   1  14
HETATM   14  C   UNL     1     -37.459  41.067 -55.084  1.00  0.00     0.247 C 
HETATM   15  N   UNL     1     -38.202  41.107 -56.229  1.00  0.00    -0.324 N 
HETATM   16  H   UNL     1     -39.164  41.341 -56.003  1.00  0.00     0.169 HD
HETATM   17  O   UNL     1     -38.071  41.082 -54.018  1.00  0.00    -0.268 OA
BRANCH  15  18
HETATM   18  C   UNL     1     -37.933  40.917 -57.594  1.00  0.00     0.035 A 
HETATM   19  C   UNL     1     -37.405  41.889 -58.446  1.00  0.00     0.029 A 
HETATM   20  C   UNL     1     -37.166  41.594 -59.792  1.00  0.00     0.002 A 
HETATM   21  C   UNL     1     -37.426  40.320 -60.292  1.00  0.00     0.000 A 
HETATM   22  C   UNL     1     -37.906  39.330 -59.440  1.00  0.00     0.002 A 
HETATM   23  C   UNL     1     -38.146  39.627 -58.098  1.00  0.00     0.029 A 
ENDBRANCH  15  18
ENDBRANCH   1  14
TORSDOF 2
ENDMDL
MODEL 10
REMARK VINA RESULT:      -7.1      1.788      7.737
REMARK  2 active torsions:
REMARK  status: ('A' for Active; 'I' for Inactive)
REMARK    1  A    between atoms: C_4  and  N_5 
REMARK       I    between atoms: N_5  and  C_6 
REMARK    2  A    between atoms: C_6  and  C_7 
ROOT
HETATM    1  C   UNL     1     -43.170  56.548 -51.551  1.00  0.00     0.099 C 
HETATM    2  C   UNL     1     -42.095  55.778 -51.811  1.00  0.00     0.079 C 
HETATM    3  S   UNL     1     -41.511  55.365 -53.377  1.00  0.00    -0.082 SA
HETATM    4  C   UNL     1     -40.773  53.781 -53.077  1.00  0.00     0.032 A 
HETATM    5  C   UNL     1     -40.351  53.384 -51.807  1.00  0.00     0.052 A 
HETATM    6  N   UNL     1     -40.577  54.174 -50.676  1.00  0.00    -0.321 N 
HETATM    7  C   UNL     1     -40.548  52.930 -54.167  1.00  0.00     0.021 A 
HETATM    8  C   UNL     1     -39.903  51.704 -53.991  1.00  0.00     0.002 A 
HETATM    9  C   UNL     1     -39.463  51.326 -52.726  1.00  0.00     0.002 A 
HETATM   10  C   UNL     1     -39.682  52.167 -51.634  1.00  0.00     0.031 A 
HETATM   11  C   UNL     1     -41.363  55.286 -50.595  1.00  0.00     0.263 C 
HETATM   12  O   UNL     1     -41.488  55.839 -49.500  1.00  0.00    -0.267 OA
HETATM   13  H   UNL     1     -40.187  53.883 -49.788  1.00  0.00     0.169 HD
ENDROOT
BRANCH   1  14
HETATM   14  C   UNL     1     -44.051  57.218 -52.540  1.00  0.00     0.247 C 
HETATM   15  N   UNL     1     -44.635  58.417 -52.244  1.00  0.00    -0.324 N 
HETATM   16  H   UNL     1     -45.404  58.588 -52.884  1.00  0.00     0.169 HD
HETATM   17  O   UNL     1     -44.369  56.687 -53.602  1.00  0.00    -0.268 OA
BRANCH  15  18
HETATM   18  C   UNL     1     -44.420  59.415 -51.280  1.00  0.00     0.035 A 
HETATM   19  C   UNL     1     -43.290  60.231 -51.216  1.00  0.00     0.029 A 
HETATM   20  C   UNL     1     -43.177  61.204 -50.216  1.00  0.00     0.002 A 
HETATM   21  C   UNL     1     -44.201  61.387 -49.290  1.00  0.00     0.000 A 
HETATM   22  C   UNL     1     -45.353  60.610 -49.375  1.00  0.00     0.002 A 
HETATM   23  C   UNL     1     -45.464  59.639 -50.372  1.00  0.00     0.029 A 
ENDBRANCH  15  18
ENDBRANCH   1  14
TORSDOF 2
ENDMDL
