MODEL 1
REMARK VINA RESULT:      -8.1      0.000      0.000
REMARK  3 active torsions:
REMARK  status: ('A' for Active; 'I' for Inactive)
REMARK    1  A    between atoms: C_3  and  N_4 
REMARK       I    between atoms: N_4  and  C_5 
REMARK    2  A    between atoms: C_5  and  C_6 
REMARK    3  A    between atoms: C_6  and  C_7 
ROOT
HETATM    1  C   UNL     1     -42.616  55.668 -55.639  1.00  0.00     0.286 C 
HETATM    2  N   UNL     1     -43.176  55.001 -56.903  1.00  0.00    -0.056 N 
HETATM    3  H   UNL     1     -42.546  54.222 -57.174  1.00  0.00     0.278 HD
HETATM    4  H   UNL     1     -44.091  54.581 -56.696  1.00  0.00     0.278 HD
HETATM    5  C   UNL     1     -43.270  55.903 -58.108  1.00  0.00     0.209 C 
HETATM    6  C   UNL     1     -43.993  57.205 -57.718  1.00  0.00     0.115 C 
HETATM    7  N   UNL     1     -43.307  57.865 -56.620  1.00  0.00    -0.353 N 
HETATM    8  C   UNL     1     -42.671  57.210 -55.604  1.00  0.00     0.249 C 
HETATM    9  O   UNL     1     -42.129  57.854 -54.710  1.00  0.00    -0.271 OA
HETATM   10  C   UNL     1     -43.993  55.179 -59.238  1.00  0.00     0.035 C 
HETATM   11  C   UNL     1     -44.100  56.092 -60.459  1.00  0.00     0.002 C 
HETATM   12  C   UNL     1     -44.758  57.429 -60.119  1.00  0.00     0.002 C 
HETATM   13  C   UNL     1     -44.088  58.128 -58.936  1.00  0.00     0.027 C 
HETATM   14  H   UNL     1     -43.396  58.873 -56.495  1.00  0.00     0.163 HD
ENDROOT
BRANCH   1  15
HETATM   15  C   UNL     1     -41.197  55.187 -55.313  1.00  0.00     0.146 C 
BRANCH  15  16
HETATM   16  C   UNL     1     -41.291  53.983 -54.418  1.00  0.00     0.224 C 
HETATM   17  N   UNL     1     -40.082  53.413 -54.095  1.00  0.00    -0.327 N 
HETATM   18  H   UNL     1     -39.255  53.761 -54.576  1.00  0.00     0.169 HD
HETATM   19  O   UNL     1     -42.416  53.518 -54.228  1.00  0.00    -0.273 OA
BRANCH  17  20
HETATM   20  C   UNL     1     -39.903  52.169 -53.440  1.00  0.00     0.040 A 
HETATM   21  C   UNL     1     -39.788  51.985 -52.051  1.00  0.00    -0.035 A 
HETATM   22  C   UNL     1     -39.660  53.095 -51.045  1.00  0.00     0.050 C 
HETATM   23  C   UNL     1     -39.716  50.671 -51.545  1.00  0.00     0.009 A 
HETATM   24  C   UNL     1     -39.690  49.567 -52.396  1.00  0.00     0.001 A 
HETATM   25  C   UNL     1     -39.725  49.757 -53.770  1.00  0.00     0.002 A 
HETATM   26  C   UNL     1     -39.821  51.050 -54.289  1.00  0.00     0.030 A 
ENDBRANCH  17  20
ENDBRANCH  15  16
ENDBRANCH   1  15
TORSDOF 3
ENDMDL
MODEL 2
REMARK VINA RESULT:      -8.0      2.513      3.576
REMARK  3 active torsions:
REMARK  status: ('A' for Active; 'I' for Inactive)
REMARK    1  A    between atoms: C_3  and  N_4 
REMARK       I    between atoms: N_4  and  C_5 
REMARK    2  A    between atoms: C_5  and  C_6 
REMARK    3  A    between atoms: C_6  and  C_7 
ROOT
HETATM    1  C   UNL     1     -42.086  56.185 -51.376  1.00  0.00     0.286 C 
HETATM    2  N   UNL     1     -42.659  55.302 -52.492  1.00  0.00    -0.056 N 
HETATM    3  H   UNL     1     -42.277  54.342 -52.385  1.00  0.00     0.278 HD
HETATM    4  H   UNL     1     -43.679  55.226 -52.385  1.00  0.00     0.278 HD
HETATM    5  C   UNL     1     -42.308  55.739 -53.892  1.00  0.00     0.209 C 
HETATM    6  C   UNL     1     -42.629  57.236 -54.056  1.00  0.00     0.115 C 
HETATM    7  N   UNL     1     -41.918  58.026 -53.065  1.00  0.00    -0.353 N 
HETATM    8  C   UNL     1     -41.656  57.609 -51.791  1.00  0.00     0.249 C 
HETATM    9  O   UNL     1     -41.060  58.353 -51.018  1.00  0.00    -0.271 OA
HETATM   10  C   UNL     1     -43.071  54.891 -54.903  1.00  0.00     0.035 C 
HETATM   11  C   UNL     1     -42.726  55.336 -56.324  1.00  0.00     0.002 C 
HETATM   12  C   UNL     1     -42.968  56.831 -56.531  1.00  0.00     0.002 C 
HETATM   13  C   UNL     1     -42.270  57.689 -55.474  1.00  0.00     0.027 C 
HETATM   14  H   UNL     1     -41.700  59.003 -53.252  1.00  0.00     0.163 HD
ENDROOT
BRANCH   1  15
HETATM   15  C   UNL     1     -40.945  55.493 -50.621  1.00  0.00     0.146 C 
BRANCH  15  16
HETATM   16  C   UNL     1     -41.050  54.011 -50.848  1.00  0.00     0.224 C 
HETATM   17  N   UNL     1     -39.953  53.445 -51.456  1.00  0.00    -0.327 N 
HETATM   18  H   UNL     1     -39.236  54.074 -51.811  1.00  0.00     0.169 HD
HETATM   19  O   UNL     1     -42.151  53.495 -50.656  1.00  0.00    -0.273 OA
BRANCH  17  20
HETATM   20  C   UNL     1     -39.878  52.122 -51.960  1.00  0.00     0.040 A 
HETATM   21  C   UNL     1     -39.908  51.762 -53.318  1.00  0.00    -0.035 A 
HETATM   22  C   UNL     1     -40.201  52.706 -54.452  1.00  0.00     0.050 C 
HETATM   23  C   UNL     1     -39.720  50.408 -53.664  1.00  0.00     0.009 A 
HETATM   24  C   UNL     1     -39.574  49.424 -52.689  1.00  0.00     0.001 A 
HETATM   25  C   UNL     1     -39.624  49.774 -51.347  1.00  0.00     0.002 A 
HETATM   26  C   UNL     1     -39.784  51.113 -50.985  1.00  0.00     0.030 A 
ENDBRANCH  17  20
ENDBRANCH  15  16
ENDBRANCH   1  15
TORSDOF 3
ENDMDL
MODEL 3
REMARK VINA RESULT:      -7.9      2.173      7.497
REMARK  3 active torsions:
REMARK  status: ('A' for Active; 'I' for Inactive)
REMARK    1  A    between atoms: C_3  and  N_4 
REMARK       I    between atoms: N_4  and  C_5 
REMARK    2  A    between atoms: C_5  and  C_6 
REMARK    3  A    between atoms: C_6  and  C_7 
ROOT
HETATM    1  C   UNL     1     -40.624  54.273 -51.357  1.00  0.00     0.286 C 
HETATM    2  N   UNL     1     -40.338  53.709 -52.755  1.00  0.00    -0.056 N 
HETATM    3  H   UNL     1     -41.026  54.110 -53.422  1.00  0.00     0.278 HD
HETATM    4  H   UNL     1     -39.410  54.019 -53.070  1.00  0.00     0.278 HD
HETATM    5  C   UNL     1     -40.462  52.211 -52.875  1.00  0.00     0.209 C 
HETATM    6  C   UNL     1     -39.648  51.539 -51.753  1.00  0.00     0.115 C 
HETATM    7  N   UNL     1     -40.090  52.001 -50.448  1.00  0.00    -0.353 N 
HETATM    8  C   UNL     1     -40.530  53.268 -50.188  1.00  0.00     0.249 C 
HETATM    9  O   UNL     1     -40.871  53.571 -49.048  1.00  0.00    -0.271 OA
HETATM   10  C   UNL     1     -39.990  51.763 -54.253  1.00  0.00     0.035 C 
HETATM   11  C   UNL     1     -40.105  50.244 -54.376  1.00  0.00     0.002 C 
HETATM   12  C   UNL     1     -39.363  49.520 -53.252  1.00  0.00     0.002 C 
HETATM   13  C   UNL     1     -39.773  50.017 -51.865  1.00  0.00     0.027 C 
HETATM   14  H   UNL     1     -39.957  51.413 -49.627  1.00  0.00     0.163 HD
ENDROOT
BRANCH   1  15
HETATM   15  C   UNL     1     -41.963  55.019 -51.298  1.00  0.00     0.146 C 
BRANCH  15  16
HETATM   16  C   UNL     1     -42.101  55.854 -52.541  1.00  0.00     0.224 C 
HETATM   17  N   UNL     1     -43.106  55.454 -53.391  1.00  0.00    -0.327 N 
HETATM   18  H   UNL     1     -43.577  54.577 -53.182  1.00  0.00     0.169 HD
HETATM   19  O   UNL     1     -41.203  56.665 -52.769  1.00  0.00    -0.273 OA
BRANCH  17  20
HETATM   20  C   UNL     1     -43.317  55.937 -54.706  1.00  0.00     0.040 A 
HETATM   21  C   UNL     1     -43.994  57.122 -55.044  1.00  0.00    -0.035 A 
HETATM   22  C   UNL     1     -44.758  57.981 -54.074  1.00  0.00     0.050 C 
HETATM   23  C   UNL     1     -44.033  57.519 -56.396  1.00  0.00     0.009 A 
HETATM   24  C   UNL     1     -43.474  56.730 -57.400  1.00  0.00     0.001 A 
HETATM   25  C   UNL     1     -42.875  55.522 -57.070  1.00  0.00     0.002 A 
HETATM   26  C   UNL     1     -42.806  55.124 -55.734  1.00  0.00     0.030 A 
ENDBRANCH  17  20
ENDBRANCH  15  16
ENDBRANCH   1  15
TORSDOF 3
ENDMDL
MODEL 4
REMARK VINA RESULT:      -7.7      2.490      3.942
REMARK  3 active torsions:
REMARK  status: ('A' for Active; 'I' for Inactive)
REMARK    1  A    between atoms: C_3  and  N_4 
REMARK       I    between atoms: N_4  and  C_5 
REMARK    2  A    between atoms: C_5  and  C_6 
REMARK    3  A    between atoms: C_6  and  C_7 
ROOT
HETATM    1  C   UNL     1     -41.543  56.342 -54.633  1.00  0.00     0.286 C 
HETATM    2  N   UNL     1     -41.961  56.255 -53.159  1.00  0.00    -0.056 N 
HETATM    3  H   UNL     1     -42.004  55.255 -52.885  1.00  0.00     0.278 HD
HETATM    4  H   UNL     1     -41.242  56.691 -52.569  1.00  0.00     0.278 HD
HETATM    5  C   UNL     1     -43.319  56.833 -52.849  1.00  0.00     0.209 C 
HETATM    6  C   UNL     1     -43.420  58.251 -53.443  1.00  0.00     0.115 C 
HETATM    7  N   UNL     1     -43.173  58.227 -54.875  1.00  0.00    -0.353 N 
HETATM    8  C   UNL     1     -42.293  57.384 -55.491  1.00  0.00     0.249 C 
HETATM    9  O   UNL     1     -42.141  57.446 -56.708  1.00  0.00    -0.271 OA
HETATM   10  C   UNL     1     -43.543  56.843 -51.341  1.00  0.00     0.035 C 
HETATM   11  C   UNL     1     -44.914  57.438 -51.020  1.00  0.00     0.002 C 
HETATM   12  C   UNL     1     -45.095  58.825 -51.636  1.00  0.00     0.002 C 
HETATM   13  C   UNL     1     -44.798  58.843 -53.136  1.00  0.00     0.027 C 
HETATM   14  H   UNL     1     -43.564  58.954 -55.472  1.00  0.00     0.163 HD
ENDROOT
BRANCH   1  15
HETATM   15  C   UNL     1     -41.578  54.973 -55.324  1.00  0.00     0.146 C 
BRANCH  15  16
HETATM   16  C   UNL     1     -41.500  53.903 -54.272  1.00  0.00     0.224 C 
HETATM   17  N   UNL     1     -40.276  53.282 -54.176  1.00  0.00    -0.327 N 
HETATM   18  H   UNL     1     -39.582  53.499 -54.888  1.00  0.00     0.169 HD
HETATM   19  O   UNL     1     -42.560  53.556 -53.749  1.00  0.00    -0.273 OA
BRANCH  17  20
HETATM   20  C   UNL     1     -39.996  52.119 -53.415  1.00  0.00     0.040 A 
HETATM   21  C   UNL     1     -39.827  52.075 -52.021  1.00  0.00    -0.035 A 
HETATM   22  C   UNL     1     -39.742  53.282 -51.127  1.00  0.00     0.050 C 
HETATM   23  C   UNL     1     -39.654  50.822 -51.398  1.00  0.00     0.009 A 
HETATM   24  C   UNL     1     -39.581  49.646 -52.142  1.00  0.00     0.001 A 
HETATM   25  C   UNL     1     -39.670  49.703 -53.526  1.00  0.00     0.002 A 
HETATM   26  C   UNL     1     -39.866  50.932 -54.158  1.00  0.00     0.030 A 
ENDBRANCH  17  20
ENDBRANCH  15  16
ENDBRANCH   1  15
TORSDOF 3
ENDMDL
MODEL 5
REMARK VINA RESULT:      -7.7      3.415      7.992
REMARK  3 active torsions:
REMARK  status: ('A' for Active; 'I' for Inactive)
REMARK    1  A    between atoms: C_3  and  N_4 
REMARK       I    between atoms: N_4  and  C_5 
REMARK    2  A    between atoms: C_5  and  C_6 
REMARK    3  A    between atoms: C_6  and  C_7 
ROOT
HETATM    1  C   UNL     1     -41.113  54.753 -50.537  1.00  0.00     0.286 C 
HETATM    2  N   UNL     1     -40.922  54.559 -52.047  1.00  0.00    -0.056 N 
HETATM    3  H   UNL     1     -41.743  54.959 -52.540  1.00  0.00     0.278 HD
HETATM    4  H   UNL     1     -40.101  55.090 -52.363  1.00  0.00     0.278 HD
HETATM    5  C   UNL     1     -40.824  53.122 -52.496  1.00  0.00     0.209 C 
HETATM    6  C   UNL     1     -39.779  52.387 -51.636  1.00  0.00     0.115 C 
HETATM    7  N   UNL     1     -40.119  52.476 -50.226  1.00  0.00    -0.353 N 
HETATM    8  C   UNL     1     -40.715  53.558 -49.644  1.00  0.00     0.249 C 
HETATM    9  O   UNL     1     -40.952  53.547 -48.439  1.00  0.00    -0.271 OA
HETATM   10  C   UNL     1     -40.466  53.068 -53.977  1.00  0.00     0.035 C 
HETATM   11  C   UNL     1     -40.356  51.614 -54.435  1.00  0.00     0.002 C 
HETATM   12  C   UNL     1     -39.374  50.816 -53.577  1.00  0.00     0.002 C 
HETATM   13  C   UNL     1     -39.677  50.926 -52.083  1.00  0.00     0.027 C 
HETATM   14  H   UNL     1     -39.792  51.762 -49.577  1.00  0.00     0.163 HD
ENDROOT
BRANCH   1  15
HETATM   15  C   UNL     1     -42.534  55.215 -50.190  1.00  0.00     0.146 C 
BRANCH  15  16
HETATM   16  C   UNL     1     -42.832  56.468 -50.964  1.00  0.00     0.224 C 
HETATM   17  N   UNL     1     -44.041  56.462 -51.621  1.00  0.00    -0.327 N 
HETATM   18  H   UNL     1     -44.563  55.589 -51.636  1.00  0.00     0.169 HD
HETATM   19  O   UNL     1     -41.910  57.274 -51.097  1.00  0.00    -0.273 OA
BRANCH  17  20
HETATM   20  C   UNL     1     -44.471  57.422 -52.571  1.00  0.00     0.040 A 
HETATM   21  C   UNL     1     -44.952  58.709 -52.273  1.00  0.00    -0.035 A 
HETATM   22  C   UNL     1     -45.254  59.214 -50.889  1.00  0.00     0.050 C 
HETATM   23  C   UNL     1     -45.246  59.586 -53.337  1.00  0.00     0.009 A 
HETATM   24  C   UNL     1     -45.131  59.179 -54.665  1.00  0.00     0.001 A 
HETATM   25  C   UNL     1     -44.732  57.881 -54.953  1.00  0.00     0.002 A 
HETATM   26  C   UNL     1     -44.413  57.007 -53.913  1.00  0.00     0.030 A 
ENDBRANCH  17  20
ENDBRANCH  15  16
ENDBRANCH   1  15
TORSDOF 3
ENDMDL
MODEL 6
REMARK VINA RESULT:      -7.5      4.535      8.261
REMARK  3 active torsions:
REMARK  status: ('A' for Active; 'I' for Inactive)
REMARK    1  A    between atoms: C_3  and  N_4 
REMARK       I    between atoms: N_4  and  C_5 
REMARK    2  A    between atoms: C_5  and  C_6 
REMARK    3  A    between atoms: C_6  and  C_7 
ROOT
HETATM    1  C   UNL     1     -40.821  54.320 -51.446  1.00  0.00     0.286 C 
HETATM    2  N   UNL     1     -40.565  53.743 -52.844  1.00  0.00    -0.056 N 
HETATM    3  H   UNL     1     -41.315  54.073 -53.482  1.00  0.00     0.278 HD
HETATM    4  H   UNL     1     -39.680  54.112 -53.214  1.00  0.00     0.278 HD
HETATM    5  C   UNL     1     -40.581  52.237 -52.923  1.00  0.00     0.209 C 
HETATM    6  C   UNL     1     -39.661  51.658 -51.831  1.00  0.00     0.115 C 
HETATM    7  N   UNL     1     -40.070  52.120 -50.515  1.00  0.00    -0.353 N 
HETATM    8  C   UNL     1     -40.591  53.357 -50.261  1.00  0.00     0.249 C 
HETATM    9  O   UNL     1     -40.896  53.664 -49.112  1.00  0.00    -0.271 OA
HETATM   10  C   UNL     1     -40.147  51.788 -54.313  1.00  0.00     0.035 C 
HETATM   11  C   UNL     1     -40.152  50.262 -54.395  1.00  0.00     0.002 C 
HETATM   12  C   UNL     1     -39.301  49.627 -53.296  1.00  0.00     0.002 C 
HETATM   13  C   UNL     1     -39.676  50.128 -51.901  1.00  0.00     0.027 C 
HETATM   14  H   UNL     1     -39.851  51.566 -49.689  1.00  0.00     0.163 HD
ENDROOT
BRANCH   1  15
HETATM   15  C   UNL     1     -42.208  54.966 -51.334  1.00  0.00     0.146 C 
BRANCH  15  16
HETATM   16  C   UNL     1     -42.094  56.415 -51.714  1.00  0.00     0.224 C 
HETATM   17  N   UNL     1     -42.881  57.266 -50.973  1.00  0.00    -0.327 N 
HETATM   18  H   UNL     1     -43.553  56.847 -50.333  1.00  0.00     0.169 HD
HETATM   19  O   UNL     1     -41.481  56.673 -52.751  1.00  0.00    -0.273 OA
BRANCH  17  20
HETATM   20  C   UNL     1     -43.112  58.636 -51.255  1.00  0.00     0.040 A 
HETATM   21  C   UNL     1     -42.242  59.693 -50.937  1.00  0.00    -0.035 A 
HETATM   22  C   UNL     1     -41.005  59.564 -50.091  1.00  0.00     0.050 C 
HETATM   23  C   UNL     1     -42.567  60.993 -51.375  1.00  0.00     0.009 A 
HETATM   24  C   UNL     1     -43.757  61.254 -52.053  1.00  0.00     0.001 A 
HETATM   25  C   UNL     1     -44.650  60.219 -52.294  1.00  0.00     0.002 A 
HETATM   26  C   UNL     1     -44.334  58.921 -51.890  1.00  0.00     0.030 A 
ENDBRANCH  17  20
ENDBRANCH  15  16
ENDBRANCH   1  15
TORSDOF 3
ENDMDL
MODEL 7
REMARK VINA RESULT:      -7.4      2.427      7.867
REMARK  3 active torsions:
REMARK  status: ('A' for Active; 'I' for Inactive)
REMARK    1  A    between atoms: C_3  and  N_4 
REMARK       I    between atoms: N_4  and  C_5 
REMARK    2  A    between atoms: C_5  and  C_6 
REMARK    3  A    between atoms: C_6  and  C_7 
ROOT
HETATM    1  C   UNL     1     -42.259  55.748 -56.001  1.00  0.00     0.286 C 
HETATM    2  N   UNL     1     -41.129  54.731 -55.792  1.00  0.00    -0.056 N 
HETATM    3  H   UNL     1     -41.112  54.082 -56.602  1.00  0.00     0.278 HD
HETATM    4  H   UNL     1     -40.223  55.217 -55.786  1.00  0.00     0.278 HD
HETATM    5  C   UNL     1     -41.271  53.866 -54.564  1.00  0.00     0.209 C 
HETATM    6  C   UNL     1     -41.541  54.759 -53.338  1.00  0.00     0.115 C 
HETATM    7  N   UNL     1     -42.725  55.575 -53.547  1.00  0.00    -0.353 N 
HETATM    8  C   UNL     1     -43.102  56.091 -54.754  1.00  0.00     0.249 C 
HETATM    9  O   UNL     1     -44.114  56.782 -54.831  1.00  0.00    -0.271 OA
HETATM   10  C   UNL     1     -40.013  53.027 -54.377  1.00  0.00     0.035 C 
HETATM   11  C   UNL     1     -40.147  52.155 -53.128  1.00  0.00     0.002 C 
HETATM   12  C   UNL     1     -40.476  52.982 -51.885  1.00  0.00     0.002 C 
HETATM   13  C   UNL     1     -41.692  53.887 -52.088  1.00  0.00     0.027 C 
HETATM   14  H   UNL     1     -43.260  55.911 -52.748  1.00  0.00     0.163 HD
ENDROOT
BRANCH   1  15
HETATM   15  C   UNL     1     -43.178  55.357 -57.164  1.00  0.00     0.146 C 
BRANCH  15  16
HETATM   16  C   UNL     1     -43.271  56.518 -58.114  1.00  0.00     0.224 C 
HETATM   17  N   UNL     1     -42.139  57.298 -58.178  1.00  0.00    -0.327 N 
HETATM   18  H   UNL     1     -41.400  57.109 -57.504  1.00  0.00     0.169 HD
HETATM   19  O   UNL     1     -44.383  56.771 -58.578  1.00  0.00    -0.273 OA
BRANCH  17  20
HETATM   20  C   UNL     1     -42.034  58.550 -58.832  1.00  0.00     0.040 A 
HETATM   21  C   UNL     1     -41.930  59.799 -58.195  1.00  0.00    -0.035 A 
HETATM   22  C   UNL     1     -42.091  60.026 -56.717  1.00  0.00     0.050 C 
HETATM   23  C   UNL     1     -41.730  60.949 -58.987  1.00  0.00     0.009 A 
HETATM   24  C   UNL     1     -41.700  60.875 -60.378  1.00  0.00     0.001 A 
HETATM   25  C   UNL     1     -41.881  59.651 -61.005  1.00  0.00     0.002 A 
HETATM   26  C   UNL     1     -42.056  58.498 -60.238  1.00  0.00     0.030 A 
ENDBRANCH  17  20
ENDBRANCH  15  16
ENDBRANCH   1  15
TORSDOF 3
ENDMDL
MODEL 8
REMARK VINA RESULT:      -7.4      1.810      7.534
REMARK  3 active torsions:
REMARK  status: ('A' for Active; 'I' for Inactive)
REMARK    1  A    between atoms: C_3  and  N_4 
REMARK       I    between atoms: N_4  and  C_5 
REMARK    2  A    between atoms: C_5  and  C_6 
REMARK    3  A    between atoms: C_6  and  C_7 
ROOT
HETATM    1  C   UNL     1     -41.887  56.323 -53.263  1.00  0.00     0.286 C 
HETATM    2  N   UNL     1     -41.161  55.310 -54.159  1.00  0.00    -0.056 N 
HETATM    3  H   UNL     1     -41.687  55.217 -55.049  1.00  0.00     0.278 HD
HETATM    4  H   UNL     1     -40.230  55.670 -54.403  1.00  0.00     0.278 HD
HETATM    5  C   UNL     1     -41.055  53.918 -53.588  1.00  0.00     0.209 C 
HETATM    6  C   UNL     1     -40.498  53.995 -52.154  1.00  0.00     0.115 C 
HETATM    7  N   UNL     1     -41.335  54.843 -51.321  1.00  0.00    -0.353 N 
HETATM    8  C   UNL     1     -41.987  55.957 -51.767  1.00  0.00     0.249 C 
HETATM    9  O   UNL     1     -42.662  56.620 -50.985  1.00  0.00    -0.271 OA
HETATM   10  C   UNL     1     -40.172  53.059 -54.484  1.00  0.00     0.035 C 
HETATM   11  C   UNL     1     -40.053  51.650 -53.905  1.00  0.00     0.002 C 
HETATM   12  C   UNL     1     -39.560  51.665 -52.458  1.00  0.00     0.002 C 
HETATM   13  C   UNL     1     -40.392  52.585 -51.565  1.00  0.00     0.027 C 
HETATM   14  H   UNL     1     -41.356  54.705 -50.312  1.00  0.00     0.163 HD
ENDROOT
BRANCH   1  15
HETATM   15  C   UNL     1     -43.275  56.683 -53.808  1.00  0.00     0.146 C 
BRANCH  15  16
HETATM   16  C   UNL     1     -43.117  57.230 -55.199  1.00  0.00     0.224 C 
HETATM   17  N   UNL     1     -43.922  56.635 -56.143  1.00  0.00    -0.327 N 
HETATM   18  H   UNL     1     -44.448  55.812 -55.861  1.00  0.00     0.169 HD
HETATM   19  O   UNL     1     -42.172  57.995 -55.393  1.00  0.00    -0.273 OA
BRANCH  17  20
HETATM   20  C   UNL     1     -43.827  56.821 -57.545  1.00  0.00     0.040 A 
HETATM   21  C   UNL     1     -44.447  57.849 -58.277  1.00  0.00    -0.035 A 
HETATM   22  C   UNL     1     -45.453  58.817 -57.716  1.00  0.00     0.050 C 
HETATM   23  C   UNL     1     -44.174  57.960 -59.656  1.00  0.00     0.009 A 
HETATM   24  C   UNL     1     -43.361  57.036 -60.310  1.00  0.00     0.001 A 
HETATM   25  C   UNL     1     -42.815  55.976 -59.599  1.00  0.00     0.002 A 
HETATM   26  C   UNL     1     -43.054  55.865 -58.228  1.00  0.00     0.030 A 
ENDBRANCH  17  20
ENDBRANCH  15  16
ENDBRANCH   1  15
TORSDOF 3
ENDMDL
MODEL 9
REMARK VINA RESULT:      -7.3      1.225      1.942
REMARK  3 active torsions:
REMARK  status: ('A' for Active; 'I' for Inactive)
REMARK    1  A    between atoms: C_3  and  N_4 
REMARK       I    between atoms: N_4  and  C_5 
REMARK    2  A    between atoms: C_5  and  C_6 
REMARK    3  A    between atoms: C_6  and  C_7 
ROOT
HETATM    1  C   UNL     1     -42.544  55.844 -54.392  1.00  0.00     0.286 C 
HETATM    2  N   UNL     1     -42.819  55.331 -55.811  1.00  0.00    -0.056 N 
HETATM    3  H   UNL     1     -42.101  54.620 -56.052  1.00  0.00     0.278 HD
HETATM    4  H   UNL     1     -43.727  54.851 -55.837  1.00  0.00     0.278 HD
HETATM    5  C   UNL     1     -42.747  56.381 -56.892  1.00  0.00     0.209 C 
HETATM    6  C   UNL     1     -43.611  57.590 -56.488  1.00  0.00     0.115 C 
HETATM    7  N   UNL     1     -43.183  58.124 -55.207  1.00  0.00    -0.353 N 
HETATM    8  C   UNL     1     -42.702  57.365 -54.178  1.00  0.00     0.249 C 
HETATM    9  O   UNL     1     -42.377  57.905 -53.124  1.00  0.00    -0.271 OA
HETATM   10  C   UNL     1     -43.203  55.787 -58.219  1.00  0.00     0.035 C 
HETATM   11  C   UNL     1     -43.142  56.849 -59.316  1.00  0.00     0.002 C 
HETATM   12  C   UNL     1     -43.935  58.102 -58.945  1.00  0.00     0.002 C 
HETATM   13  C   UNL     1     -43.540  58.663 -57.578  1.00  0.00     0.027 C 
HETATM   14  H   UNL     1     -43.357  59.101 -54.977  1.00  0.00     0.163 HD
ENDROOT
BRANCH   1  15
HETATM   15  C   UNL     1     -41.181  55.380 -53.864  1.00  0.00     0.146 C 
BRANCH  15  16
HETATM   16  C   UNL     1     -41.370  54.094 -53.111  1.00  0.00     0.224 C 
HETATM   17  N   UNL     1     -40.209  53.537 -52.626  1.00  0.00    -0.327 N 
HETATM   18  H   UNL     1     -39.329  53.959 -52.916  1.00  0.00     0.169 HD
HETATM   19  O   UNL     1     -42.484  53.572 -53.171  1.00  0.00    -0.273 OA
BRANCH  17  20
HETATM   20  C   UNL     1     -40.085  52.243 -52.063  1.00  0.00     0.040 A 
HETATM   21  C   UNL     1     -39.733  51.077 -52.765  1.00  0.00    -0.035 A 
HETATM   22  C   UNL     1     -39.601  50.980 -54.260  1.00  0.00     0.050 C 
HETATM   23  C   UNL     1     -39.552  49.879 -52.042  1.00  0.00     0.009 A 
HETATM   24  C   UNL     1     -39.778  49.820 -50.669  1.00  0.00     0.001 A 
HETATM   25  C   UNL     1     -40.203  50.956 -49.993  1.00  0.00     0.002 A 
HETATM   26  C   UNL     1     -40.364  52.156 -50.687  1.00  0.00     0.030 A 
ENDBRANCH  17  20
ENDBRANCH  15  16
ENDBRANCH   1  15
TORSDOF 3
ENDMDL
MODEL 10
REMARK VINA RESULT:      -7.3      3.760      5.282
REMARK  3 active torsions:
REMARK  status: ('A' for Active; 'I' for Inactive)
REMARK    1  A    between atoms: C_3  and  N_4 
REMARK       I    between atoms: N_4  and  C_5 
REMARK    2  A    between atoms: C_5  and  C_6 
REMARK    3  A    between atoms: C_6  and  C_7 
ROOT
HETATM    1  C   UNL     1     -42.547  57.276 -52.103  1.00  0.00     0.286 C 
HETATM    2  N   UNL     1     -42.976  58.247 -50.995  1.00  0.00    -0.056 N 
HETATM    3  H   UNL     1     -43.767  57.824 -50.471  1.00  0.00     0.278 HD
HETATM    4  H   UNL     1     -42.208  58.367 -50.323  1.00  0.00     0.278 HD
HETATM    5  C   UNL     1     -43.466  59.589 -51.480  1.00  0.00     0.209 C 
HETATM    6  C   UNL     1     -42.441  60.181 -52.466  1.00  0.00     0.115 C 
HETATM    7  N   UNL     1     -42.210  59.273 -53.576  1.00  0.00    -0.353 N 
HETATM    8  C   UNL     1     -42.217  57.911 -53.471  1.00  0.00     0.249 C 
HETATM    9  O   UNL     1     -41.998  57.223 -54.465  1.00  0.00    -0.271 OA
HETATM   10  C   UNL     1     -43.696  60.514 -50.292  1.00  0.00     0.035 C 
HETATM   11  C   UNL     1     -44.183  61.879 -50.778  1.00  0.00     0.002 C 
HETATM   12  C   UNL     1     -43.233  62.492 -51.807  1.00  0.00     0.002 C 
HETATM   13  C   UNL     1     -42.933  61.542 -52.967  1.00  0.00     0.027 C 
HETATM   14  H   UNL     1     -41.892  59.635 -54.474  1.00  0.00     0.163 HD
ENDROOT
BRANCH   1  15
HETATM   15  C   UNL     1     -43.549  56.130 -52.286  1.00  0.00     0.146 C 
BRANCH  15  16
HETATM   16  C   UNL     1     -42.840  54.828 -52.035  1.00  0.00     0.224 C 
HETATM   17  N   UNL     1     -41.632  54.701 -52.680  1.00  0.00    -0.327 N 
HETATM   18  H   UNL     1     -41.381  55.420 -53.356  1.00  0.00     0.169 HD
HETATM   19  O   UNL     1     -43.480  53.948 -51.458  1.00  0.00    -0.273 OA
BRANCH  17  20
HETATM   20  C   UNL     1     -40.866  53.512 -52.774  1.00  0.00     0.040 A 
HETATM   21  C   UNL     1     -40.093  52.954 -51.741  1.00  0.00    -0.035 A 
HETATM   22  C   UNL     1     -39.812  53.620 -50.422  1.00  0.00     0.050 C 
HETATM   23  C   UNL     1     -39.468  51.709 -51.959  1.00  0.00     0.009 A 
HETATM   24  C   UNL     1     -39.549  51.063 -53.191  1.00  0.00     0.001 A 
HETATM   25  C   UNL     1     -40.248  51.656 -54.233  1.00  0.00     0.002 A 
HETATM   26  C   UNL     1     -40.894  52.877 -54.028  1.00  0.00     0.030 A 
ENDBRANCH  17  20
ENDBRANCH  15  16
ENDBRANCH   1  15
TORSDOF 3
ENDMDL
