MODEL 1
REMARK VINA RESULT:      -8.4      0.000      0.000
REMARK  4 active torsions:
REMARK  status: ('A' for Active; 'I' for Inactive)
REMARK    1  A    between atoms: C_7  and  C_8 
REMARK    2  A    between atoms: C_8  and  O_9 
REMARK    3  A    between atoms: N_12  and  C_14 
REMARK    4  A    between atoms: C_14  and  C_15 
ROOT
HETATM    1  C   UNL     1     -46.998  60.223 -60.096  1.00  0.00     0.001 A 
HETATM    2  C   UNL     1     -45.805  59.888 -59.452  1.00  0.00     0.010 A 
HETATM    3  C   UNL     1     -45.350  58.567 -59.484  1.00  0.00    -0.018 A 
HETATM    4  C   UNL     1     -46.095  57.604 -60.173  1.00  0.00     0.075 A 
HETATM    5  O   UNL     1     -45.645  56.308 -60.215  1.00  0.00    -0.350 OA
HETATM    6  C   UNL     1     -44.251  56.309 -60.554  1.00  0.00     0.189 C 
HETATM    7  C   UNL     1     -43.393  56.954 -59.442  1.00  0.00     0.036 C 
HETATM    8  C   UNL     1     -44.135  58.111 -58.730  1.00  0.00     0.061 C 
HETATM    9  C   UNL     1     -43.104  55.913 -58.346  1.00  0.00     0.250 C 
HETATM   10  N   UNL     1     -43.480  56.563 -57.036  1.00  0.00    -0.064 N 
HETATM   11  H   UNL     1     -43.851  55.812 -56.428  1.00  0.00     0.280 HD
HETATM   12  C   UNL     1     -44.558  57.538 -57.374  1.00  0.00     0.245 C 
HETATM   13  C   UNL     1     -47.298  57.922 -60.786  1.00  0.00     0.037 A 
HETATM   14  C   UNL     1     -47.746  59.242 -60.753  1.00  0.00     0.003 A 
ENDROOT
BRANCH  10  15
HETATM   15  C   UNL     1     -42.333  57.117 -56.225  1.00  0.00     0.294 C 
BRANCH  15  16
HETATM   16  C   UNL     1     -41.979  56.226 -55.052  1.00  0.00     0.068 A 
HETATM   17  N   UNL     1     -41.379  55.029 -55.373  1.00  0.00    -0.233 NA
HETATM   18  C   UNL     1     -41.023  54.254 -54.388  1.00  0.00     0.137 A 
HETATM   19  N   UNL     1     -41.223  54.552 -53.044  1.00  0.00    -0.272 N 
HETATM   20  C   UNL     1     -40.348  52.962 -54.699  1.00  0.00     0.053 A 
HETATM   21  C   UNL     1     -41.838  55.738 -52.683  1.00  0.00     0.255 A 
HETATM   22  C   UNL     1     -40.811  53.674 -52.044  1.00  0.00     0.125 A 
HETATM   23  O   UNL     1     -42.078  56.112 -51.538  1.00  0.00    -0.268 OA
HETATM   24  C   UNL     1     -42.218  56.622 -53.797  1.00  0.00     0.104 A 
HETATM   25  C   UNL     1     -40.202  52.516 -52.332  1.00  0.00     0.050 A 
HETATM   26  C   UNL     1     -39.963  52.153 -53.704  1.00  0.00     0.029 A 
HETATM   27 CL   UNL     1     -39.691  51.442 -51.091  1.00  0.00    -0.083 Cl
ENDBRANCH  15  16
ENDBRANCH  10  15
BRANCH   7  28
HETATM   28  C   UNL     1     -42.079  57.444 -60.073  1.00  0.00     0.178 C 
BRANCH  28  29
HETATM   29  O   UNL     1     -41.272  56.324 -60.398  1.00  0.00    -0.400 OA
HETATM   30  H   UNL     1     -40.450  56.381 -59.872  1.00  0.00     0.209 HD
ENDBRANCH  28  29
ENDBRANCH   7  28
TORSDOF 4
ENDMDL
MODEL 2
REMARK VINA RESULT:      -8.3      5.329      7.838
REMARK  4 active torsions:
REMARK  status: ('A' for Active; 'I' for Inactive)
REMARK    1  A    between atoms: C_7  and  C_8 
REMARK    2  A    between atoms: C_8  and  O_9 
REMARK    3  A    between atoms: N_12  and  C_14 
REMARK    4  A    between atoms: C_14  and  C_15 
ROOT
HETATM    1  C   UNL     1     -43.079  64.611 -49.258  1.00  0.00     0.001 A 
HETATM    2  C   UNL     1     -42.784  63.606 -50.182  1.00  0.00     0.010 A 
HETATM    3  C   UNL     1     -43.497  62.406 -50.147  1.00  0.00    -0.018 A 
HETATM    4  C   UNL     1     -44.505  62.236 -49.191  1.00  0.00     0.075 A 
HETATM    5  O   UNL     1     -45.214  61.061 -49.162  1.00  0.00    -0.350 OA
HETATM    6  C   UNL     1     -45.624  60.731 -50.496  1.00  0.00     0.189 C 
HETATM    7  C   UNL     1     -44.415  60.401 -51.400  1.00  0.00     0.036 C 
HETATM    8  C   UNL     1     -43.168  61.243 -51.037  1.00  0.00     0.061 C 
HETATM    9  C   UNL     1     -43.998  58.934 -51.187  1.00  0.00     0.250 C 
HETATM   10  N   UNL     1     -42.512  58.950 -50.923  1.00  0.00    -0.064 N 
HETATM   11  H   UNL     1     -42.322  58.188 -50.250  1.00  0.00     0.280 HD
HETATM   12  C   UNL     1     -42.237  60.278 -50.297  1.00  0.00     0.245 C 
HETATM   13  C   UNL     1     -44.780  63.217 -48.249  1.00  0.00     0.037 A 
HETATM   14  C   UNL     1     -44.067  64.414 -48.290  1.00  0.00     0.003 A 
ENDROOT
BRANCH  10  15
HETATM   15  C   UNL     1     -41.633  58.592 -52.097  1.00  0.00     0.294 C 
BRANCH  15  16
HETATM   16  C   UNL     1     -41.395  57.099 -52.197  1.00  0.00     0.068 A 
HETATM   17  N   UNL     1     -41.100  56.625 -53.456  1.00  0.00    -0.233 NA
HETATM   18  C   UNL     1     -40.849  55.352 -53.574  1.00  0.00     0.137 A 
HETATM   19  N   UNL     1     -40.873  54.446 -52.518  1.00  0.00    -0.272 N 
HETATM   20  C   UNL     1     -40.502  54.811 -54.919  1.00  0.00     0.053 A 
HETATM   21  C   UNL     1     -41.182  54.882 -51.241  1.00  0.00     0.255 A 
HETATM   22  C   UNL     1     -40.590  53.098 -52.721  1.00  0.00     0.125 A 
HETATM   23  O   UNL     1     -41.244  54.186 -50.232  1.00  0.00    -0.268 OA
HETATM   24  C   UNL     1     -41.442  56.325 -51.107  1.00  0.00     0.104 A 
HETATM   25  C   UNL     1     -40.276  52.620 -53.932  1.00  0.00     0.050 A 
HETATM   26  C   UNL     1     -40.229  53.507 -55.064  1.00  0.00     0.029 A 
HETATM   27 CL   UNL     1     -39.920  50.955 -54.172  1.00  0.00    -0.083 Cl
ENDBRANCH  15  16
ENDBRANCH  10  15
BRANCH   7  28
HETATM   28  C   UNL     1     -44.831  60.630 -52.862  1.00  0.00     0.178 C 
BRANCH  28  29
HETATM   29  O   UNL     1     -46.190  60.258 -53.023  1.00  0.00    -0.400 OA
HETATM   30  H   UNL     1     -46.671  61.024 -53.395  1.00  0.00     0.209 HD
ENDBRANCH  28  29
ENDBRANCH   7  28
TORSDOF 4
ENDMDL
MODEL 3
REMARK VINA RESULT:      -8.3      3.316      8.018
REMARK  4 active torsions:
REMARK  status: ('A' for Active; 'I' for Inactive)
REMARK    1  A    between atoms: C_7  and  C_8 
REMARK    2  A    between atoms: C_8  and  O_9 
REMARK    3  A    between atoms: N_12  and  C_14 
REMARK    4  A    between atoms: C_14  and  C_15 
ROOT
HETATM    1  C   UNL     1     -40.205  53.246 -54.193  1.00  0.00     0.001 A 
HETATM    2  C   UNL     1     -40.589  54.555 -54.494  1.00  0.00     0.010 A 
HETATM    3  C   UNL     1     -41.122  55.366 -53.490  1.00  0.00    -0.018 A 
HETATM    4  C   UNL     1     -41.251  54.855 -52.194  1.00  0.00     0.075 A 
HETATM    5  O   UNL     1     -41.766  55.654 -51.203  1.00  0.00    -0.350 OA
HETATM    6  C   UNL     1     -41.121  56.934 -51.255  1.00  0.00     0.189 C 
HETATM    7  C   UNL     1     -41.469  57.698 -52.553  1.00  0.00     0.036 C 
HETATM    8  C   UNL     1     -41.651  56.745 -53.760  1.00  0.00     0.061 C 
HETATM    9  C   UNL     1     -42.824  58.410 -52.383  1.00  0.00     0.250 C 
HETATM   10  N   UNL     1     -43.658  58.026 -53.581  1.00  0.00    -0.064 N 
HETATM   11  H   UNL     1     -44.638  57.967 -53.254  1.00  0.00     0.280 HD
HETATM   12  C   UNL     1     -43.164  56.677 -53.990  1.00  0.00     0.245 C 
HETATM   13  C   UNL     1     -40.905  53.545 -51.895  1.00  0.00     0.037 A 
HETATM   14  C   UNL     1     -40.371  52.740 -52.901  1.00  0.00     0.003 A 
ENDROOT
BRANCH  10  15
HETATM   15  C   UNL     1     -43.731  59.052 -54.686  1.00  0.00     0.294 C 
BRANCH  15  16
HETATM   16  C   UNL     1     -44.267  58.465 -55.976  1.00  0.00     0.068 A 
HETATM   17  N   UNL     1     -43.370  57.719 -56.709  1.00  0.00    -0.233 NA
HETATM   18  C   UNL     1     -43.806  57.164 -57.804  1.00  0.00     0.137 A 
HETATM   19  N   UNL     1     -45.106  57.288 -58.283  1.00  0.00    -0.272 N 
HETATM   20  C   UNL     1     -42.868  56.329 -58.608  1.00  0.00     0.053 A 
HETATM   21  C   UNL     1     -46.031  58.044 -57.583  1.00  0.00     0.255 A 
HETATM   22  C   UNL     1     -45.501  56.661 -59.462  1.00  0.00     0.125 A 
HETATM   23  O   UNL     1     -47.201  58.237 -57.902  1.00  0.00    -0.268 OA
HETATM   24  C   UNL     1     -45.542  58.650 -56.334  1.00  0.00     0.104 A 
HETATM   25  C   UNL     1     -44.653  55.910 -60.177  1.00  0.00     0.050 A 
HETATM   26  C   UNL     1     -43.296  55.739 -59.732  1.00  0.00     0.029 A 
HETATM   27 CL   UNL     1     -45.151  55.134 -61.628  1.00  0.00    -0.083 Cl
ENDBRANCH  15  16
ENDBRANCH  10  15
BRANCH   7  28
HETATM   28  C   UNL     1     -40.357  58.724 -52.821  1.00  0.00     0.178 C 
BRANCH  28  29
HETATM   29  O   UNL     1     -40.727  59.535 -53.924  1.00  0.00    -0.400 OA
HETATM   30  H   UNL     1     -40.056  60.239 -54.020  1.00  0.00     0.209 HD
ENDBRANCH  28  29
ENDBRANCH   7  28
TORSDOF 4
ENDMDL
MODEL 4
REMARK VINA RESULT:      -8.3      2.126      2.387
REMARK  4 active torsions:
REMARK  status: ('A' for Active; 'I' for Inactive)
REMARK    1  A    between atoms: C_7  and  C_8 
REMARK    2  A    between atoms: C_8  and  O_9 
REMARK    3  A    between atoms: N_12  and  C_14 
REMARK    4  A    between atoms: C_14  and  C_15 
ROOT
HETATM    1  C   UNL     1     -47.458  58.571 -60.968  1.00  0.00     0.001 A 
HETATM    2  C   UNL     1     -46.298  58.816 -60.229  1.00  0.00     0.010 A 
HETATM    3  C   UNL     1     -45.504  57.744 -59.814  1.00  0.00    -0.018 A 
HETATM    4  C   UNL     1     -45.880  56.441 -60.159  1.00  0.00     0.075 A 
HETATM    5  O   UNL     1     -45.096  55.387 -59.761  1.00  0.00    -0.350 OA
HETATM    6  C   UNL     1     -43.725  55.688 -60.057  1.00  0.00     0.189 C 
HETATM    7  C   UNL     1     -43.203  56.868 -59.207  1.00  0.00     0.036 C 
HETATM    8  C   UNL     1     -44.304  57.921 -58.931  1.00  0.00     0.061 C 
HETATM    9  C   UNL     1     -42.768  56.353 -57.823  1.00  0.00     0.250 C 
HETATM   10  N   UNL     1     -43.450  57.239 -56.808  1.00  0.00    -0.064 N 
HETATM   11  H   UNL     1     -43.671  56.641 -55.993  1.00  0.00     0.280 HD
HETATM   12  C   UNL     1     -44.706  57.702 -57.469  1.00  0.00     0.245 C 
HETATM   13  C   UNL     1     -47.048  56.188 -60.863  1.00  0.00     0.037 A 
HETATM   14  C   UNL     1     -47.836  57.261 -61.277  1.00  0.00     0.003 A 
ENDROOT
BRANCH  10  15
HETATM   15  C   UNL     1     -42.594  58.328 -56.207  1.00  0.00     0.294 C 
BRANCH  15  16
HETATM   16  C   UNL     1     -42.199  58.019 -54.777  1.00  0.00     0.068 A 
HETATM   17  N   UNL     1     -42.686  56.837 -54.266  1.00  0.00    -0.233 NA
HETATM   18  C   UNL     1     -42.334  56.519 -53.053  1.00  0.00     0.137 A 
HETATM   19  N   UNL     1     -41.514  57.298 -52.243  1.00  0.00    -0.272 N 
HETATM   20  C   UNL     1     -42.824  55.233 -52.478  1.00  0.00     0.053 A 
HETATM   21  C   UNL     1     -41.019  58.501 -52.716  1.00  0.00     0.255 A 
HETATM   22  C   UNL     1     -41.178  56.889 -50.955  1.00  0.00     0.125 A 
HETATM   23  O   UNL     1     -40.296  59.280 -52.102  1.00  0.00    -0.268 OA
HETATM   24  C   UNL     1     -41.400  58.847 -54.096  1.00  0.00     0.104 A 
HETATM   25  C   UNL     1     -41.619  55.731 -50.447  1.00  0.00     0.050 A 
HETATM   26  C   UNL     1     -42.467  54.878 -51.237  1.00  0.00     0.029 A 
HETATM   27 CL   UNL     1     -41.192  55.231 -48.859  1.00  0.00    -0.083 Cl
ENDBRANCH  15  16
ENDBRANCH  10  15
BRANCH   7  28
HETATM   28  C   UNL     1     -42.007  57.497 -59.941  1.00  0.00     0.178 C 
BRANCH  28  29
HETATM   29  O   UNL     1     -41.156  56.466 -60.414  1.00  0.00    -0.400 OA
HETATM   30  H   UNL     1     -40.362  56.444 -59.843  1.00  0.00     0.209 HD
ENDBRANCH  28  29
ENDBRANCH   7  28
TORSDOF 4
ENDMDL
MODEL 5
REMARK VINA RESULT:      -8.3      2.161      3.753
REMARK  4 active torsions:
REMARK  status: ('A' for Active; 'I' for Inactive)
REMARK    1  A    between atoms: C_7  and  C_8 
REMARK    2  A    between atoms: C_8  and  O_9 
REMARK    3  A    between atoms: N_12  and  C_14 
REMARK    4  A    between atoms: C_14  and  C_15 
ROOT
HETATM    1  C   UNL     1     -45.440  58.293 -60.172  1.00  0.00     0.001 A 
HETATM    2  C   UNL     1     -45.279  57.456 -59.066  1.00  0.00     0.010 A 
HETATM    3  C   UNL     1     -44.171  57.619 -58.232  1.00  0.00    -0.018 A 
HETATM    4  C   UNL     1     -43.245  58.629 -58.514  1.00  0.00     0.075 A 
HETATM    5  O   UNL     1     -42.160  58.798 -57.690  1.00  0.00    -0.350 OA
HETATM    6  C   UNL     1     -42.605  58.789 -56.327  1.00  0.00     0.189 C 
HETATM    7  C   UNL     1     -43.160  57.407 -55.915  1.00  0.00     0.036 C 
HETATM    8  C   UNL     1     -43.876  56.693 -57.088  1.00  0.00     0.061 C 
HETATM    9  C   UNL     1     -41.995  56.482 -55.519  1.00  0.00     0.250 C 
HETATM   10  N   UNL     1     -42.186  55.203 -56.299  1.00  0.00    -0.064 N 
HETATM   11  H   UNL     1     -41.240  54.849 -56.523  1.00  0.00     0.280 HD
HETATM   12  C   UNL     1     -42.901  55.605 -57.546  1.00  0.00     0.245 C 
HETATM   13  C   UNL     1     -43.380  59.442 -59.631  1.00  0.00     0.037 A 
HETATM   14  C   UNL     1     -44.489  59.277 -60.458  1.00  0.00     0.003 A 
ENDROOT
BRANCH  10  15
HETATM   15  C   UNL     1     -42.805  54.056 -55.537  1.00  0.00     0.294 C 
BRANCH  15  16
HETATM   16  C   UNL     1     -42.105  53.805 -54.216  1.00  0.00     0.068 A 
HETATM   17  N   UNL     1     -42.601  54.503 -53.137  1.00  0.00    -0.233 NA
HETATM   18  C   UNL     1     -42.051  54.281 -51.977  1.00  0.00     0.137 A 
HETATM   19  N   UNL     1     -40.994  53.402 -51.764  1.00  0.00    -0.272 N 
HETATM   20  C   UNL     1     -42.580  55.001 -50.783  1.00  0.00     0.053 A 
HETATM   21  C   UNL     1     -40.458  52.696 -52.827  1.00  0.00     0.255 A 
HETATM   22  C   UNL     1     -40.460  53.215 -50.491  1.00  0.00     0.125 A 
HETATM   23  O   UNL     1     -39.524  51.901 -52.773  1.00  0.00    -0.268 OA
HETATM   24  C   UNL     1     -41.097  52.931 -54.132  1.00  0.00     0.104 A 
HETATM   25  C   UNL     1     -40.943  53.863 -49.424  1.00  0.00     0.050 A 
HETATM   26  C   UNL     1     -42.039  54.783 -49.578  1.00  0.00     0.029 A 
HETATM   27 CL   UNL     1     -40.282  53.620 -47.855  1.00  0.00    -0.083 Cl
ENDBRANCH  15  16
ENDBRANCH  10  15
BRANCH   7  28
HETATM   28  C   UNL     1     -44.112  57.606 -54.724  1.00  0.00     0.178 C 
BRANCH  28  29
HETATM   29  O   UNL     1     -44.801  56.393 -54.470  1.00  0.00    -0.400 OA
HETATM   30  H   UNL     1     -44.237  55.655 -54.777  1.00  0.00     0.209 HD
ENDBRANCH  28  29
ENDBRANCH   7  28
TORSDOF 4
ENDMDL
MODEL 6
REMARK VINA RESULT:      -8.2      2.943      4.097
REMARK  4 active torsions:
REMARK  status: ('A' for Active; 'I' for Inactive)
REMARK    1  A    between atoms: C_7  and  C_8 
REMARK    2  A    between atoms: C_8  and  O_9 
REMARK    3  A    between atoms: N_12  and  C_14 
REMARK    4  A    between atoms: C_14  and  C_15 
ROOT
HETATM    1  C   UNL     1     -42.852  55.779 -59.436  1.00  0.00     0.001 A 
HETATM    2  C   UNL     1     -43.163  55.813 -58.075  1.00  0.00     0.010 A 
HETATM    3  C   UNL     1     -42.862  56.953 -57.326  1.00  0.00    -0.018 A 
HETATM    4  C   UNL     1     -42.264  58.048 -57.958  1.00  0.00     0.075 A 
HETATM    5  O   UNL     1     -41.977  59.174 -57.227  1.00  0.00    -0.350 OA
HETATM    6  C   UNL     1     -43.122  59.520 -56.436  1.00  0.00     0.189 C 
HETATM    7  C   UNL     1     -43.417  58.453 -55.358  1.00  0.00     0.036 C 
HETATM    8  C   UNL     1     -43.071  57.023 -55.842  1.00  0.00     0.061 C 
HETATM    9  C   UNL     1     -42.521  58.701 -54.130  1.00  0.00     0.250 C 
HETATM   10  N   UNL     1     -41.859  57.381 -53.816  1.00  0.00    -0.064 N 
HETATM   11  H   UNL     1     -40.913  57.601 -53.459  1.00  0.00     0.280 HD
HETATM   12  C   UNL     1     -41.767  56.664 -55.123  1.00  0.00     0.245 C 
HETATM   13  C   UNL     1     -41.921  58.009 -59.302  1.00  0.00     0.037 A 
HETATM   14  C   UNL     1     -42.225  56.869 -60.046  1.00  0.00     0.003 A 
ENDROOT
BRANCH  10  15
HETATM   15  C   UNL     1     -42.473  56.592 -52.685  1.00  0.00     0.294 C 
BRANCH  15  16
HETATM   16  C   UNL     1     -41.736  55.292 -52.429  1.00  0.00     0.068 A 
HETATM   17  N   UNL     1     -41.774  54.374 -53.455  1.00  0.00    -0.233 NA
HETATM   18  C   UNL     1     -41.118  53.261 -53.287  1.00  0.00     0.137 A 
HETATM   19  N   UNL     1     -40.397  52.940 -52.141  1.00  0.00    -0.272 N 
HETATM   20  C   UNL     1     -41.117  52.255 -54.387  1.00  0.00     0.053 A 
HETATM   21  C   UNL     1     -40.350  53.831 -51.083  1.00  0.00     0.255 A 
HETATM   22  C   UNL     1     -39.716  51.730 -52.036  1.00  0.00     0.125 A 
HETATM   23  O   UNL     1     -39.760  53.664 -50.019  1.00  0.00    -0.268 OA
HETATM   24  C   UNL     1     -41.074  55.097 -51.284  1.00  0.00     0.104 A 
HETATM   25  C   UNL     1     -39.717  50.833 -53.030  1.00  0.00     0.050 A 
HETATM   26  C   UNL     1     -40.440  51.109 -54.244  1.00  0.00     0.029 A 
HETATM   27 CL   UNL     1     -38.867  49.345 -52.894  1.00  0.00    -0.083 Cl
ENDBRANCH  15  16
ENDBRANCH  10  15
BRANCH   7  28
HETATM   28  C   UNL     1     -44.900  58.561 -54.966  1.00  0.00     0.178 C 
BRANCH  28  29
HETATM   29  O   UNL     1     -45.536  57.316 -55.202  1.00  0.00    -0.400 OA
HETATM   30  H   UNL     1     -45.130  56.652 -54.610  1.00  0.00     0.209 HD
ENDBRANCH  28  29
ENDBRANCH   7  28
TORSDOF 4
ENDMDL
MODEL 7
REMARK VINA RESULT:      -8.2      3.234      8.627
REMARK  4 active torsions:
REMARK  status: ('A' for Active; 'I' for Inactive)
REMARK    1  A    between atoms: C_7  and  C_8 
REMARK    2  A    between atoms: C_8  and  O_9 
REMARK    3  A    between atoms: N_12  and  C_14 
REMARK    4  A    between atoms: C_14  and  C_15 
ROOT
HETATM    1  C   UNL     1     -40.758  54.990 -49.686  1.00  0.00     0.001 A 
HETATM    2  C   UNL     1     -41.424  55.590 -50.758  1.00  0.00     0.010 A 
HETATM    3  C   UNL     1     -41.339  55.020 -52.030  1.00  0.00    -0.018 A 
HETATM    4  C   UNL     1     -40.596  53.847 -52.206  1.00  0.00     0.075 A 
HETATM    5  O   UNL     1     -40.520  53.279 -53.453  1.00  0.00    -0.350 OA
HETATM    6  C   UNL     1     -41.836  53.216 -54.018  1.00  0.00     0.189 C 
HETATM    7  C   UNL     1     -42.407  54.625 -54.296  1.00  0.00     0.036 C 
HETATM    8  C   UNL     1     -41.939  55.662 -53.246  1.00  0.00     0.061 C 
HETATM    9  C   UNL     1     -41.875  55.138 -55.647  1.00  0.00     0.250 C 
HETATM   10  N   UNL     1     -41.318  56.517 -55.387  1.00  0.00    -0.064 N 
HETATM   11  H   UNL     1     -40.504  56.632 -56.015  1.00  0.00     0.280 HD
HETATM   12  C   UNL     1     -40.876  56.501 -53.961  1.00  0.00     0.245 C 
HETATM   13  C   UNL     1     -39.904  53.265 -51.153  1.00  0.00     0.037 A 
HETATM   14  C   UNL     1     -39.994  53.837 -49.885  1.00  0.00     0.003 A 
ENDROOT
BRANCH  10  15
HETATM   15  C   UNL     1     -42.211  57.670 -55.777  1.00  0.00     0.294 C 
BRANCH  15  16
HETATM   16  C   UNL     1     -43.019  57.370 -57.023  1.00  0.00     0.068 A 
HETATM   17  N   UNL     1     -44.358  57.687 -56.956  1.00  0.00    -0.233 NA
HETATM   18  C   UNL     1     -45.076  57.481 -58.023  1.00  0.00     0.137 A 
HETATM   19  N   UNL     1     -44.583  56.952 -59.212  1.00  0.00    -0.272 N 
HETATM   20  C   UNL     1     -46.524  57.836 -57.993  1.00  0.00     0.053 A 
HETATM   21  C   UNL     1     -43.247  56.605 -59.311  1.00  0.00     0.255 A 
HETATM   22  C   UNL     1     -45.413  56.764 -60.314  1.00  0.00     0.125 A 
HETATM   23  O   UNL     1     -42.693  56.125 -60.296  1.00  0.00    -0.268 OA
HETATM   24  C   UNL     1     -42.433  56.861 -58.112  1.00  0.00     0.104 A 
HETATM   25  C   UNL     1     -46.712  57.088 -60.280  1.00  0.00     0.050 A 
HETATM   26  C   UNL     1     -47.281  57.644 -59.081  1.00  0.00     0.029 A 
HETATM   27 CL   UNL     1     -47.727  56.859 -61.648  1.00  0.00    -0.083 Cl
ENDBRANCH  15  16
ENDBRANCH  10  15
BRANCH   7  28
HETATM   28  C   UNL     1     -43.941  54.525 -54.331  1.00  0.00     0.178 C 
BRANCH  28  29
HETATM   29  O   UNL     1     -44.493  55.831 -54.354  1.00  0.00    -0.400 OA
HETATM   30  H   UNL     1     -44.479  56.182 -53.442  1.00  0.00     0.209 HD
ENDBRANCH  28  29
ENDBRANCH   7  28
TORSDOF 4
ENDMDL
MODEL 8
REMARK VINA RESULT:      -8.2     16.103     19.400
REMARK  4 active torsions:
REMARK  status: ('A' for Active; 'I' for Inactive)
REMARK    1  A    between atoms: C_7  and  C_8 
REMARK    2  A    between atoms: C_8  and  O_9 
REMARK    3  A    between atoms: N_12  and  C_14 
REMARK    4  A    between atoms: C_14  and  C_15 
ROOT
HETATM    1  C   UNL     1     -33.730  39.838 -49.851  1.00  0.00     0.001 A 
HETATM    2  C   UNL     1     -34.624  39.894 -50.923  1.00  0.00     0.010 A 
HETATM    3  C   UNL     1     -34.146  40.164 -52.207  1.00  0.00    -0.018 A 
HETATM    4  C   UNL     1     -32.774  40.363 -52.398  1.00  0.00     0.075 A 
HETATM    5  O   UNL     1     -32.300  40.618 -53.661  1.00  0.00    -0.350 OA
HETATM    6  C   UNL     1     -32.878  39.676 -54.575  1.00  0.00     0.189 C 
HETATM    7  C   UNL     1     -34.404  39.876 -54.714  1.00  0.00     0.036 C 
HETATM    8  C   UNL     1     -35.054  40.342 -53.388  1.00  0.00     0.061 C 
HETATM    9  C   UNL     1     -34.685  41.001 -55.728  1.00  0.00     0.250 C 
HETATM   10  N   UNL     1     -35.640  41.954 -55.049  1.00  0.00    -0.064 N 
HETATM   11  H   UNL     1     -35.400  42.902 -55.386  1.00  0.00     0.280 HD
HETATM   12  C   UNL     1     -35.348  41.831 -53.590  1.00  0.00     0.245 C 
HETATM   13  C   UNL     1     -31.885  40.344 -51.333  1.00  0.00     0.037 A 
HETATM   14  C   UNL     1     -32.367  40.071 -50.054  1.00  0.00     0.003 A 
ENDROOT
BRANCH  10  15
HETATM   15  C   UNL     1     -37.092  41.814 -55.435  1.00  0.00     0.294 C 
BRANCH  15  16
HETATM   16  C   UNL     1     -37.260  41.353 -56.868  1.00  0.00     0.068 A 
HETATM   17  N   UNL     1     -37.598  40.027 -57.032  1.00  0.00    -0.233 NA
HETATM   18  C   UNL     1     -37.791  39.605 -58.249  1.00  0.00     0.137 A 
HETATM   19  N   UNL     1     -37.665  40.398 -59.385  1.00  0.00    -0.272 N 
HETATM   20  C   UNL     1     -38.183  38.182 -58.461  1.00  0.00     0.053 A 
HETATM   21  C   UNL     1     -37.310  41.730 -59.261  1.00  0.00     0.255 A 
HETATM   22  C   UNL     1     -37.892  39.874 -60.656  1.00  0.00     0.125 A 
HETATM   23  O   UNL     1     -37.159  42.529 -60.181  1.00  0.00    -0.268 OA
HETATM   24  C   UNL     1     -37.115  42.211 -57.884  1.00  0.00     0.104 A 
HETATM   25  C   UNL     1     -38.246  38.596 -60.837  1.00  0.00     0.050 A 
HETATM   26  C   UNL     1     -38.398  37.725 -59.701  1.00  0.00     0.029 A 
HETATM   27 CL   UNL     1     -38.531  37.961 -62.409  1.00  0.00    -0.083 Cl
ENDBRANCH  15  16
ENDBRANCH  10  15
BRANCH   7  28
HETATM   28  C   UNL     1     -35.021  38.554 -55.199  1.00  0.00     0.178 C 
BRANCH  28  29
HETATM   29  O   UNL     1     -36.360  38.468 -54.740  1.00  0.00    -0.400 OA
HETATM   30  H   UNL     1     -36.593  39.323 -54.326  1.00  0.00     0.209 HD
ENDBRANCH  28  29
ENDBRANCH   7  28
TORSDOF 4
ENDMDL
MODEL 9
REMARK VINA RESULT:      -8.1      6.050      8.978
REMARK  4 active torsions:
REMARK  status: ('A' for Active; 'I' for Inactive)
REMARK    1  A    between atoms: C_7  and  C_8 
REMARK    2  A    between atoms: C_8  and  O_9 
REMARK    3  A    between atoms: N_12  and  C_14 
REMARK    4  A    between atoms: C_14  and  C_15 
ROOT
HETATM    1  C   UNL     1     -39.861  52.798 -54.701  1.00  0.00     0.001 A 
HETATM    2  C   UNL     1     -40.512  54.014 -54.478  1.00  0.00     0.010 A 
HETATM    3  C   UNL     1     -41.017  54.304 -53.209  1.00  0.00    -0.018 A 
HETATM    4  C   UNL     1     -40.851  53.373 -52.177  1.00  0.00     0.075 A 
HETATM    5  O   UNL     1     -41.338  53.661 -50.926  1.00  0.00    -0.350 OA
HETATM    6  C   UNL     1     -40.946  54.993 -50.569  1.00  0.00     0.189 C 
HETATM    7  C   UNL     1     -41.622  56.050 -51.472  1.00  0.00     0.036 C 
HETATM    8  C   UNL     1     -41.818  55.540 -52.920  1.00  0.00     0.061 C 
HETATM    9  C   UNL     1     -43.038  56.347 -50.944  1.00  0.00     0.250 C 
HETATM   10  N   UNL     1     -43.967  56.212 -52.126  1.00  0.00    -0.064 N 
HETATM   11  H   UNL     1     -44.858  55.832 -51.761  1.00  0.00     0.280 HD
HETATM   12  C   UNL     1     -43.312  55.222 -53.032  1.00  0.00     0.245 C 
HETATM   13  C   UNL     1     -40.235  52.150 -52.400  1.00  0.00     0.037 A 
HETATM   14  C   UNL     1     -39.731  51.866 -53.668  1.00  0.00     0.003 A 
ENDROOT
BRANCH  10  15
HETATM   15  C   UNL     1     -44.392  57.505 -52.778  1.00  0.00     0.294 C 
BRANCH  15  16
HETATM   16  C   UNL     1     -44.491  58.642 -51.781  1.00  0.00     0.068 A 
HETATM   17  N   UNL     1     -43.700  59.738 -52.047  1.00  0.00    -0.233 NA
HETATM   18  C   UNL     1     -43.789  60.751 -51.233  1.00  0.00     0.137 A 
HETATM   19  N   UNL     1     -44.615  60.790 -50.114  1.00  0.00    -0.272 N 
HETATM   20  C   UNL     1     -42.966  61.964 -51.505  1.00  0.00     0.053 A 
HETATM   21  C   UNL     1     -45.411  59.701 -49.805  1.00  0.00     0.255 A 
HETATM   22  C   UNL     1     -44.658  61.913 -49.292  1.00  0.00     0.125 A 
HETATM   23  O   UNL     1     -46.173  59.607 -48.847  1.00  0.00    -0.268 OA
HETATM   24  C   UNL     1     -45.326  58.566 -50.739  1.00  0.00     0.104 A 
HETATM   25  C   UNL     1     -43.919  63.000 -49.545  1.00  0.00     0.050 A 
HETATM   26  C   UNL     1     -43.047  63.024 -50.690  1.00  0.00     0.029 A 
HETATM   27 CL   UNL     1     -43.985  64.384 -48.528  1.00  0.00    -0.083 Cl
ENDBRANCH  15  16
ENDBRANCH  10  15
BRANCH   7  28
HETATM   28  C   UNL     1     -40.765  57.325 -51.445  1.00  0.00     0.178 C 
BRANCH  28  29
HETATM   29  O   UNL     1     -41.190  58.195 -52.481  1.00  0.00    -0.400 OA
HETATM   30  H   UNL     1     -42.056  58.570 -52.225  1.00  0.00     0.209 HD
ENDBRANCH  28  29
ENDBRANCH   7  28
TORSDOF 4
ENDMDL
MODEL 10
REMARK VINA RESULT:      -8.1      3.786      8.385
REMARK  4 active torsions:
REMARK  status: ('A' for Active; 'I' for Inactive)
REMARK    1  A    between atoms: C_7  and  C_8 
REMARK    2  A    between atoms: C_8  and  O_9 
REMARK    3  A    between atoms: N_12  and  C_14 
REMARK    4  A    between atoms: C_14  and  C_15 
ROOT
HETATM    1  C   UNL     1     -39.964  53.806 -55.086  1.00  0.00     0.001 A 
HETATM    2  C   UNL     1     -40.577  54.968 -54.611  1.00  0.00     0.010 A 
HETATM    3  C   UNL     1     -41.287  54.931 -53.409  1.00  0.00    -0.018 A 
HETATM    4  C   UNL     1     -41.362  53.731 -52.695  1.00  0.00     0.075 A 
HETATM    5  O   UNL     1     -42.051  53.695 -51.508  1.00  0.00    -0.350 OA
HETATM    6  C   UNL     1     -41.658  54.818 -50.707  1.00  0.00     0.189 C 
HETATM    7  C   UNL     1     -42.099  56.156 -51.342  1.00  0.00     0.036 C 
HETATM    8  C   UNL     1     -42.057  56.109 -52.889  1.00  0.00     0.061 C 
HETATM    9  C   UNL     1     -43.569  56.437 -50.977  1.00  0.00     0.250 C 
HETATM   10  N   UNL     1     -44.274  56.749 -52.276  1.00  0.00    -0.064 N 
HETATM   11  H   UNL     1     -45.236  56.377 -52.187  1.00  0.00     0.280 HD
HETATM   12  C   UNL     1     -43.521  55.998 -53.324  1.00  0.00     0.245 C 
HETATM   13  C   UNL     1     -40.785  52.565 -53.178  1.00  0.00     0.037 A 
HETATM   14  C   UNL     1     -40.075  52.607 -54.377  1.00  0.00     0.003 A 
ENDROOT
BRANCH  10  15
HETATM   15  C   UNL     1     -44.502  58.213 -52.563  1.00  0.00     0.294 C 
BRANCH  15  16
HETATM   16  C   UNL     1     -44.232  58.559 -54.014  1.00  0.00     0.068 A 
HETATM   17  N   UNL     1     -45.255  58.280 -54.893  1.00  0.00    -0.233 NA
HETATM   18  C   UNL     1     -45.074  58.601 -56.143  1.00  0.00     0.137 A 
HETATM   19  N   UNL     1     -43.917  59.191 -56.643  1.00  0.00    -0.272 N 
HETATM   20  C   UNL     1     -46.171  58.337 -57.117  1.00  0.00     0.053 A 
HETATM   21  C   UNL     1     -42.862  59.469 -55.793  1.00  0.00     0.255 A 
HETATM   22  C   UNL     1     -43.799  59.509 -57.993  1.00  0.00     0.125 A 
HETATM   23  O   UNL     1     -41.789  59.977 -56.109  1.00  0.00    -0.268 OA
HETATM   24  C   UNL     1     -43.077  59.127 -54.377  1.00  0.00     0.104 A 
HETATM   25  C   UNL     1     -44.790  59.272 -58.862  1.00  0.00     0.050 A 
HETATM   26  C   UNL     1     -46.014  58.668 -58.406  1.00  0.00     0.029 A 
HETATM   27 CL   UNL     1     -44.638  59.675 -60.526  1.00  0.00    -0.083 Cl
ENDBRANCH  15  16
ENDBRANCH  10  15
BRANCH   7  28
HETATM   28  C   UNL     1     -41.192  57.270 -50.796  1.00  0.00     0.178 C 
BRANCH  28  29
HETATM   29  O   UNL     1     -41.995  58.357 -50.367  1.00  0.00    -0.400 OA
HETATM   30  H   UNL     1     -41.761  58.560 -49.440  1.00  0.00     0.209 HD
ENDBRANCH  28  29
ENDBRANCH   7  28
TORSDOF 4
ENDMDL
