MODEL 1
REMARK VINA RESULT:      -8.3      0.000      0.000
REMARK  5 active torsions:
REMARK  status: ('A' for Active; 'I' for Inactive)
REMARK    1  A    between atoms: C_8  and  C_9 
REMARK    2  A    between atoms: C_9  and  C_10 
REMARK       I    between atoms: C_10  and  N_11 
REMARK    3  A    between atoms: N_11  and  C_12 
REMARK    4  A    between atoms: C_12  and  C_13 
REMARK    5  A    between atoms: C_13  and  C_14 
ROOT
HETATM    1  C   UNL     1     -42.854  56.713 -57.654  1.00  0.00     0.226 C 
HETATM    2  N   UNL     1     -43.141  55.553 -56.967  1.00  0.00    -0.360 N 
HETATM    3  O   UNL     1     -42.273  57.655 -57.115  1.00  0.00    -0.273 OA
HETATM    4  H   UNL     1     -43.594  54.778 -57.431  1.00  0.00     0.162 HD
ENDROOT
BRANCH   2   5
HETATM    5  C   UNL     1     -42.738  55.375 -55.582  1.00  0.00     0.127 C 
BRANCH   5   6
HETATM    6  C   UNL     1     -41.388  54.665 -55.443  1.00  0.00     0.060 C 
BRANCH   6   7
HETATM    7  C   UNL     1     -41.064  54.348 -54.018  1.00  0.00    -0.029 A 
HETATM    8  C   UNL     1     -40.562  53.104 -53.516  1.00  0.00    -0.002 A 
HETATM    9  C   UNL     1     -40.410  53.241 -52.137  1.00  0.00     0.044 A 
HETATM   10  C   UNL     1     -40.226  51.872 -54.115  1.00  0.00     0.016 A 
HETATM   11  C   UNL     1     -39.940  52.203 -51.320  1.00  0.00     0.054 A 
HETATM   12  N   UNL     1     -40.797  54.519 -51.811  1.00  0.00    -0.365 N 
HETATM   13  C   UNL     1     -39.618  50.993 -51.941  1.00  0.00     0.036 A 
HETATM   14 CL   UNL     1     -39.037  49.686 -50.980  1.00  0.00    -0.084 Cl
HETATM   15  C   UNL     1     -39.755  50.823 -53.315  1.00  0.00     0.025 A 
HETATM   16  H   UNL     1     -40.787  54.900 -50.875  1.00  0.00     0.165 HD
HETATM   17  C   UNL     1     -41.194  55.194 -52.934  1.00  0.00     0.096 A 
ENDBRANCH   6   7
ENDBRANCH   5   6
ENDBRANCH   2   5
BRANCH   1  18
HETATM   18  C   UNL     1     -43.258  56.762 -59.135  1.00  0.00     0.111 C 
HETATM   19  C   UNL     1     -42.654  57.915 -59.937  1.00  0.00     0.025 C 
BRANCH  18  20
HETATM   20  C   UNL     1     -44.751  56.670 -59.312  1.00  0.00     0.004 A 
HETATM   21  C   UNL     1     -45.443  55.670 -59.978  1.00  0.00     0.033 A 
HETATM   22  C   UNL     1     -44.985  54.442 -60.669  1.00  0.00     0.070 C 
HETATM   23  N   UNL     1     -46.766  55.996 -59.883  1.00  0.00    -0.282 N 
HETATM   24  H   UNL     1     -47.565  55.485 -60.241  1.00  0.00     0.189 HD
HETATM   25  N   UNL     1     -46.991  57.142 -59.232  1.00  0.00    -0.179 NA
HETATM   26  C   UNL     1     -45.775  57.557 -58.861  1.00  0.00     0.060 A 
HETATM   27  C   UNL     1     -45.654  58.809 -58.073  1.00  0.00     0.073 C 
ENDBRANCH  18  20
ENDBRANCH   1  18
TORSDOF 5
ENDMDL
MODEL 2
REMARK VINA RESULT:      -7.8      1.604      2.177
REMARK  5 active torsions:
REMARK  status: ('A' for Active; 'I' for Inactive)
REMARK    1  A    between atoms: C_8  and  C_9 
REMARK    2  A    between atoms: C_9  and  C_10 
REMARK       I    between atoms: C_10  and  N_11 
REMARK    3  A    between atoms: N_11  and  C_12 
REMARK    4  A    between atoms: C_12  and  C_13 
REMARK    5  A    between atoms: C_13  and  C_14 
ROOT
HETATM    1  C   UNL     1     -42.791  56.741 -57.524  1.00  0.00     0.226 C 
HETATM    2  N   UNL     1     -43.128  55.583 -56.856  1.00  0.00    -0.360 N 
HETATM    3  O   UNL     1     -42.162  57.644 -56.972  1.00  0.00    -0.273 OA
HETATM    4  H   UNL     1     -43.621  54.840 -57.331  1.00  0.00     0.162 HD
ENDROOT
BRANCH   2   5
HETATM    5  C   UNL     1     -42.723  55.358 -55.479  1.00  0.00     0.127 C 
BRANCH   5   6
HETATM    6  C   UNL     1     -42.911  53.905 -55.034  1.00  0.00     0.060 C 
BRANCH   6   7
HETATM    7  C   UNL     1     -41.837  53.463 -54.091  1.00  0.00    -0.029 A 
HETATM    8  C   UNL     1     -41.763  53.751 -52.690  1.00  0.00    -0.002 A 
HETATM    9  C   UNL     1     -40.600  53.156 -52.202  1.00  0.00     0.044 A 
HETATM   10  C   UNL     1     -42.584  54.468 -51.795  1.00  0.00     0.016 A 
HETATM   11  C   UNL     1     -40.210  53.244 -50.859  1.00  0.00     0.054 A 
HETATM   12  N   UNL     1     -39.992  52.525 -53.262  1.00  0.00    -0.365 N 
HETATM   13  C   UNL     1     -41.042  53.963 -49.995  1.00  0.00     0.036 A 
HETATM   14 CL   UNL     1     -40.605  54.102 -48.334  1.00  0.00    -0.084 Cl
HETATM   15  C   UNL     1     -42.211  54.567 -50.448  1.00  0.00     0.025 A 
HETATM   16  H   UNL     1     -39.128  52.004 -53.200  1.00  0.00     0.165 HD
HETATM   17  C   UNL     1     -40.726  52.704 -54.404  1.00  0.00     0.096 A 
ENDBRANCH   6   7
ENDBRANCH   5   6
ENDBRANCH   2   5
BRANCH   1  18
HETATM   18  C   UNL     1     -43.204  56.838 -59.000  1.00  0.00     0.111 C 
HETATM   19  C   UNL     1     -42.587  58.004 -59.773  1.00  0.00     0.025 C 
BRANCH  18  20
HETATM   20  C   UNL     1     -44.699  56.774 -59.170  1.00  0.00     0.004 A 
HETATM   21  C   UNL     1     -45.408  55.825 -59.891  1.00  0.00     0.033 A 
HETATM   22  C   UNL     1     -44.969  54.637 -60.661  1.00  0.00     0.070 C 
HETATM   23  N   UNL     1     -46.726  56.158 -59.764  1.00  0.00    -0.282 N 
HETATM   24  H   UNL     1     -47.534  55.679 -60.147  1.00  0.00     0.189 HD
HETATM   25  N   UNL     1     -46.933  57.264 -59.041  1.00  0.00    -0.179 NA
HETATM   26  C   UNL     1     -45.709  57.642 -58.655  1.00  0.00     0.060 A 
HETATM   27  C   UNL     1     -45.568  58.841 -57.792  1.00  0.00     0.073 C 
ENDBRANCH  18  20
ENDBRANCH   1  18
TORSDOF 5
ENDMDL
MODEL 3
REMARK VINA RESULT:      -7.8      3.613      6.254
REMARK  5 active torsions:
REMARK  status: ('A' for Active; 'I' for Inactive)
REMARK    1  A    between atoms: C_8  and  C_9 
REMARK    2  A    between atoms: C_9  and  C_10 
REMARK       I    between atoms: C_10  and  N_11 
REMARK    3  A    between atoms: N_11  and  C_12 
REMARK    4  A    between atoms: C_12  and  C_13 
REMARK    5  A    between atoms: C_13  and  C_14 
ROOT
HETATM    1  C   UNL     1     -41.473  59.257 -53.173  1.00  0.00     0.226 C 
HETATM    2  N   UNL     1     -42.444  59.229 -54.152  1.00  0.00    -0.360 N 
HETATM    3  O   UNL     1     -40.275  59.189 -53.451  1.00  0.00    -0.273 OA
HETATM    4  H   UNL     1     -43.421  59.314 -53.910  1.00  0.00     0.162 HD
ENDROOT
BRANCH   2   5
HETATM    5  C   UNL     1     -42.096  59.155 -55.560  1.00  0.00     0.127 C 
BRANCH   5   6
HETATM    6  C   UNL     1     -42.689  57.926 -56.255  1.00  0.00     0.060 C 
BRANCH   6   7
HETATM    7  C   UNL     1     -43.053  56.851 -55.280  1.00  0.00    -0.029 A 
HETATM    8  C   UNL     1     -42.185  55.830 -54.775  1.00  0.00    -0.002 A 
HETATM    9  C   UNL     1     -42.933  55.039 -53.904  1.00  0.00     0.044 A 
HETATM   10  C   UNL     1     -40.828  55.508 -54.987  1.00  0.00     0.016 A 
HETATM   11  C   UNL     1     -42.392  53.935 -53.231  1.00  0.00     0.054 A 
HETATM   12  N   UNL     1     -44.204  55.561 -53.873  1.00  0.00    -0.365 N 
HETATM   13  C   UNL     1     -41.046  53.638 -53.462  1.00  0.00     0.036 A 
HETATM   14 CL   UNL     1     -40.335  52.289 -52.659  1.00  0.00    -0.084 Cl
HETATM   15  C   UNL     1     -40.270  54.408 -54.323  1.00  0.00     0.025 A 
HETATM   16  H   UNL     1     -44.962  55.190 -53.317  1.00  0.00     0.165 HD
HETATM   17  C   UNL     1     -44.289  56.650 -54.698  1.00  0.00     0.096 A 
ENDBRANCH   6   7
ENDBRANCH   5   6
ENDBRANCH   2   5
BRANCH   1  18
HETATM   18  C   UNL     1     -41.952  59.416 -51.722  1.00  0.00     0.111 C 
HETATM   19  C   UNL     1     -40.845  59.652 -50.695  1.00  0.00     0.025 C 
BRANCH  18  20
HETATM   20  C   UNL     1     -42.877  58.300 -51.313  1.00  0.00     0.004 A 
HETATM   21  C   UNL     1     -42.507  57.028 -50.906  1.00  0.00     0.033 A 
HETATM   22  C   UNL     1     -41.179  56.393 -50.732  1.00  0.00     0.070 C 
HETATM   23  N   UNL     1     -43.668  56.363 -50.633  1.00  0.00    -0.282 N 
HETATM   24  H   UNL     1     -43.783  55.414 -50.296  1.00  0.00     0.189 HD
HETATM   25  N   UNL     1     -44.767  57.090 -50.855  1.00  0.00    -0.179 NA
HETATM   26  C   UNL     1     -44.304  58.281 -51.252  1.00  0.00     0.060 A 
HETATM   27  C   UNL     1     -45.273  59.362 -51.558  1.00  0.00     0.073 C 
ENDBRANCH  18  20
ENDBRANCH   1  18
TORSDOF 5
ENDMDL
MODEL 4
REMARK VINA RESULT:      -7.5      2.544      3.902
REMARK  5 active torsions:
REMARK  status: ('A' for Active; 'I' for Inactive)
REMARK    1  A    between atoms: C_8  and  C_9 
REMARK    2  A    between atoms: C_9  and  C_10 
REMARK       I    between atoms: C_10  and  N_11 
REMARK    3  A    between atoms: N_11  and  C_12 
REMARK    4  A    between atoms: C_12  and  C_13 
REMARK    5  A    between atoms: C_13  and  C_14 
ROOT
HETATM    1  C   UNL     1     -44.060  56.666 -55.124  1.00  0.00     0.226 C 
HETATM    2  N   UNL     1     -43.455  55.866 -56.070  1.00  0.00    -0.360 N 
HETATM    3  O   UNL     1     -44.175  56.306 -53.953  1.00  0.00    -0.273 OA
HETATM    4  H   UNL     1     -43.343  56.187 -57.021  1.00  0.00     0.162 HD
ENDROOT
BRANCH   2   5
HETATM    5  C   UNL     1     -42.892  54.574 -55.719  1.00  0.00     0.127 C 
BRANCH   5   6
HETATM    6  C   UNL     1     -41.383  54.633 -55.463  1.00  0.00     0.060 C 
BRANCH   6   7
HETATM    7  C   UNL     1     -41.043  54.331 -54.038  1.00  0.00    -0.029 A 
HETATM    8  C   UNL     1     -40.554  53.086 -53.525  1.00  0.00    -0.002 A 
HETATM    9  C   UNL     1     -40.379  53.240 -52.151  1.00  0.00     0.044 A 
HETATM   10  C   UNL     1     -40.248  51.840 -54.111  1.00  0.00     0.016 A 
HETATM   11  C   UNL     1     -39.914  52.207 -51.326  1.00  0.00     0.054 A 
HETATM   12  N   UNL     1     -40.739  54.530 -51.838  1.00  0.00    -0.365 N 
HETATM   13  C   UNL     1     -39.621  50.983 -51.934  1.00  0.00     0.036 A 
HETATM   14 CL   UNL     1     -39.049  49.679 -50.962  1.00  0.00    -0.084 Cl
HETATM   15  C   UNL     1     -39.783  50.795 -53.303  1.00  0.00     0.025 A 
HETATM   16  H   UNL     1     -40.708  54.924 -50.908  1.00  0.00     0.165 HD
HETATM   17  C   UNL     1     -41.142  55.195 -52.965  1.00  0.00     0.096 A 
ENDBRANCH   6   7
ENDBRANCH   5   6
ENDBRANCH   2   5
BRANCH   1  18
HETATM   18  C   UNL     1     -44.550  58.046 -55.591  1.00  0.00     0.111 C 
HETATM   19  C   UNL     1     -45.369  58.043 -56.881  1.00  0.00     0.025 C 
BRANCH  18  20
HETATM   20  C   UNL     1     -43.431  59.054 -55.631  1.00  0.00     0.004 A 
HETATM   21  C   UNL     1     -43.151  60.014 -54.671  1.00  0.00     0.033 A 
HETATM   22  C   UNL     1     -43.795  60.335 -53.376  1.00  0.00     0.070 C 
HETATM   23  N   UNL     1     -42.057  60.695 -55.123  1.00  0.00    -0.282 N 
HETATM   24  H   UNL     1     -41.563  61.457 -54.674  1.00  0.00     0.189 HD
HETATM   25  N   UNL     1     -41.617  60.274 -56.314  1.00  0.00    -0.179 NA
HETATM   26  C   UNL     1     -42.432  59.261 -56.630  1.00  0.00     0.060 A 
HETATM   27  C   UNL     1     -42.204  58.526 -57.899  1.00  0.00     0.073 C 
ENDBRANCH  18  20
ENDBRANCH   1  18
TORSDOF 5
ENDMDL
MODEL 5
REMARK VINA RESULT:      -7.5      2.301      3.474
REMARK  5 active torsions:
REMARK  status: ('A' for Active; 'I' for Inactive)
REMARK    1  A    between atoms: C_8  and  C_9 
REMARK    2  A    between atoms: C_9  and  C_10 
REMARK       I    between atoms: C_10  and  N_11 
REMARK    3  A    between atoms: N_11  and  C_12 
REMARK    4  A    between atoms: C_12  and  C_13 
REMARK    5  A    between atoms: C_13  and  C_14 
ROOT
HETATM    1  C   UNL     1     -44.338  57.441 -56.549  1.00  0.00     0.226 C 
HETATM    2  N   UNL     1     -43.562  56.322 -56.334  1.00  0.00    -0.360 N 
HETATM    3  O   UNL     1     -44.825  58.079 -55.615  1.00  0.00    -0.273 OA
HETATM    4  H   UNL     1     -43.148  55.826 -57.110  1.00  0.00     0.162 HD
ENDROOT
BRANCH   2   5
HETATM    5  C   UNL     1     -43.252  55.865 -54.991  1.00  0.00     0.127 C 
BRANCH   5   6
HETATM    6  C   UNL     1     -43.261  54.339 -54.865  1.00  0.00     0.060 C 
BRANCH   6   7
HETATM    7  C   UNL     1     -42.123  53.836 -54.035  1.00  0.00    -0.029 A 
HETATM    8  C   UNL     1     -41.974  53.981 -52.618  1.00  0.00    -0.002 A 
HETATM    9  C   UNL     1     -40.770  53.375 -52.260  1.00  0.00     0.044 A 
HETATM   10  C   UNL     1     -42.758  54.578 -51.609  1.00  0.00     0.016 A 
HETATM   11  C   UNL     1     -40.305  53.337 -50.939  1.00  0.00     0.054 A 
HETATM   12  N   UNL     1     -40.210  52.874 -53.412  1.00  0.00    -0.365 N 
HETATM   13  C   UNL     1     -41.102  53.939 -49.961  1.00  0.00     0.036 A 
HETATM   14 CL   UNL     1     -40.572  53.922 -48.320  1.00  0.00    -0.084 Cl
HETATM   15  C   UNL     1     -42.310  54.551 -50.282  1.00  0.00     0.025 A 
HETATM   16  H   UNL     1     -39.332  52.376 -53.453  1.00  0.00     0.165 HD
HETATM   17  C   UNL     1     -41.014  53.146 -54.486  1.00  0.00     0.096 A 
ENDBRANCH   6   7
ENDBRANCH   5   6
ENDBRANCH   2   5
BRANCH   1  18
HETATM   18  C   UNL     1     -44.538  57.879 -58.008  1.00  0.00     0.111 C 
HETATM   19  C   UNL     1     -45.894  57.522 -58.615  1.00  0.00     0.025 C 
BRANCH  18  20
HETATM   20  C   UNL     1     -43.392  57.446 -58.885  1.00  0.00     0.004 A 
HETATM   21  C   UNL     1     -42.246  58.175 -59.165  1.00  0.00     0.033 A 
HETATM   22  C   UNL     1     -41.790  59.512 -58.716  1.00  0.00     0.070 C 
HETATM   23  N   UNL     1     -41.493  57.394 -59.993  1.00  0.00    -0.282 N 
HETATM   24  H   UNL     1     -40.582  57.596 -60.389  1.00  0.00     0.189 HD
HETATM   25  N   UNL     1     -42.066  56.225 -60.298  1.00  0.00    -0.179 NA
HETATM   26  C   UNL     1     -43.217  56.232 -59.616  1.00  0.00     0.060 A 
HETATM   27  C   UNL     1     -44.108  55.049 -59.700  1.00  0.00     0.073 C 
ENDBRANCH  18  20
ENDBRANCH   1  18
TORSDOF 5
ENDMDL
MODEL 6
REMARK VINA RESULT:      -7.5      4.579      5.881
REMARK  5 active torsions:
REMARK  status: ('A' for Active; 'I' for Inactive)
REMARK    1  A    between atoms: C_8  and  C_9 
REMARK    2  A    between atoms: C_9  and  C_10 
REMARK       I    between atoms: C_10  and  N_11 
REMARK    3  A    between atoms: N_11  and  C_12 
REMARK    4  A    between atoms: C_12  and  C_13 
REMARK    5  A    between atoms: C_13  and  C_14 
ROOT
HETATM    1  C   UNL     1     -41.882  58.641 -51.105  1.00  0.00     0.226 C 
HETATM    2  N   UNL     1     -42.207  57.361 -50.708  1.00  0.00    -0.360 N 
HETATM    3  O   UNL     1     -40.747  59.094 -50.958  1.00  0.00    -0.273 OA
HETATM    4  H   UNL     1     -43.135  56.994 -50.861  1.00  0.00     0.162 HD
ENDROOT
BRANCH   2   5
HETATM    5  C   UNL     1     -41.212  56.474 -50.128  1.00  0.00     0.127 C 
BRANCH   5   6
HETATM    6  C   UNL     1     -41.671  55.013 -50.088  1.00  0.00     0.060 C 
BRANCH   6   7
HETATM    7  C   UNL     1     -41.778  54.420 -51.457  1.00  0.00    -0.029 A 
HETATM    8  C   UNL     1     -41.010  53.327 -51.973  1.00  0.00    -0.002 A 
HETATM    9  C   UNL     1     -41.426  53.107 -53.286  1.00  0.00     0.044 A 
HETATM   10  C   UNL     1     -39.995  52.507 -51.438  1.00  0.00     0.016 A 
HETATM   11  C   UNL     1     -40.875  52.107 -54.098  1.00  0.00     0.054 A 
HETATM   12  N   UNL     1     -42.413  54.025 -53.557  1.00  0.00    -0.365 N 
HETATM   13  C   UNL     1     -39.869  51.311 -53.541  1.00  0.00     0.036 A 
HETATM   14 CL   UNL     1     -39.157  50.068 -54.500  1.00  0.00    -0.084 Cl
HETATM   15  C   UNL     1     -39.431  51.501 -52.234  1.00  0.00     0.025 A 
HETATM   16  H   UNL     1     -42.904  54.096 -54.438  1.00  0.00     0.165 HD
HETATM   17  C   UNL     1     -42.633  54.821 -52.465  1.00  0.00     0.096 A 
ENDBRANCH   6   7
ENDBRANCH   5   6
ENDBRANCH   2   5
BRANCH   1  18
HETATM   18  C   UNL     1     -42.992  59.463 -51.777  1.00  0.00     0.111 C 
HETATM   19  C   UNL     1     -44.376  58.815 -51.771  1.00  0.00     0.025 C 
BRANCH  18  20
HETATM   20  C   UNL     1     -42.590  59.930 -53.151  1.00  0.00     0.004 A 
HETATM   21  C   UNL     1     -42.730  61.212 -53.661  1.00  0.00     0.033 A 
HETATM   22  C   UNL     1     -43.262  62.460 -53.065  1.00  0.00     0.070 C 
HETATM   23  N   UNL     1     -42.232  61.172 -54.931  1.00  0.00    -0.282 N 
HETATM   24  H   UNL     1     -42.158  61.930 -55.600  1.00  0.00     0.189 HD
HETATM   25  N   UNL     1     -41.804  59.961 -55.302  1.00  0.00    -0.179 NA
HETATM   26  C   UNL     1     -41.997  59.196 -54.222  1.00  0.00     0.060 A 
HETATM   27  C   UNL     1     -41.593  57.768 -54.273  1.00  0.00     0.073 C 
ENDBRANCH  18  20
ENDBRANCH   1  18
TORSDOF 5
ENDMDL
MODEL 7
REMARK VINA RESULT:      -7.3     15.177     17.747
REMARK  5 active torsions:
REMARK  status: ('A' for Active; 'I' for Inactive)
REMARK    1  A    between atoms: C_8  and  C_9 
REMARK    2  A    between atoms: C_9  and  C_10 
REMARK       I    between atoms: C_10  and  N_11 
REMARK    3  A    between atoms: N_11  and  C_12 
REMARK    4  A    between atoms: C_12  and  C_13 
REMARK    5  A    between atoms: C_13  and  C_14 
ROOT
HETATM    1  C   UNL     1     -32.964  39.775 -52.818  1.00  0.00     0.226 C 
HETATM    2  N   UNL     1     -34.171  39.961 -52.179  1.00  0.00    -0.360 N 
HETATM    3  O   UNL     1     -32.034  40.570 -52.682  1.00  0.00    -0.273 OA
HETATM    4  H   UNL     1     -34.916  39.285 -52.278  1.00  0.00     0.162 HD
ENDROOT
BRANCH   2   5
HETATM    5  C   UNL     1     -34.389  41.085 -51.285  1.00  0.00     0.127 C 
BRANCH   5   6
HETATM    6  C   UNL     1     -34.966  42.310 -52.001  1.00  0.00     0.060 C 
BRANCH   6   7
HETATM    7  C   UNL     1     -36.052  41.940 -52.961  1.00  0.00    -0.029 A 
HETATM    8  C   UNL     1     -35.976  41.989 -54.391  1.00  0.00    -0.002 A 
HETATM    9  C   UNL     1     -37.209  41.569 -54.889  1.00  0.00     0.044 A 
HETATM   10  C   UNL     1     -34.967  42.358 -55.304  1.00  0.00     0.016 A 
HETATM   11  C   UNL     1     -37.489  41.501 -56.260  1.00  0.00     0.054 A 
HETATM   12  N   UNL     1     -38.003  41.269 -53.806  1.00  0.00    -0.365 N 
HETATM   13  C   UNL     1     -36.470  41.875 -57.142  1.00  0.00     0.036 A 
HETATM   14 CL   UNL     1     -36.765  41.810 -58.839  1.00  0.00    -0.084 Cl
HETATM   15  C   UNL     1     -35.227  42.296 -56.679  1.00  0.00     0.025 A 
HETATM   16  H   UNL     1     -38.953  40.933 -53.869  1.00  0.00     0.165 HD
HETATM   17  C   UNL     1     -37.318  41.490 -52.642  1.00  0.00     0.096 A 
ENDBRANCH   6   7
ENDBRANCH   5   6
ENDBRANCH   2   5
BRANCH   1  18
HETATM   18  C   UNL     1     -32.819  38.510 -53.677  1.00  0.00     0.111 C 
HETATM   19  C   UNL     1     -31.463  37.811 -53.581  1.00  0.00     0.025 C 
BRANCH  18  20
HETATM   20  C   UNL     1     -33.232  38.752 -55.105  1.00  0.00     0.004 A 
HETATM   21  C   UNL     1     -34.494  38.551 -55.644  1.00  0.00     0.033 A 
HETATM   22  C   UNL     1     -35.764  38.084 -55.040  1.00  0.00     0.070 C 
HETATM   23  N   UNL     1     -34.405  38.902 -56.960  1.00  0.00    -0.282 N 
HETATM   24  H   UNL     1     -35.137  38.897 -57.662  1.00  0.00     0.189 HD
HETATM   25  N   UNL     1     -33.180  39.290 -57.331  1.00  0.00    -0.179 NA
HETATM   26  C   UNL     1     -32.457  39.223 -56.207  1.00  0.00     0.060 A 
HETATM   27  C   UNL     1     -31.029  39.625 -56.249  1.00  0.00     0.073 C 
ENDBRANCH  18  20
ENDBRANCH   1  18
TORSDOF 5
ENDMDL
MODEL 8
REMARK VINA RESULT:      -7.3      1.250      2.055
REMARK  5 active torsions:
REMARK  status: ('A' for Active; 'I' for Inactive)
REMARK    1  A    between atoms: C_8  and  C_9 
REMARK    2  A    between atoms: C_9  and  C_10 
REMARK       I    between atoms: C_10  and  N_11 
REMARK    3  A    between atoms: N_11  and  C_12 
REMARK    4  A    between atoms: C_12  and  C_13 
REMARK    5  A    between atoms: C_13  and  C_14 
ROOT
HETATM    1  C   UNL     1     -43.821  57.696 -56.660  1.00  0.00     0.226 C 
HETATM    2  N   UNL     1     -43.395  56.429 -56.320  1.00  0.00    -0.360 N 
HETATM    3  O   UNL     1     -44.070  58.544 -55.804  1.00  0.00    -0.273 OA
HETATM    4  H   UNL     1     -43.167  55.753 -57.036  1.00  0.00     0.162 HD
ENDROOT
BRANCH   2   5
HETATM    5  C   UNL     1     -43.184  56.049 -54.934  1.00  0.00     0.127 C 
BRANCH   5   6
HETATM    6  C   UNL     1     -41.774  56.375 -54.436  1.00  0.00     0.060 C 
BRANCH   6   7
HETATM    7  C   UNL     1     -41.353  55.479 -53.314  1.00  0.00    -0.029 A 
HETATM    8  C   UNL     1     -40.894  54.127 -53.431  1.00  0.00    -0.002 A 
HETATM    9  C   UNL     1     -40.618  53.667 -52.144  1.00  0.00     0.044 A 
HETATM   10  C   UNL     1     -40.691  53.254 -54.521  1.00  0.00     0.016 A 
HETATM   11  C   UNL     1     -40.151  52.371 -51.887  1.00  0.00     0.054 A 
HETATM   12  N   UNL     1     -40.892  54.698 -51.277  1.00  0.00    -0.365 N 
HETATM   13  C   UNL     1     -39.962  51.527 -52.986  1.00  0.00     0.036 A 
HETATM   14 CL   UNL     1     -39.391  49.922 -52.723  1.00  0.00    -0.084 Cl
HETATM   15  C   UNL     1     -40.225  51.955 -54.284  1.00  0.00     0.025 A 
HETATM   16  H   UNL     1     -40.777  54.650 -50.274  1.00  0.00     0.165 HD
HETATM   17  C   UNL     1     -41.336  55.793 -51.969  1.00  0.00     0.096 A 
ENDBRANCH   6   7
ENDBRANCH   5   6
ENDBRANCH   2   5
BRANCH   1  18
HETATM   18  C   UNL     1     -43.934  58.013 -58.159  1.00  0.00     0.111 C 
HETATM   19  C   UNL     1     -43.993  59.500 -58.507  1.00  0.00     0.025 C 
BRANCH  18  20
HETATM   20  C   UNL     1     -45.043  57.232 -58.815  1.00  0.00     0.004 A 
HETATM   21  C   UNL     1     -46.404  57.465 -58.686  1.00  0.00     0.033 A 
HETATM   22  C   UNL     1     -47.165  58.490 -57.934  1.00  0.00     0.070 C 
HETATM   23  N   UNL     1     -47.025  56.522 -59.453  1.00  0.00    -0.282 N 
HETATM   24  H   UNL     1     -48.018  56.396 -59.610  1.00  0.00     0.189 HD
HETATM   25  N   UNL     1     -46.180  55.675 -60.051  1.00  0.00    -0.179 NA
HETATM   26  C   UNL     1     -44.966  56.105 -59.688  1.00  0.00     0.060 A 
HETATM   27  C   UNL     1     -43.770  55.400 -60.210  1.00  0.00     0.073 C 
ENDBRANCH  18  20
ENDBRANCH   1  18
TORSDOF 5
ENDMDL
MODEL 9
REMARK VINA RESULT:      -7.3      1.943      3.114
REMARK  5 active torsions:
REMARK  status: ('A' for Active; 'I' for Inactive)
REMARK    1  A    between atoms: C_8  and  C_9 
REMARK    2  A    between atoms: C_9  and  C_10 
REMARK       I    between atoms: C_10  and  N_11 
REMARK    3  A    between atoms: N_11  and  C_12 
REMARK    4  A    between atoms: C_12  and  C_13 
REMARK    5  A    between atoms: C_13  and  C_14 
ROOT
HETATM    1  C   UNL     1     -44.423  58.369 -57.028  1.00  0.00     0.226 C 
HETATM    2  N   UNL     1     -44.259  57.192 -56.329  1.00  0.00    -0.360 N 
HETATM    3  O   UNL     1     -44.303  59.466 -56.482  1.00  0.00    -0.273 OA
HETATM    4  H   UNL     1     -44.334  56.300 -56.797  1.00  0.00     0.162 HD
ENDROOT
BRANCH   2   5
HETATM    5  C   UNL     1     -43.900  57.192 -54.921  1.00  0.00     0.127 C 
BRANCH   5   6
HETATM    6  C   UNL     1     -42.387  57.262 -54.694  1.00  0.00     0.060 C 
BRANCH   6   7
HETATM    7  C   UNL     1     -41.937  56.329 -53.615  1.00  0.00    -0.029 A 
HETATM    8  C   UNL     1     -41.330  55.045 -53.799  1.00  0.00    -0.002 A 
HETATM    9  C   UNL     1     -41.080  54.516 -52.533  1.00  0.00     0.044 A 
HETATM   10  C   UNL     1     -40.974  54.285 -54.933  1.00  0.00     0.016 A 
HETATM   11  C   UNL     1     -40.492  53.258 -52.341  1.00  0.00     0.054 A 
HETATM   12  N   UNL     1     -41.510  55.443 -51.614  1.00  0.00    -0.365 N 
HETATM   13  C   UNL     1     -40.152  52.527 -53.483  1.00  0.00     0.036 A 
HETATM   14 CL   UNL     1     -39.429  50.973 -53.299  1.00  0.00    -0.084 Cl
HETATM   15  C   UNL     1     -40.386  53.026 -54.761  1.00  0.00     0.025 A 
HETATM   16  H   UNL     1     -41.448  55.328 -50.612  1.00  0.00     0.165 HD
HETATM   17  C   UNL     1     -42.029  56.537 -52.253  1.00  0.00     0.096 A 
ENDBRANCH   6   7
ENDBRANCH   5   6
ENDBRANCH   2   5
BRANCH   1  18
HETATM   18  C   UNL     1     -44.726  58.250 -58.529  1.00  0.00     0.111 C 
HETATM   19  C   UNL     1     -46.012  57.500 -58.876  1.00  0.00     0.025 C 
BRANCH  18  20
HETATM   20  C   UNL     1     -43.541  57.731 -59.300  1.00  0.00     0.004 A 
HETATM   21  C   UNL     1     -42.517  58.488 -59.848  1.00  0.00     0.033 A 
HETATM   22  C   UNL     1     -42.255  59.947 -59.844  1.00  0.00     0.070 C 
HETATM   23  N   UNL     1     -41.668  57.603 -60.448  1.00  0.00    -0.282 N 
HETATM   24  H   UNL     1     -40.802  57.797 -60.937  1.00  0.00     0.189 HD
HETATM   25  N   UNL     1     -42.070  56.330 -60.358  1.00  0.00    -0.179 NA
HETATM   26  C   UNL     1     -43.200  56.388 -59.646  1.00  0.00     0.060 A 
HETATM   27  C   UNL     1     -43.910  55.125 -59.324  1.00  0.00     0.073 C 
ENDBRANCH  18  20
ENDBRANCH   1  18
TORSDOF 5
ENDMDL
MODEL 10
REMARK VINA RESULT:      -7.2      4.031      5.401
REMARK  5 active torsions:
REMARK  status: ('A' for Active; 'I' for Inactive)
REMARK    1  A    between atoms: C_8  and  C_9 
REMARK    2  A    between atoms: C_9  and  C_10 
REMARK       I    between atoms: C_10  and  N_11 
REMARK    3  A    between atoms: N_11  and  C_12 
REMARK    4  A    between atoms: C_12  and  C_13 
REMARK    5  A    between atoms: C_13  and  C_14 
ROOT
HETATM    1  C   UNL     1     -43.001  58.972 -51.469  1.00  0.00     0.226 C 
HETATM    2  N   UNL     1     -42.757  57.720 -50.947  1.00  0.00    -0.360 N 
HETATM    3  O   UNL     1     -42.105  59.643 -51.983  1.00  0.00    -0.273 OA
HETATM    4  H   UNL     1     -43.508  57.170 -50.554  1.00  0.00     0.162 HD
ENDROOT
BRANCH   2   5
HETATM    5  C   UNL     1     -41.436  57.118 -51.012  1.00  0.00     0.127 C 
BRANCH   5   6
HETATM    6  C   UNL     1     -41.461  55.604 -50.785  1.00  0.00     0.060 C 
BRANCH   6   7
HETATM    7  C   UNL     1     -41.519  54.844 -52.072  1.00  0.00    -0.029 A 
HETATM    8  C   UNL     1     -40.856  53.608 -52.361  1.00  0.00    -0.002 A 
HETATM    9  C   UNL     1     -41.175  53.260 -53.674  1.00  0.00     0.044 A 
HETATM   10  C   UNL     1     -40.008  52.757 -51.622  1.00  0.00     0.016 A 
HETATM   11  C   UNL     1     -40.686  52.100 -54.289  1.00  0.00     0.054 A 
HETATM   12  N   UNL     1     -42.005  54.240 -54.163  1.00  0.00    -0.365 N 
HETATM   13  C   UNL     1     -39.846  51.276 -53.533  1.00  0.00     0.036 A 
HETATM   14 CL   UNL     1     -39.217  49.839 -54.246  1.00  0.00    -0.084 Cl
HETATM   15  C   UNL     1     -39.509  51.593 -52.220  1.00  0.00     0.025 A 
HETATM   16  H   UNL     1     -42.400  54.245 -55.093  1.00  0.00     0.165 HD
HETATM   17  C   UNL     1     -42.219  55.199 -53.209  1.00  0.00     0.096 A 
ENDBRANCH   6   7
ENDBRANCH   5   6
ENDBRANCH   2   5
BRANCH   1  18
HETATM   18  C   UNL     1     -44.451  59.477 -51.416  1.00  0.00     0.111 C 
HETATM   19  C   UNL     1     -45.437  58.552 -50.704  1.00  0.00     0.025 C 
BRANCH  18  20
HETATM   20  C   UNL     1     -44.948  59.898 -52.774  1.00  0.00     0.004 A 
HETATM   21  C   UNL     1     -45.067  59.091 -53.896  1.00  0.00     0.033 A 
HETATM   22  C   UNL     1     -44.787  57.652 -54.113  1.00  0.00     0.070 C 
HETATM   23  N   UNL     1     -45.557  59.890 -54.888  1.00  0.00    -0.282 N 
HETATM   24  H   UNL     1     -45.784  59.637 -55.843  1.00  0.00     0.189 HD
HETATM   25  N   UNL     1     -45.741  61.160 -54.513  1.00  0.00    -0.179 NA
HETATM   26  C   UNL     1     -45.393  61.179 -53.222  1.00  0.00     0.060 A 
HETATM   27  C   UNL     1     -45.508  62.451 -52.466  1.00  0.00     0.073 C 
ENDBRANCH  18  20
ENDBRANCH   1  18
TORSDOF 5
ENDMDL
