MODEL 1
REMARK VINA RESULT:      -8.6      0.000      0.000
REMARK  4 active torsions:
REMARK  status: ('A' for Active; 'I' for Inactive)
REMARK    1  A    between atoms: C_6  and  C_7 
REMARK    2  A    between atoms: C_7  and  C_8 
REMARK       I    between atoms: C_8  and  N_9 
REMARK    3  A    between atoms: N_9  and  C_10 
REMARK    4  A    between atoms: C_17  and  C_18 
REMARK       I    between atoms: C_18  and  N_19 
ROOT
HETATM    1  C   UNL     1     -43.475  55.327 -53.777  1.00  0.00     0.035 A 
HETATM    2  C   UNL     1     -43.196  56.634 -54.168  1.00  0.00     0.046 A 
HETATM    3  C   UNL     1     -42.822  56.909 -55.502  1.00  0.00     0.030 A 
HETATM    4  C   UNL     1     -42.778  55.865 -56.416  1.00  0.00     0.063 A 
HETATM    5  N   UNL     1     -42.394  56.433 -57.599  1.00  0.00    -0.277 N 
HETATM    6  H   UNL     1     -42.257  55.967 -58.489  1.00  0.00     0.189 HD
HETATM    7  N   UNL     1     -42.181  57.759 -57.533  1.00  0.00    -0.168 NA
HETATM    8  C   UNL     1     -42.437  58.065 -56.243  1.00  0.00     0.156 A 
HETATM    9  C   UNL     1     -43.090  54.549 -56.076  1.00  0.00     0.034 A 
HETATM   10  C   UNL     1     -43.440  54.307 -54.740  1.00  0.00     0.032 A 
ENDROOT
BRANCH   1  11
HETATM   11  N   UNL     1     -43.816  54.936 -52.473  1.00  0.00    -0.326 N 
HETATM   12  C   UNL     1     -43.125  54.719 -51.306  1.00  0.00     0.235 C 
HETATM   13  O   UNL     1     -43.786  54.433 -50.305  1.00  0.00    -0.272 OA
HETATM   14  H   UNL     1     -44.795  54.727 -52.319  1.00  0.00     0.169 HD
BRANCH  12  15
HETATM   15  C   UNL     1     -41.617  54.725 -51.194  1.00  0.00     0.068 A 
HETATM   16  C   UNL     1     -40.914  55.541 -50.110  1.00  0.00     0.026 A 
HETATM   17  C   UNL     1     -40.977  56.103 -51.485  1.00  0.00     0.026 A 
BRANCH  15  18
HETATM   18  C   UNL     1     -40.888  53.561 -51.896  1.00  0.00    -0.039 A 
HETATM   19  C   UNL     1     -40.441  52.413 -51.219  1.00  0.00     0.032 A 
HETATM   20  C   UNL     1     -39.775  51.386 -51.896  1.00  0.00     0.034 A 
HETATM   21  C   UNL     1     -39.526  51.478 -53.261  1.00  0.00     0.024 A 
HETATM   22 CL   UNL     1     -39.253  49.991 -51.031  1.00  0.00    -0.084 Cl
HETATM   23  C   UNL     1     -39.948  52.606 -53.956  1.00  0.00     0.002 A 
HETATM   24  C   UNL     1     -40.620  53.627 -53.280  1.00  0.00     0.008 A 
ENDBRANCH  15  18
ENDBRANCH  12  15
ENDBRANCH   1  11
BRANCH   8  25
HETATM   25  C   UNL     1     -42.300  59.437 -55.736  1.00  0.00     0.270 C 
HETATM   26  N   UNL     1     -43.133  60.342 -56.334  1.00  0.00    -0.365 N 
HETATM   27  H   UNL     1     -43.762  60.020 -57.060  1.00  0.00     0.159 HD
HETATM   28  H   UNL     1     -43.108  61.310 -56.051  1.00  0.00     0.159 HD
HETATM   29  O   UNL     1     -41.509  59.774 -54.861  1.00  0.00    -0.266 OA
ENDBRANCH   8  25
TORSDOF 4
ENDMDL
MODEL 2
REMARK VINA RESULT:      -8.2      3.326      4.826
REMARK  4 active torsions:
REMARK  status: ('A' for Active; 'I' for Inactive)
REMARK    1  A    between atoms: C_6  and  C_7 
REMARK    2  A    between atoms: C_7  and  C_8 
REMARK       I    between atoms: C_8  and  N_9 
REMARK    3  A    between atoms: N_9  and  C_10 
REMARK    4  A    between atoms: C_17  and  C_18 
REMARK       I    between atoms: C_18  and  N_19 
ROOT
HETATM    1  C   UNL     1     -42.572  57.175 -53.547  1.00  0.00     0.035 A 
HETATM    2  C   UNL     1     -41.344  57.673 -53.118  1.00  0.00     0.046 A 
HETATM    3  C   UNL     1     -41.280  58.517 -51.988  1.00  0.00     0.030 A 
HETATM    4  C   UNL     1     -42.448  58.805 -51.297  1.00  0.00     0.063 A 
HETATM    5  N   UNL     1     -42.071  59.627 -50.272  1.00  0.00    -0.277 N 
HETATM    6  H   UNL     1     -42.667  60.037 -49.561  1.00  0.00     0.189 HD
HETATM    7  N   UNL     1     -40.755  59.902 -50.237  1.00  0.00    -0.168 NA
HETATM    8  C   UNL     1     -40.255  59.226 -51.294  1.00  0.00     0.156 A 
HETATM    9  C   UNL     1     -43.691  58.295 -51.668  1.00  0.00     0.034 A 
HETATM   10  C   UNL     1     -43.724  57.474 -52.804  1.00  0.00     0.032 A 
ENDROOT
BRANCH   1  11
HETATM   11  N   UNL     1     -42.758  56.363 -54.677  1.00  0.00    -0.326 N 
HETATM   12  C   UNL     1     -42.426  55.075 -55.018  1.00  0.00     0.235 C 
HETATM   13  O   UNL     1     -42.819  54.663 -56.113  1.00  0.00    -0.272 OA
HETATM   14  H   UNL     1     -43.220  56.803 -55.464  1.00  0.00     0.169 HD
BRANCH  12  15
HETATM   15  C   UNL     1     -41.546  54.171 -54.184  1.00  0.00     0.068 A 
HETATM   16  C   UNL     1     -40.229  53.630 -54.739  1.00  0.00     0.026 A 
HETATM   17  C   UNL     1     -41.416  52.736 -54.749  1.00  0.00     0.026 A 
BRANCH  15  18
HETATM   18  C   UNL     1     -41.802  54.200 -52.665  1.00  0.00    -0.039 A 
HETATM   19  C   UNL     1     -40.771  54.270 -51.711  1.00  0.00     0.032 A 
HETATM   20  C   UNL     1     -41.051  54.284 -50.341  1.00  0.00     0.034 A 
HETATM   21  C   UNL     1     -42.363  54.219 -49.882  1.00  0.00     0.024 A 
HETATM   22 CL   UNL     1     -39.760  54.380 -49.206  1.00  0.00    -0.084 Cl
HETATM   23  C   UNL     1     -43.404  54.142 -50.801  1.00  0.00     0.002 A 
HETATM   24  C   UNL     1     -43.122  54.135 -52.169  1.00  0.00     0.008 A 
ENDBRANCH  15  18
ENDBRANCH  12  15
ENDBRANCH   1  11
BRANCH   8  25
HETATM   25  C   UNL     1     -38.826  59.276 -51.633  1.00  0.00     0.270 C 
HETATM   26  N   UNL     1     -37.999  59.421 -50.555  1.00  0.00    -0.365 N 
HETATM   27  H   UNL     1     -38.409  59.486 -49.630  1.00  0.00     0.159 HD
HETATM   28  H   UNL     1     -37.000  59.466 -50.691  1.00  0.00     0.159 HD
HETATM   29  O   UNL     1     -38.385  59.207 -52.775  1.00  0.00    -0.266 OA
ENDBRANCH   8  25
TORSDOF 4
ENDMDL
MODEL 3
REMARK VINA RESULT:      -8.1      2.010      2.976
REMARK  4 active torsions:
REMARK  status: ('A' for Active; 'I' for Inactive)
REMARK    1  A    between atoms: C_6  and  C_7 
REMARK    2  A    between atoms: C_7  and  C_8 
REMARK       I    between atoms: C_8  and  N_9 
REMARK    3  A    between atoms: N_9  and  C_10 
REMARK    4  A    between atoms: C_17  and  C_18 
REMARK       I    between atoms: C_18  and  N_19 
ROOT
HETATM    1  C   UNL     1     -43.377  57.061 -52.404  1.00  0.00     0.035 A 
HETATM    2  C   UNL     1     -43.147  56.979 -53.776  1.00  0.00     0.046 A 
HETATM    3  C   UNL     1     -42.641  58.097 -54.476  1.00  0.00     0.030 A 
HETATM    4  C   UNL     1     -42.340  59.252 -53.769  1.00  0.00     0.063 A 
HETATM    5  N   UNL     1     -41.876  60.138 -54.701  1.00  0.00    -0.277 N 
HETATM    6  H   UNL     1     -41.562  61.089 -54.542  1.00  0.00     0.189 HD
HETATM    7  N   UNL     1     -41.850  59.659 -55.957  1.00  0.00    -0.168 NA
HETATM    8  C   UNL     1     -42.324  58.400 -55.833  1.00  0.00     0.156 A 
HETATM    9  C   UNL     1     -42.515  59.362 -52.390  1.00  0.00     0.034 A 
HETATM   10  C   UNL     1     -43.036  58.242 -51.728  1.00  0.00     0.032 A 
ENDROOT
BRANCH   1  11
HETATM   11  N   UNL     1     -43.913  56.029 -51.619  1.00  0.00    -0.326 N 
HETATM   12  C   UNL     1     -43.404  55.106 -50.739  1.00  0.00     0.235 C 
HETATM   13  O   UNL     1     -44.210  54.368 -50.167  1.00  0.00    -0.272 OA
HETATM   14  H   UNL     1     -44.910  55.877 -51.714  1.00  0.00     0.169 HD
BRANCH  12  15
HETATM   15  C   UNL     1     -41.927  54.882 -50.497  1.00  0.00     0.068 A 
HETATM   16  C   UNL     1     -41.318  55.098 -49.113  1.00  0.00     0.026 A 
HETATM   17  C   UNL     1     -41.156  56.171 -50.129  1.00  0.00     0.026 A 
BRANCH  15  18
HETATM   18  C   UNL     1     -41.198  54.022 -51.549  1.00  0.00    -0.039 A 
HETATM   19  C   UNL     1     -41.120  54.371 -52.908  1.00  0.00     0.032 A 
HETATM   20  C   UNL     1     -40.456  53.554 -53.829  1.00  0.00     0.034 A 
HETATM   21  C   UNL     1     -39.862  52.363 -53.425  1.00  0.00     0.024 A 
HETATM   22 CL   UNL     1     -40.375  54.024 -55.484  1.00  0.00    -0.084 Cl
HETATM   23  C   UNL     1     -39.930  51.987 -52.088  1.00  0.00     0.002 A 
HETATM   24  C   UNL     1     -40.587  52.808 -51.169  1.00  0.00     0.008 A 
ENDBRANCH  15  18
ENDBRANCH  12  15
ENDBRANCH   1  11
BRANCH   8  25
HETATM   25  C   UNL     1     -42.480  57.519 -56.998  1.00  0.00     0.270 C 
HETATM   26  N   UNL     1     -41.803  57.934 -58.110  1.00  0.00    -0.365 N 
HETATM   27  H   UNL     1     -41.263  58.791 -58.061  1.00  0.00     0.159 HD
HETATM   28  H   UNL     1     -41.853  57.392 -58.959  1.00  0.00     0.159 HD
HETATM   29  O   UNL     1     -43.160  56.498 -57.005  1.00  0.00    -0.266 OA
ENDBRANCH   8  25
TORSDOF 4
ENDMDL
MODEL 4
REMARK VINA RESULT:      -8.1      1.557      1.961
REMARK  4 active torsions:
REMARK  status: ('A' for Active; 'I' for Inactive)
REMARK    1  A    between atoms: C_6  and  C_7 
REMARK    2  A    between atoms: C_7  and  C_8 
REMARK       I    between atoms: C_8  and  N_9 
REMARK    3  A    between atoms: N_9  and  C_10 
REMARK    4  A    between atoms: C_17  and  C_18 
REMARK       I    between atoms: C_18  and  N_19 
ROOT
HETATM    1  C   UNL     1     -43.706  56.046 -54.185  1.00  0.00     0.035 A 
HETATM    2  C   UNL     1     -43.625  57.169 -55.005  1.00  0.00     0.046 A 
HETATM    3  C   UNL     1     -43.179  57.039 -56.339  1.00  0.00     0.030 A 
HETATM    4  C   UNL     1     -42.867  55.777 -56.823  1.00  0.00     0.063 A 
HETATM    5  N   UNL     1     -42.478  55.971 -58.119  1.00  0.00    -0.277 N 
HETATM    6  H   UNL     1     -42.177  55.265 -58.783  1.00  0.00     0.189 HD
HETATM    7  N   UNL     1     -42.507  57.253 -58.521  1.00  0.00    -0.168 NA
HETATM    8  C   UNL     1     -42.935  57.925 -57.430  1.00  0.00     0.156 A 
HETATM    9  C   UNL     1     -42.974  54.622 -56.049  1.00  0.00     0.034 A 
HETATM   10  C   UNL     1     -43.402  54.787 -54.724  1.00  0.00     0.032 A 
ENDROOT
BRANCH   1  11
HETATM   11  N   UNL     1     -44.096  56.065 -52.837  1.00  0.00    -0.326 N 
HETATM   12  C   UNL     1     -43.446  56.197 -51.634  1.00  0.00     0.235 C 
HETATM   13  O   UNL     1     -44.144  56.229 -50.617  1.00  0.00    -0.272 OA
HETATM   14  H   UNL     1     -45.084  55.923 -52.663  1.00  0.00     0.169 HD
BRANCH  12  15
HETATM   15  C   UNL     1     -41.942  56.217 -51.474  1.00  0.00     0.068 A 
HETATM   16  C   UNL     1     -41.235  57.423 -50.858  1.00  0.00     0.026 A 
HETATM   17  C   UNL     1     -41.240  57.292 -52.339  1.00  0.00     0.026 A 
BRANCH  15  18
HETATM   18  C   UNL     1     -41.243  54.844 -51.533  1.00  0.00    -0.039 A 
HETATM   19  C   UNL     1     -40.983  54.164 -52.735  1.00  0.00     0.032 A 
HETATM   20  C   UNL     1     -40.355  52.914 -52.739  1.00  0.00     0.034 A 
HETATM   21  C   UNL     1     -39.978  52.303 -51.547  1.00  0.00     0.024 A 
HETATM   22 CL   UNL     1     -40.045  52.119 -54.234  1.00  0.00    -0.084 Cl
HETATM   23  C   UNL     1     -40.230  52.948 -50.341  1.00  0.00     0.002 A 
HETATM   24  C   UNL     1     -40.851  54.199 -50.341  1.00  0.00     0.008 A 
ENDBRANCH  15  18
ENDBRANCH  12  15
ENDBRANCH   1  11
BRANCH   8  25
HETATM   25  C   UNL     1     -43.090  59.386 -57.437  1.00  0.00     0.270 C 
HETATM   26  N   UNL     1     -42.044  60.064 -56.875  1.00  0.00    -0.365 N 
HETATM   27  H   UNL     1     -41.265  59.535 -56.501  1.00  0.00     0.159 HD
HETATM   28  H   UNL     1     -42.064  61.072 -56.834  1.00  0.00     0.159 HD
HETATM   29  O   UNL     1     -44.066  59.974 -57.892  1.00  0.00    -0.266 OA
ENDBRANCH   8  25
TORSDOF 4
ENDMDL
MODEL 5
REMARK VINA RESULT:      -7.8     15.305     18.119
REMARK  4 active torsions:
REMARK  status: ('A' for Active; 'I' for Inactive)
REMARK    1  A    between atoms: C_6  and  C_7 
REMARK    2  A    between atoms: C_7  and  C_8 
REMARK       I    between atoms: C_8  and  N_9 
REMARK    3  A    between atoms: N_9  and  C_10 
REMARK    4  A    between atoms: C_17  and  C_18 
REMARK       I    between atoms: C_18  and  N_19 
ROOT
HETATM    1  C   UNL     1     -35.455  41.878 -57.172  1.00  0.00     0.035 A 
HETATM    2  C   UNL     1     -34.229  41.215 -57.205  1.00  0.00     0.046 A 
HETATM    3  C   UNL     1     -33.558  40.910 -56.000  1.00  0.00     0.030 A 
HETATM    4  C   UNL     1     -34.157  41.244 -54.794  1.00  0.00     0.063 A 
HETATM    5  N   UNL     1     -33.285  40.828 -53.827  1.00  0.00    -0.277 N 
HETATM    6  H   UNL     1     -33.396  40.910 -52.823  1.00  0.00     0.189 HD
HETATM    7  N   UNL     1     -32.166  40.252 -54.301  1.00  0.00    -0.168 NA
HETATM    8  C   UNL     1     -32.320  40.301 -55.642  1.00  0.00     0.156 A 
HETATM    9  C   UNL     1     -35.401  41.871 -54.715  1.00  0.00     0.034 A 
HETATM   10  C   UNL     1     -36.033  42.176 -55.928  1.00  0.00     0.032 A 
ENDROOT
BRANCH   1  11
HETATM   11  N   UNL     1     -36.187  42.265 -58.304  1.00  0.00    -0.326 N 
HETATM   12  C   UNL     1     -37.094  41.655 -59.136  1.00  0.00     0.235 C 
HETATM   13  O   UNL     1     -37.597  42.346 -60.026  1.00  0.00    -0.272 OA
HETATM   14  H   UNL     1     -36.016  43.206 -58.638  1.00  0.00     0.169 HD
BRANCH  12  15
HETATM   15  C   UNL     1     -37.444  40.184 -59.085  1.00  0.00     0.068 A 
HETATM   16  C   UNL     1     -38.889  39.729 -58.891  1.00  0.00     0.026 A 
HETATM   17  C   UNL     1     -37.985  39.723 -57.711  1.00  0.00     0.026 A 
BRANCH  15  18
HETATM   18  C   UNL     1     -36.391  39.224 -59.673  1.00  0.00    -0.039 A 
HETATM   19  C   UNL     1     -36.292  38.938 -61.046  1.00  0.00     0.032 A 
HETATM   20  C   UNL     1     -35.327  38.051 -61.534  1.00  0.00     0.034 A 
HETATM   21  C   UNL     1     -34.442  37.416 -60.668  1.00  0.00     0.024 A 
HETATM   22 CL   UNL     1     -35.233  37.736 -63.224  1.00  0.00    -0.084 Cl
HETATM   23  C   UNL     1     -34.521  37.673 -59.304  1.00  0.00     0.002 A 
HETATM   24  C   UNL     1     -35.481  38.564 -58.820  1.00  0.00     0.008 A 
ENDBRANCH  15  18
ENDBRANCH  12  15
ENDBRANCH   1  11
BRANCH   8  25
HETATM   25  C   UNL     1     -31.290  39.783 -56.554  1.00  0.00     0.270 C 
HETATM   26  N   UNL     1     -31.715  38.765 -57.361  1.00  0.00    -0.365 N 
HETATM   27  H   UNL     1     -32.673  38.444 -57.277  1.00  0.00     0.159 HD
HETATM   28  H   UNL     1     -31.075  38.346 -58.018  1.00  0.00     0.159 HD
HETATM   29  O   UNL     1     -30.138  40.202 -56.602  1.00  0.00    -0.266 OA
ENDBRANCH   8  25
TORSDOF 4
ENDMDL
MODEL 6
REMARK VINA RESULT:      -7.8      2.469      3.706
REMARK  4 active torsions:
REMARK  status: ('A' for Active; 'I' for Inactive)
REMARK    1  A    between atoms: C_6  and  C_7 
REMARK    2  A    between atoms: C_7  and  C_8 
REMARK       I    between atoms: C_8  and  N_9 
REMARK    3  A    between atoms: N_9  and  C_10 
REMARK    4  A    between atoms: C_17  and  C_18 
REMARK       I    between atoms: C_18  and  N_19 
ROOT
HETATM    1  C   UNL     1     -43.390  56.148 -53.289  1.00  0.00     0.035 A 
HETATM    2  C   UNL     1     -43.008  57.427 -53.688  1.00  0.00     0.046 A 
HETATM    3  C   UNL     1     -43.019  58.491 -52.760  1.00  0.00     0.030 A 
HETATM    4  C   UNL     1     -43.375  58.230 -51.444  1.00  0.00     0.063 A 
HETATM    5  N   UNL     1     -43.289  59.433 -50.799  1.00  0.00    -0.277 N 
HETATM    6  H   UNL     1     -43.480  59.621 -49.821  1.00  0.00     0.189 HD
HETATM    7  N   UNL     1     -42.910  60.457 -51.584  1.00  0.00    -0.168 NA
HETATM    8  C   UNL     1     -42.743  59.889 -52.799  1.00  0.00     0.156 A 
HETATM    9  C   UNL     1     -43.724  56.958 -50.992  1.00  0.00     0.034 A 
HETATM   10  C   UNL     1     -43.720  55.927 -51.943  1.00  0.00     0.032 A 
ENDROOT
BRANCH   1  11
HETATM   11  N   UNL     1     -43.455  55.030 -54.134  1.00  0.00    -0.326 N 
HETATM   12  C   UNL     1     -42.570  54.062 -54.542  1.00  0.00     0.235 C 
HETATM   13  O   UNL     1     -43.010  53.167 -55.269  1.00  0.00    -0.272 OA
HETATM   14  H   UNL     1     -44.344  54.879 -54.596  1.00  0.00     0.169 HD
BRANCH  12  15
HETATM   15  C   UNL     1     -41.090  54.074 -54.232  1.00  0.00     0.068 A 
HETATM   16  C   UNL     1     -40.195  55.213 -54.720  1.00  0.00     0.026 A 
HETATM   17  C   UNL     1     -40.192  53.939 -55.485  1.00  0.00     0.026 A 
BRANCH  15  18
HETATM   18  C   UNL     1     -40.641  53.169 -53.067  1.00  0.00    -0.039 A 
HETATM   19  C   UNL     1     -40.779  53.531 -51.716  1.00  0.00     0.032 A 
HETATM   20  C   UNL     1     -40.348  52.682 -50.691  1.00  0.00     0.034 A 
HETATM   21  C   UNL     1     -39.759  51.456 -50.983  1.00  0.00     0.024 A 
HETATM   22 CL   UNL     1     -40.545  53.158 -49.048  1.00  0.00    -0.084 Cl
HETATM   23  C   UNL     1     -39.602  51.074 -52.311  1.00  0.00     0.002 A 
HETATM   24  C   UNL     1     -40.040  51.921 -53.332  1.00  0.00     0.008 A 
ENDBRANCH  15  18
ENDBRANCH  12  15
ENDBRANCH   1  11
BRANCH   8  25
HETATM   25  C   UNL     1     -42.342  60.682 -53.969  1.00  0.00     0.270 C 
HETATM   26  N   UNL     1     -42.726  61.993 -53.918  1.00  0.00    -0.365 N 
HETATM   27  H   UNL     1     -43.245  62.317 -53.110  1.00  0.00     0.159 HD
HETATM   28  H   UNL     1     -42.496  62.613 -54.679  1.00  0.00     0.159 HD
HETATM   29  O   UNL     1     -41.725  60.231 -54.928  1.00  0.00    -0.266 OA
ENDBRANCH   8  25
TORSDOF 4
ENDMDL
MODEL 7
REMARK VINA RESULT:      -7.8      3.336      6.637
REMARK  4 active torsions:
REMARK  status: ('A' for Active; 'I' for Inactive)
REMARK    1  A    between atoms: C_6  and  C_7 
REMARK    2  A    between atoms: C_7  and  C_8 
REMARK       I    between atoms: C_8  and  N_9 
REMARK    3  A    between atoms: N_9  and  C_10 
REMARK    4  A    between atoms: C_17  and  C_18 
REMARK       I    between atoms: C_18  and  N_19 
ROOT
HETATM    1  C   UNL     1     -43.189  54.974 -53.850  1.00  0.00     0.035 A 
HETATM    2  C   UNL     1     -42.605  54.896 -52.588  1.00  0.00     0.046 A 
HETATM    3  C   UNL     1     -41.589  53.947 -52.336  1.00  0.00     0.030 A 
HETATM    4  C   UNL     1     -41.161  53.131 -53.373  1.00  0.00     0.063 A 
HETATM    5  N   UNL     1     -40.187  52.337 -52.833  1.00  0.00    -0.277 N 
HETATM    6  H   UNL     1     -39.650  51.617 -53.303  1.00  0.00     0.189 HD
HETATM    7  N   UNL     1     -39.947  52.565 -51.530  1.00  0.00    -0.168 NA
HETATM    8  C   UNL     1     -40.809  53.554 -51.209  1.00  0.00     0.156 A 
HETATM    9  C   UNL     1     -41.689  53.205 -54.662  1.00  0.00     0.034 A 
HETATM   10  C   UNL     1     -42.708  54.144 -54.874  1.00  0.00     0.032 A 
ENDROOT
BRANCH   1  11
HETATM   11  N   UNL     1     -44.230  55.848 -54.199  1.00  0.00    -0.326 N 
HETATM   12  C   UNL     1     -44.344  56.964 -54.991  1.00  0.00     0.235 C 
HETATM   13  O   UNL     1     -45.470  57.454 -55.115  1.00  0.00    -0.272 OA
HETATM   14  H   UNL     1     -45.126  55.662 -53.762  1.00  0.00     0.169 HD
BRANCH  12  15
HETATM   15  C   UNL     1     -43.176  57.671 -55.641  1.00  0.00     0.068 A 
HETATM   16  C   UNL     1     -42.046  58.258 -54.796  1.00  0.00     0.026 A 
HETATM   17  C   UNL     1     -43.097  59.179 -55.303  1.00  0.00     0.026 A 
BRANCH  15  18
HETATM   18  C   UNL     1     -42.963  57.376 -57.139  1.00  0.00    -0.039 A 
HETATM   19  C   UNL     1     -43.569  56.296 -57.804  1.00  0.00     0.032 A 
HETATM   20  C   UNL     1     -43.338  56.061 -59.164  1.00  0.00     0.034 A 
HETATM   21  C   UNL     1     -42.490  56.887 -59.895  1.00  0.00     0.024 A 
HETATM   22 CL   UNL     1     -44.108  54.733 -59.944  1.00  0.00    -0.084 Cl
HETATM   23  C   UNL     1     -41.870  57.959 -59.262  1.00  0.00     0.002 A 
HETATM   24  C   UNL     1     -42.108  58.195 -57.906  1.00  0.00     0.008 A 
ENDBRANCH  15  18
ENDBRANCH  12  15
ENDBRANCH   1  11
BRANCH   8  25
HETATM   25  C   UNL     1     -40.886  54.096 -49.845  1.00  0.00     0.270 C 
HETATM   26  N   UNL     1     -39.671  54.340 -49.269  1.00  0.00    -0.365 N 
HETATM   27  H   UNL     1     -38.830  54.136 -49.798  1.00  0.00     0.159 HD
HETATM   28  H   UNL     1     -39.625  54.711 -48.332  1.00  0.00     0.159 HD
HETATM   29  O   UNL     1     -41.935  54.310 -49.247  1.00  0.00    -0.266 OA
ENDBRANCH   8  25
TORSDOF 4
ENDMDL
MODEL 8
REMARK VINA RESULT:      -7.7      1.794      2.292
REMARK  4 active torsions:
REMARK  status: ('A' for Active; 'I' for Inactive)
REMARK    1  A    between atoms: C_6  and  C_7 
REMARK    2  A    between atoms: C_7  and  C_8 
REMARK       I    between atoms: C_8  and  N_9 
REMARK    3  A    between atoms: N_9  and  C_10 
REMARK    4  A    between atoms: C_17  and  C_18 
REMARK       I    between atoms: C_18  and  N_19 
ROOT
HETATM    1  C   UNL     1     -43.479  56.330 -52.841  1.00  0.00     0.035 A 
HETATM    2  C   UNL     1     -43.288  57.708 -52.771  1.00  0.00     0.046 A 
HETATM    3  C   UNL     1     -42.763  58.406 -53.881  1.00  0.00     0.030 A 
HETATM    4  C   UNL     1     -42.485  57.705 -55.045  1.00  0.00     0.063 A 
HETATM    5  N   UNL     1     -42.002  58.635 -55.923  1.00  0.00    -0.277 N 
HETATM    6  H   UNL     1     -41.695  58.479 -56.877  1.00  0.00     0.189 HD
HETATM    7  N   UNL     1     -41.941  59.885 -55.429  1.00  0.00    -0.168 NA
HETATM    8  C   UNL     1     -42.404  59.757 -54.167  1.00  0.00     0.156 A 
HETATM    9  C   UNL     1     -42.700  56.333 -55.172  1.00  0.00     0.034 A 
HETATM   10  C   UNL     1     -43.204  55.666 -54.047  1.00  0.00     0.032 A 
ENDROOT
BRANCH   1  11
HETATM   11  N   UNL     1     -43.955  55.532 -51.790  1.00  0.00    -0.326 N 
HETATM   12  C   UNL     1     -43.390  54.912 -50.702  1.00  0.00     0.235 C 
HETATM   13  O   UNL     1     -44.152  54.324 -49.930  1.00  0.00    -0.272 OA
HETATM   14  H   UNL     1     -44.944  55.314 -51.815  1.00  0.00     0.169 HD
BRANCH  12  15
HETATM   15  C   UNL     1     -41.902  54.831 -50.443  1.00  0.00     0.068 A 
HETATM   16  C   UNL     1     -41.302  55.363 -49.142  1.00  0.00     0.026 A 
HETATM   17  C   UNL     1     -41.210  56.212 -50.359  1.00  0.00     0.026 A 
BRANCH  15  18
HETATM   18  C   UNL     1     -41.125  53.819 -51.308  1.00  0.00    -0.039 A 
HETATM   19  C   UNL     1     -40.991  53.940 -52.702  1.00  0.00     0.032 A 
HETATM   20  C   UNL     1     -40.285  52.991 -53.448  1.00  0.00     0.034 A 
HETATM   21  C   UNL     1     -39.701  51.890 -52.829  1.00  0.00     0.024 A 
HETATM   22 CL   UNL     1     -40.136  53.183 -55.153  1.00  0.00    -0.084 Cl
HETATM   23  C   UNL     1     -39.823  51.739 -51.452  1.00  0.00     0.002 A 
HETATM   24  C   UNL     1     -40.524  52.692 -50.709  1.00  0.00     0.008 A 
ENDBRANCH  15  18
ENDBRANCH  12  15
ENDBRANCH   1  11
BRANCH   8  25
HETATM   25  C   UNL     1     -42.484  60.907 -53.256  1.00  0.00     0.270 C 
HETATM   26  N   UNL     1     -42.720  62.100 -53.880  1.00  0.00    -0.365 N 
HETATM   27  H   UNL     1     -42.817  62.113 -54.889  1.00  0.00     0.159 HD
HETATM   28  H   UNL     1     -42.789  62.946 -53.335  1.00  0.00     0.159 HD
HETATM   29  O   UNL     1     -42.345  60.835 -52.040  1.00  0.00    -0.266 OA
ENDBRANCH   8  25
TORSDOF 4
ENDMDL
MODEL 9
REMARK VINA RESULT:      -7.7      3.089      4.534
REMARK  4 active torsions:
REMARK  status: ('A' for Active; 'I' for Inactive)
REMARK    1  A    between atoms: C_6  and  C_7 
REMARK    2  A    between atoms: C_7  and  C_8 
REMARK       I    between atoms: C_8  and  N_9 
REMARK    3  A    between atoms: N_9  and  C_10 
REMARK    4  A    between atoms: C_17  and  C_18 
REMARK       I    between atoms: C_18  and  N_19 
ROOT
HETATM    1  C   UNL     1     -43.264  56.952 -54.291  1.00  0.00     0.035 A 
HETATM    2  C   UNL     1     -44.176  57.595 -53.457  1.00  0.00     0.046 A 
HETATM    3  C   UNL     1     -43.789  58.752 -52.746  1.00  0.00     0.030 A 
HETATM    4  C   UNL     1     -42.508  59.254 -52.925  1.00  0.00     0.063 A 
HETATM    5  N   UNL     1     -42.434  60.358 -52.122  1.00  0.00    -0.277 N 
HETATM    6  H   UNL     1     -41.640  60.977 -51.999  1.00  0.00     0.189 HD
HETATM    7  N   UNL     1     -43.558  60.618 -51.432  1.00  0.00    -0.168 NA
HETATM    8  C   UNL     1     -44.402  59.631 -51.805  1.00  0.00     0.156 A 
HETATM    9  C   UNL     1     -41.578  58.665 -53.781  1.00  0.00     0.034 A 
HETATM   10  C   UNL     1     -41.987  57.508 -54.459  1.00  0.00     0.032 A 
ENDROOT
BRANCH   1  11
HETATM   11  N   UNL     1     -43.527  55.777 -55.012  1.00  0.00    -0.326 N 
HETATM   12  C   UNL     1     -43.022  54.500 -55.016  1.00  0.00     0.235 C 
HETATM   13  O   UNL     1     -43.558  53.684 -55.770  1.00  0.00    -0.272 OA
HETATM   14  H   UNL     1     -44.236  55.852 -55.732  1.00  0.00     0.169 HD
BRANCH  12  15
HETATM   15  C   UNL     1     -41.809  54.060 -54.227  1.00  0.00     0.068 A 
HETATM   16  C   UNL     1     -40.441  53.935 -54.897  1.00  0.00     0.026 A 
HETATM   17  C   UNL     1     -41.234  52.696 -54.680  1.00  0.00     0.026 A 
BRANCH  15  18
HETATM   18  C   UNL     1     -41.922  54.188 -52.695  1.00  0.00    -0.039 A 
HETATM   19  C   UNL     1     -40.805  54.255 -51.844  1.00  0.00     0.032 A 
HETATM   20  C   UNL     1     -40.956  54.361 -50.457  1.00  0.00     0.034 A 
HETATM   21  C   UNL     1     -42.221  54.392 -49.879  1.00  0.00     0.024 A 
HETATM   22 CL   UNL     1     -39.562  54.451 -49.451  1.00  0.00    -0.084 Cl
HETATM   23  C   UNL     1     -43.345  54.319 -50.695  1.00  0.00     0.002 A 
HETATM   24  C   UNL     1     -43.191  54.221 -52.080  1.00  0.00     0.008 A 
ENDBRANCH  15  18
ENDBRANCH  12  15
ENDBRANCH   1  11
BRANCH   8  25
HETATM   25  C   UNL     1     -45.761  59.532 -51.255  1.00  0.00     0.270 C 
HETATM   26  N   UNL     1     -46.677  60.336 -51.874  1.00  0.00    -0.365 N 
HETATM   27  H   UNL     1     -46.369  60.927 -52.638  1.00  0.00     0.159 HD
HETATM   28  H   UNL     1     -47.636  60.336 -51.563  1.00  0.00     0.159 HD
HETATM   29  O   UNL     1     -46.074  58.808 -50.316  1.00  0.00    -0.266 OA
ENDBRANCH   8  25
TORSDOF 4
ENDMDL
MODEL 10
REMARK VINA RESULT:      -7.7      3.341      6.345
REMARK  4 active torsions:
REMARK  status: ('A' for Active; 'I' for Inactive)
REMARK    1  A    between atoms: C_6  and  C_7 
REMARK    2  A    between atoms: C_7  and  C_8 
REMARK       I    between atoms: C_8  and  N_9 
REMARK    3  A    between atoms: N_9  and  C_10 
REMARK    4  A    between atoms: C_17  and  C_18 
REMARK       I    between atoms: C_18  and  N_19 
ROOT
HETATM    1  C   UNL     1     -43.363  55.171 -53.689  1.00  0.00     0.035 A 
HETATM    2  C   UNL     1     -42.863  55.231 -52.390  1.00  0.00     0.046 A 
HETATM    3  C   UNL     1     -41.823  54.363 -51.992  1.00  0.00     0.030 A 
HETATM    4  C   UNL     1     -41.287  53.486 -52.924  1.00  0.00     0.063 A 
HETATM    5  N   UNL     1     -40.317  52.792 -52.254  1.00  0.00    -0.277 N 
HETATM    6  H   UNL     1     -39.715  52.065 -52.624  1.00  0.00     0.189 HD
HETATM    7  N   UNL     1     -40.177  53.142 -50.963  1.00  0.00    -0.168 NA
HETATM    8  C   UNL     1     -41.104  54.108 -50.787  1.00  0.00     0.156 A 
HETATM    9  C   UNL     1     -41.729  53.422 -54.245  1.00  0.00     0.034 A 
HETATM   10  C   UNL     1     -42.774  54.284 -54.604  1.00  0.00     0.032 A 
ENDROOT
BRANCH   1  11
HETATM   11  N   UNL     1     -44.417  55.956 -54.180  1.00  0.00    -0.326 N 
HETATM   12  C   UNL     1     -44.515  57.140 -54.870  1.00  0.00     0.235 C 
HETATM   13  O   UNL     1     -45.646  57.510 -55.197  1.00  0.00    -0.272 OA
HETATM   14  H   UNL     1     -45.350  55.618 -53.973  1.00  0.00     0.169 HD
BRANCH  12  15
HETATM   15  C   UNL     1     -43.345  58.049 -55.174  1.00  0.00     0.068 A 
HETATM   16  C   UNL     1     -43.263  58.805 -56.500  1.00  0.00     0.026 A 
HETATM   17  C   UNL     1     -42.466  57.559 -56.349  1.00  0.00     0.026 A 
BRANCH  15  18
HETATM   18  C   UNL     1     -42.521  58.512 -53.956  1.00  0.00    -0.039 A 
HETATM   19  C   UNL     1     -43.069  59.249 -52.892  1.00  0.00     0.032 A 
HETATM   20  C   UNL     1     -42.279  59.657 -51.811  1.00  0.00     0.034 A 
HETATM   21  C   UNL     1     -40.924  59.351 -51.764  1.00  0.00     0.024 A 
HETATM   22 CL   UNL     1     -42.991  60.550 -50.523  1.00  0.00    -0.084 Cl
HETATM   23  C   UNL     1     -40.352  58.629 -52.807  1.00  0.00     0.002 A 
HETATM   24  C   UNL     1     -41.143  58.217 -53.881  1.00  0.00     0.008 A 
ENDBRANCH  15  18
ENDBRANCH  12  15
ENDBRANCH   1  11
BRANCH   8  25
HETATM   25  C   UNL     1     -41.299  54.758 -49.484  1.00  0.00     0.270 C 
HETATM   26  N   UNL     1     -41.385  56.121 -49.544  1.00  0.00    -0.365 N 
HETATM   27  H   UNL     1     -41.307  56.575 -50.447  1.00  0.00     0.159 HD
HETATM   28  H   UNL     1     -41.518  56.653 -48.697  1.00  0.00     0.159 HD
HETATM   29  O   UNL     1     -41.372  54.157 -48.417  1.00  0.00    -0.266 OA
ENDBRANCH   8  25
TORSDOF 4
ENDMDL
