MODEL 1
REMARK VINA RESULT:      -9.4      0.000      0.000
REMARK  8 active torsions:
REMARK  status: ('A' for Active; 'I' for Inactive)
REMARK    1  A    between atoms: C_4  and  C_5 
REMARK    2  A    between atoms: C_5  and  C_6 
REMARK    3  A    between atoms: C_5  and  C_31 
REMARK       I    between atoms: C_6  and  N_7 
REMARK    4  A    between atoms: N_7  and  C_8 
REMARK    5  A    between atoms: C_8  and  N_9 
REMARK    6  A    between atoms: N_9  and  C_10 
REMARK    7  A    between atoms: C_13  and  N_14 
REMARK       I    between atoms: N_17  and  C_18 
REMARK    8  A    between atoms: C_18  and  C_19 
ROOT
HETATM    1  N   UNL     1     -41.387  56.087 -49.378  1.00  0.00    -0.333 N 
HETATM    2  H   UNL     1     -41.866  56.333 -48.509  1.00  0.00     0.168 HD
ENDROOT
BRANCH   1   3
HETATM    3  C   UNL     1     -40.758  54.867 -49.305  1.00  0.00     0.178 C 
HETATM    4  S   UNL     1     -40.268  53.986 -47.976  1.00  0.00    -0.040 SA
BRANCH   3   5
HETATM    5  N   UNL     1     -40.436  54.318 -50.540  1.00  0.00    -0.303 N 
HETATM    6  C   UNL     1     -41.280  53.807 -51.522  1.00  0.00     0.236 C 
HETATM    7  O   UNL     1     -42.459  53.520 -51.294  1.00  0.00    -0.272 OA
HETATM    8  H   UNL     1     -39.459  54.433 -50.782  1.00  0.00     0.171 HD
BRANCH   6   9
HETATM    9  C   UNL     1     -40.654  53.632 -52.912  1.00  0.00     0.144 C 
BRANCH   9  10
HETATM   10  C   UNL     1     -41.441  54.221 -54.082  1.00  0.00    -0.041 A 
HETATM   11  C   UNL     1     -41.044  55.475 -54.588  1.00  0.00     0.008 A 
HETATM   12  C   UNL     1     -41.710  56.069 -55.661  1.00  0.00     0.001 A 
HETATM   13  C   UNL     1     -42.792  55.421 -56.247  1.00  0.00     0.000 A 
HETATM   14  C   UNL     1     -43.211  54.188 -55.755  1.00  0.00     0.001 A 
HETATM   15  C   UNL     1     -42.546  53.592 -54.678  1.00  0.00     0.008 A 
ENDBRANCH   9  10
BRANCH   9  16
HETATM   16  C   UNL     1     -40.193  52.183 -53.099  1.00  0.00    -0.041 A 
HETATM   17  C   UNL     1     -39.802  51.446 -51.967  1.00  0.00     0.008 A 
HETATM   18  C   UNL     1     -39.433  50.106 -52.082  1.00  0.00     0.001 A 
HETATM   19  C   UNL     1     -39.455  49.481 -53.325  1.00  0.00     0.000 A 
HETATM   20  C   UNL     1     -39.845  50.195 -54.455  1.00  0.00     0.001 A 
HETATM   21  C   UNL     1     -40.215  51.537 -54.347  1.00  0.00     0.008 A 
ENDBRANCH   9  16
ENDBRANCH   6   9
ENDBRANCH   3   5
ENDBRANCH   1   3
BRANCH   1  22
HETATM   22  C   UNL     1     -41.574  57.034 -50.406  1.00  0.00     0.034 A 
HETATM   23  C   UNL     1     -40.649  57.979 -50.836  1.00  0.00     0.031 A 
HETATM   24  C   UNL     1     -40.954  58.852 -51.897  1.00  0.00     0.026 A 
HETATM   25  C   UNL     1     -42.181  58.794 -52.565  1.00  0.00     0.010 A 
HETATM   26  C   UNL     1     -43.108  57.849 -52.113  1.00  0.00     0.026 A 
HETATM   27  C   UNL     1     -42.817  56.992 -51.048  1.00  0.00     0.031 A 
BRANCH  25  28
HETATM   28  N   UNL     1     -42.536  59.622 -53.635  1.00  0.00    -0.280 NA
HETATM   29  C   UNL     1     -41.611  59.514 -54.785  1.00  0.00     0.115 C 
HETATM   30  C   UNL     1     -42.257  60.125 -56.042  1.00  0.00     0.141 C 
HETATM   31  N   UNL     1     -42.813  61.469 -55.823  1.00  0.00    -0.345 N 
HETATM   32  C   UNL     1     -42.969  62.437 -56.824  1.00  0.00     0.260 C 
HETATM   33  C   UNL     1     -43.577  61.645 -54.579  1.00  0.00     0.141 C 
HETATM   34  O   UNL     1     -43.473  63.530 -56.566  1.00  0.00    -0.267 OA
HETATM   35  C   UNL     1     -42.892  61.025 -53.348  1.00  0.00     0.115 C 
BRANCH  32  36
HETATM   36  C   UNL     1     -42.528  62.103 -58.169  1.00  0.00     0.072 A 
HETATM   37  S   UNL     1     -43.648  61.405 -59.260  1.00  0.00    -0.097 SA
HETATM   38  C   UNL     1     -42.471  61.293 -60.497  1.00  0.00     0.050 A 
HETATM   39  C   UNL     1     -41.241  61.753 -60.084  1.00  0.00     0.009 A 
HETATM   40  C   UNL     1     -41.269  62.208 -58.733  1.00  0.00     0.025 A 
ENDBRANCH  32  36
ENDBRANCH  25  28
ENDBRANCH   1  22
TORSDOF 8
ENDMDL
MODEL 2
REMARK VINA RESULT:      -9.4      4.452      7.176
REMARK  8 active torsions:
REMARK  status: ('A' for Active; 'I' for Inactive)
REMARK    1  A    between atoms: C_4  and  C_5 
REMARK    2  A    between atoms: C_5  and  C_6 
REMARK    3  A    between atoms: C_5  and  C_31 
REMARK       I    between atoms: C_6  and  N_7 
REMARK    4  A    between atoms: N_7  and  C_8 
REMARK    5  A    between atoms: C_8  and  N_9 
REMARK    6  A    between atoms: N_9  and  C_10 
REMARK    7  A    between atoms: C_13  and  N_14 
REMARK       I    between atoms: N_17  and  C_18 
REMARK    8  A    between atoms: C_18  and  C_19 
ROOT
HETATM    1  N   UNL     1     -42.079  57.390 -55.538  1.00  0.00    -0.333 N 
HETATM    2  H   UNL     1     -41.371  57.808 -56.144  1.00  0.00     0.168 HD
ENDROOT
BRANCH   1   3
HETATM    3  C   UNL     1     -42.300  56.064 -55.825  1.00  0.00     0.178 C 
HETATM    4  S   UNL     1     -43.033  55.356 -57.146  1.00  0.00    -0.040 SA
BRANCH   3   5
HETATM    5  N   UNL     1     -41.896  55.190 -54.824  1.00  0.00    -0.303 N 
HETATM    6  C   UNL     1     -40.607  54.860 -54.414  1.00  0.00     0.236 C 
HETATM    7  O   UNL     1     -39.612  55.113 -55.098  1.00  0.00    -0.272 OA
HETATM    8  H   UNL     1     -42.664  54.859 -54.253  1.00  0.00     0.171 HD
BRANCH   6   9
HETATM    9  C   UNL     1     -40.502  54.169 -53.047  1.00  0.00     0.144 C 
BRANCH   9  10
HETATM   10  C   UNL     1     -40.238  52.664 -53.074  1.00  0.00    -0.041 A 
HETATM   11  C   UNL     1     -40.544  51.956 -54.254  1.00  0.00     0.008 A 
HETATM   12  C   UNL     1     -40.320  50.582 -54.353  1.00  0.00     0.001 A 
HETATM   13  C   UNL     1     -39.788  49.887 -53.272  1.00  0.00     0.000 A 
HETATM   14  C   UNL     1     -39.491  50.564 -52.093  1.00  0.00     0.001 A 
HETATM   15  C   UNL     1     -39.718  51.941 -51.989  1.00  0.00     0.008 A 
ENDBRANCH   9  10
BRANCH   9  16
HETATM   16  C   UNL     1     -41.660  54.612 -52.148  1.00  0.00    -0.041 A 
HETATM   17  C   UNL     1     -41.670  55.930 -51.657  1.00  0.00     0.008 A 
HETATM   18  C   UNL     1     -42.734  56.395 -50.885  1.00  0.00     0.001 A 
HETATM   19  C   UNL     1     -43.805  55.554 -50.596  1.00  0.00     0.000 A 
HETATM   20  C   UNL     1     -43.813  54.248 -51.078  1.00  0.00     0.001 A 
HETATM   21  C   UNL     1     -42.751  53.777 -51.851  1.00  0.00     0.008 A 
ENDBRANCH   9  16
ENDBRANCH   6   9
ENDBRANCH   3   5
ENDBRANCH   1   3
BRANCH   1  22
HETATM   22  C   UNL     1     -42.563  58.274 -54.551  1.00  0.00     0.034 A 
HETATM   23  C   UNL     1     -41.890  59.369 -54.023  1.00  0.00     0.031 A 
HETATM   24  C   UNL     1     -42.500  60.190 -53.056  1.00  0.00     0.026 A 
HETATM   25  C   UNL     1     -43.802  59.949 -52.605  1.00  0.00     0.010 A 
HETATM   26  C   UNL     1     -44.463  58.835 -53.135  1.00  0.00     0.026 A 
HETATM   27  C   UNL     1     -43.854  58.005 -54.081  1.00  0.00     0.031 A 
BRANCH  25  28
HETATM   28  N   UNL     1     -44.468  60.736 -51.661  1.00  0.00    -0.280 NA
HETATM   29  C   UNL     1     -43.973  60.530 -50.281  1.00  0.00     0.115 C 
HETATM   30  C   UNL     1     -44.449  61.678 -49.371  1.00  0.00     0.141 C 
HETATM   31  N   UNL     1     -45.891  61.949 -49.474  1.00  0.00    -0.345 N 
HETATM   32  C   UNL     1     -46.667  62.521 -48.457  1.00  0.00     0.260 C 
HETATM   33  C   UNL     1     -46.438  61.965 -50.840  1.00  0.00     0.141 C 
HETATM   34  O   UNL     1     -47.864  62.745 -48.632  1.00  0.00    -0.267 OA
HETATM   35  C   UNL     1     -45.942  60.797 -51.710  1.00  0.00     0.115 C 
BRANCH  32  36
HETATM   36  C   UNL     1     -46.009  62.845 -47.201  1.00  0.00     0.072 A 
HETATM   37  S   UNL     1     -45.463  64.447 -46.940  1.00  0.00    -0.097 SA
HETATM   38  C   UNL     1     -44.839  64.051 -45.397  1.00  0.00     0.050 A 
HETATM   39  C   UNL     1     -45.017  62.721 -45.092  1.00  0.00     0.009 A 
HETATM   40  C   UNL     1     -45.680  62.018 -46.141  1.00  0.00     0.025 A 
ENDBRANCH  32  36
ENDBRANCH  25  28
ENDBRANCH   1  22
TORSDOF 8
ENDMDL
MODEL 3
REMARK VINA RESULT:      -9.1      1.944      2.311
REMARK  8 active torsions:
REMARK  status: ('A' for Active; 'I' for Inactive)
REMARK    1  A    between atoms: C_4  and  C_5 
REMARK    2  A    between atoms: C_5  and  C_6 
REMARK    3  A    between atoms: C_5  and  C_31 
REMARK       I    between atoms: C_6  and  N_7 
REMARK    4  A    between atoms: N_7  and  C_8 
REMARK    5  A    between atoms: C_8  and  N_9 
REMARK    6  A    between atoms: N_9  and  C_10 
REMARK    7  A    between atoms: C_13  and  N_14 
REMARK       I    between atoms: N_17  and  C_18 
REMARK    8  A    between atoms: C_18  and  C_19 
ROOT
HETATM    1  N   UNL     1     -41.316  56.273 -49.491  1.00  0.00    -0.333 N 
HETATM    2  H   UNL     1     -41.552  56.692 -48.590  1.00  0.00     0.168 HD
ENDROOT
BRANCH   1   3
HETATM    3  C   UNL     1     -40.808  55.002 -49.362  1.00  0.00     0.178 C 
HETATM    4  S   UNL     1     -40.494  54.101 -47.993  1.00  0.00    -0.040 SA
BRANCH   3   5
HETATM    5  N   UNL     1     -40.452  54.406 -50.566  1.00  0.00    -0.303 N 
HETATM    6  C   UNL     1     -41.260  53.770 -51.504  1.00  0.00     0.236 C 
HETATM    7  O   UNL     1     -42.410  53.404 -51.244  1.00  0.00    -0.272 OA
HETATM    8  H   UNL     1     -39.490  54.584 -50.827  1.00  0.00     0.171 HD
BRANCH   6   9
HETATM    9  C   UNL     1     -40.633  53.562 -52.889  1.00  0.00     0.144 C 
BRANCH   9  10
HETATM   10  C   UNL     1     -41.378  54.194 -54.065  1.00  0.00    -0.041 A 
HETATM   11  C   UNL     1     -40.940  55.449 -54.533  1.00  0.00     0.008 A 
HETATM   12  C   UNL     1     -41.566  56.081 -55.609  1.00  0.00     0.001 A 
HETATM   13  C   UNL     1     -42.647  55.471 -56.235  1.00  0.00     0.000 A 
HETATM   14  C   UNL     1     -43.105  54.238 -55.781  1.00  0.00     0.001 A 
HETATM   15  C   UNL     1     -42.481  53.604 -54.702  1.00  0.00     0.008 A 
ENDBRANCH   9  10
BRANCH   9  16
HETATM   16  C   UNL     1     -40.252  52.090 -53.074  1.00  0.00    -0.041 A 
HETATM   17  C   UNL     1     -40.260  51.547 -54.372  1.00  0.00     0.008 A 
HETATM   18  C   UNL     1     -39.862  50.229 -54.595  1.00  0.00     0.001 A 
HETATM   19  C   UNL     1     -39.445  49.437 -53.529  1.00  0.00     0.000 A 
HETATM   20  C   UNL     1     -39.427  49.961 -52.239  1.00  0.00     0.001 A 
HETATM   21  C   UNL     1     -39.824  51.279 -52.010  1.00  0.00     0.008 A 
ENDBRANCH   9  16
ENDBRANCH   6   9
ENDBRANCH   3   5
ENDBRANCH   1   3
BRANCH   1  22
HETATM   22  C   UNL     1     -41.644  57.091 -50.591  1.00  0.00     0.034 A 
HETATM   23  C   UNL     1     -40.797  57.983 -51.239  1.00  0.00     0.031 A 
HETATM   24  C   UNL     1     -41.245  58.723 -52.349  1.00  0.00     0.026 A 
HETATM   25  C   UNL     1     -42.543  58.580 -52.850  1.00  0.00     0.010 A 
HETATM   26  C   UNL     1     -43.389  57.689 -52.181  1.00  0.00     0.026 A 
HETATM   27  C   UNL     1     -42.955  56.966 -51.066  1.00  0.00     0.031 A 
BRANCH  25  28
HETATM   28  N   UNL     1     -43.042  59.274 -53.957  1.00  0.00    -0.280 NA
HETATM   29  C   UNL     1     -44.120  58.545 -54.662  1.00  0.00     0.115 C 
HETATM   30  C   UNL     1     -44.881  59.502 -55.598  1.00  0.00     0.141 C 
HETATM   31  N   UNL     1     -44.000  60.294 -56.471  1.00  0.00    -0.345 N 
HETATM   32  C   UNL     1     -44.376  60.816 -57.716  1.00  0.00     0.260 C 
HETATM   33  C   UNL     1     -42.812  60.867 -55.821  1.00  0.00     0.141 C 
HETATM   34  O   UNL     1     -43.589  61.497 -58.374  1.00  0.00    -0.267 OA
HETATM   35  C   UNL     1     -42.079  59.875 -54.901  1.00  0.00     0.115 C 
BRANCH  32  36
HETATM   36  C   UNL     1     -45.720  60.536 -58.194  1.00  0.00     0.072 A 
HETATM   37  S   UNL     1     -46.983  61.627 -57.809  1.00  0.00    -0.097 SA
HETATM   38  C   UNL     1     -48.144  60.674 -58.628  1.00  0.00     0.050 A 
HETATM   39  C   UNL     1     -47.591  59.533 -59.164  1.00  0.00     0.009 A 
HETATM   40  C   UNL     1     -46.193  59.444 -58.900  1.00  0.00     0.025 A 
ENDBRANCH  32  36
ENDBRANCH  25  28
ENDBRANCH   1  22
TORSDOF 8
ENDMDL
MODEL 4
REMARK VINA RESULT:      -9.0      4.026      6.636
REMARK  8 active torsions:
REMARK  status: ('A' for Active; 'I' for Inactive)
REMARK    1  A    between atoms: C_4  and  C_5 
REMARK    2  A    between atoms: C_5  and  C_6 
REMARK    3  A    between atoms: C_5  and  C_31 
REMARK       I    between atoms: C_6  and  N_7 
REMARK    4  A    between atoms: N_7  and  C_8 
REMARK    5  A    between atoms: C_8  and  N_9 
REMARK    6  A    between atoms: N_9  and  C_10 
REMARK    7  A    between atoms: C_13  and  N_14 
REMARK       I    between atoms: N_17  and  C_18 
REMARK    8  A    between atoms: C_18  and  C_19 
ROOT
HETATM    1  N   UNL     1     -42.120  57.138 -56.535  1.00  0.00    -0.333 N 
HETATM    2  H   UNL     1     -41.268  57.430 -57.018  1.00  0.00     0.168 HD
ENDROOT
BRANCH   1   3
HETATM    3  C   UNL     1     -42.580  55.918 -56.969  1.00  0.00     0.178 C 
HETATM    4  S   UNL     1     -43.168  55.458 -58.461  1.00  0.00    -0.040 SA
BRANCH   3   5
HETATM    5  N   UNL     1     -42.606  54.936 -55.987  1.00  0.00    -0.303 N 
HETATM    6  C   UNL     1     -41.558  54.433 -55.220  1.00  0.00     0.236 C 
HETATM    7  O   UNL     1     -40.375  54.616 -55.519  1.00  0.00    -0.272 OA
HETATM    8  H   UNL     1     -43.544  54.658 -55.729  1.00  0.00     0.171 HD
BRANCH   6   9
HETATM    9  C   UNL     1     -41.970  53.643 -53.970  1.00  0.00     0.144 C 
BRANCH   9  10
HETATM   10  C   UNL     1     -42.258  54.470 -52.717  1.00  0.00    -0.041 A 
HETATM   11  C   UNL     1     -43.299  54.048 -51.866  1.00  0.00     0.008 A 
HETATM   12  C   UNL     1     -43.611  54.749 -50.700  1.00  0.00     0.001 A 
HETATM   13  C   UNL     1     -42.890  55.890 -50.365  1.00  0.00     0.000 A 
HETATM   14  C   UNL     1     -41.867  56.333 -51.198  1.00  0.00     0.001 A 
HETATM   15  C   UNL     1     -41.554  55.633 -52.369  1.00  0.00     0.008 A 
ENDBRANCH   9  10
BRANCH   9  16
HETATM   16  C   UNL     1     -41.021  52.458 -53.765  1.00  0.00    -0.041 A 
HETATM   17  C   UNL     1     -40.153  52.470 -52.658  1.00  0.00     0.008 A 
HETATM   18  C   UNL     1     -39.314  51.387 -52.398  1.00  0.00     0.001 A 
HETATM   19  C   UNL     1     -39.334  50.274 -53.234  1.00  0.00     0.000 A 
HETATM   20  C   UNL     1     -40.191  50.243 -54.331  1.00  0.00     0.001 A 
HETATM   21  C   UNL     1     -41.033  51.325 -54.596  1.00  0.00     0.008 A 
ENDBRANCH   9  16
ENDBRANCH   6   9
ENDBRANCH   3   5
ENDBRANCH   1   3
BRANCH   1  22
HETATM   22  C   UNL     1     -42.525  58.036 -55.526  1.00  0.00     0.034 A 
HETATM   23  C   UNL     1     -42.025  59.315 -55.309  1.00  0.00     0.031 A 
HETATM   24  C   UNL     1     -42.539  60.123 -54.277  1.00  0.00     0.026 A 
HETATM   25  C   UNL     1     -43.575  59.682 -53.448  1.00  0.00     0.010 A 
HETATM   26  C   UNL     1     -44.059  58.387 -53.668  1.00  0.00     0.026 A 
HETATM   27  C   UNL     1     -43.539  57.574 -54.679  1.00  0.00     0.031 A 
BRANCH  25  28
HETATM   28  N   UNL     1     -44.138  60.442 -52.418  1.00  0.00    -0.280 NA
HETATM   29  C   UNL     1     -44.079  59.769 -51.101  1.00  0.00     0.115 C 
HETATM   30  C   UNL     1     -44.339  60.787 -49.975  1.00  0.00     0.141 C 
HETATM   31  N   UNL     1     -45.539  61.610 -50.193  1.00  0.00    -0.345 N 
HETATM   32  C   UNL     1     -46.291  62.204 -49.171  1.00  0.00     0.260 C 
HETATM   33  C   UNL     1     -45.713  62.129 -51.558  1.00  0.00     0.141 C 
HETATM   34  O   UNL     1     -47.267  62.906 -49.437  1.00  0.00    -0.267 OA
HETATM   35  C   UNL     1     -45.450  61.077 -52.650  1.00  0.00     0.115 C 
BRANCH  32  36
HETATM   36  C   UNL     1     -45.876  61.971 -47.797  1.00  0.00     0.072 A 
HETATM   37  S   UNL     1     -45.256  63.280 -46.884  1.00  0.00    -0.097 SA
HETATM   38  C   UNL     1     -44.994  62.287 -45.516  1.00  0.00     0.050 A 
HETATM   39  C   UNL     1     -45.347  60.977 -45.752  1.00  0.00     0.009 A 
HETATM   40  C   UNL     1     -45.843  60.790 -47.076  1.00  0.00     0.025 A 
ENDBRANCH  32  36
ENDBRANCH  25  28
ENDBRANCH   1  22
TORSDOF 8
ENDMDL
MODEL 5
REMARK VINA RESULT:      -8.8      4.529      7.144
REMARK  8 active torsions:
REMARK  status: ('A' for Active; 'I' for Inactive)
REMARK    1  A    between atoms: C_4  and  C_5 
REMARK    2  A    between atoms: C_5  and  C_6 
REMARK    3  A    between atoms: C_5  and  C_31 
REMARK       I    between atoms: C_6  and  N_7 
REMARK    4  A    between atoms: N_7  and  C_8 
REMARK    5  A    between atoms: C_8  and  N_9 
REMARK    6  A    between atoms: N_9  and  C_10 
REMARK    7  A    between atoms: C_13  and  N_14 
REMARK       I    between atoms: N_17  and  C_18 
REMARK    8  A    between atoms: C_18  and  C_19 
ROOT
HETATM    1  N   UNL     1     -44.280  56.145 -54.668  1.00  0.00    -0.333 N 
HETATM    2  H   UNL     1     -45.081  55.522 -54.787  1.00  0.00     0.168 HD
ENDROOT
BRANCH   1   3
HETATM    3  C   UNL     1     -43.138  55.649 -55.250  1.00  0.00     0.178 C 
HETATM    4  S   UNL     1     -42.775  55.388 -56.858  1.00  0.00    -0.040 SA
BRANCH   3   5
HETATM    5  N   UNL     1     -42.161  55.255 -54.344  1.00  0.00    -0.303 N 
HETATM    6  C   UNL     1     -42.256  54.353 -53.287  1.00  0.00     0.236 C 
HETATM    7  O   UNL     1     -43.341  53.975 -52.839  1.00  0.00    -0.272 OA
HETATM    8  H   UNL     1     -41.238  55.591 -54.586  1.00  0.00     0.171 HD
BRANCH   6   9
HETATM    9  C   UNL     1     -40.920  53.850 -52.722  1.00  0.00     0.144 C 
BRANCH   9  10
HETATM   10  C   UNL     1     -40.507  52.438 -53.134  1.00  0.00    -0.041 A 
HETATM   11  C   UNL     1     -39.594  51.745 -52.312  1.00  0.00     0.008 A 
HETATM   12  C   UNL     1     -39.180  50.449 -52.621  1.00  0.00     0.001 A 
HETATM   13  C   UNL     1     -39.667  49.820 -53.761  1.00  0.00     0.000 A 
HETATM   14  C   UNL     1     -40.558  50.490 -54.595  1.00  0.00     0.001 A 
HETATM   15  C   UNL     1     -40.973  51.790 -54.289  1.00  0.00     0.008 A 
ENDBRANCH   9  10
BRANCH   9  16
HETATM   16  C   UNL     1     -40.847  54.139 -51.220  1.00  0.00    -0.041 A 
HETATM   17  C   UNL     1     -41.114  55.444 -50.768  1.00  0.00     0.008 A 
HETATM   18  C   UNL     1     -41.118  55.740 -49.405  1.00  0.00     0.001 A 
HETATM   19  C   UNL     1     -40.863  54.737 -48.474  1.00  0.00     0.000 A 
HETATM   20  C   UNL     1     -40.601  53.439 -48.904  1.00  0.00     0.001 A 
HETATM   21  C   UNL     1     -40.596  53.137 -50.267  1.00  0.00     0.008 A 
ENDBRANCH   9  16
ENDBRANCH   6   9
ENDBRANCH   3   5
ENDBRANCH   1   3
BRANCH   1  22
HETATM   22  C   UNL     1     -44.601  57.349 -54.009  1.00  0.00     0.034 A 
HETATM   23  C   UNL     1     -45.038  58.526 -54.606  1.00  0.00     0.031 A 
HETATM   24  C   UNL     1     -45.352  59.655 -53.826  1.00  0.00     0.026 A 
HETATM   25  C   UNL     1     -45.254  59.632 -52.431  1.00  0.00     0.010 A 
HETATM   26  C   UNL     1     -44.800  58.446 -51.844  1.00  0.00     0.026 A 
HETATM   27  C   UNL     1     -44.469  57.329 -52.616  1.00  0.00     0.031 A 
BRANCH  25  28
HETATM   28  N   UNL     1     -45.566  60.714 -51.602  1.00  0.00    -0.280 NA
HETATM   29  C   UNL     1     -45.302  60.443 -50.171  1.00  0.00     0.115 C 
HETATM   30  C   UNL     1     -45.283  61.763 -49.377  1.00  0.00     0.141 C 
HETATM   31  N   UNL     1     -46.450  62.622 -49.637  1.00  0.00    -0.345 N 
HETATM   32  C   UNL     1     -46.959  63.564 -48.734  1.00  0.00     0.260 C 
HETATM   33  C   UNL     1     -46.845  62.745 -51.049  1.00  0.00     0.141 C 
HETATM   34  O   UNL     1     -47.922  64.267 -49.039  1.00  0.00    -0.267 OA
HETATM   35  C   UNL     1     -46.856  61.402 -51.800  1.00  0.00     0.115 C 
BRANCH  32  36
HETATM   36  C   UNL     1     -46.309  63.687 -47.439  1.00  0.00     0.072 A 
HETATM   37  S   UNL     1     -46.853  62.710 -46.142  1.00  0.00    -0.097 SA
HETATM   38  C   UNL     1     -45.716  63.397 -45.064  1.00  0.00     0.050 A 
HETATM   39  C   UNL     1     -44.952  64.371 -45.668  1.00  0.00     0.009 A 
HETATM   40  C   UNL     1     -45.305  64.550 -47.038  1.00  0.00     0.025 A 
ENDBRANCH  32  36
ENDBRANCH  25  28
ENDBRANCH   1  22
TORSDOF 8
ENDMDL
MODEL 6
REMARK VINA RESULT:      -8.3      4.356      7.590
REMARK  8 active torsions:
REMARK  status: ('A' for Active; 'I' for Inactive)
REMARK    1  A    between atoms: C_4  and  C_5 
REMARK    2  A    between atoms: C_5  and  C_6 
REMARK    3  A    between atoms: C_5  and  C_31 
REMARK       I    between atoms: C_6  and  N_7 
REMARK    4  A    between atoms: N_7  and  C_8 
REMARK    5  A    between atoms: C_8  and  N_9 
REMARK    6  A    between atoms: N_9  and  C_10 
REMARK    7  A    between atoms: C_13  and  N_14 
REMARK       I    between atoms: N_17  and  C_18 
REMARK    8  A    between atoms: C_18  and  C_19 
ROOT
HETATM    1  N   UNL     1     -44.644  57.585 -56.748  1.00  0.00    -0.333 N 
HETATM    2  H   UNL     1     -45.371  57.464 -57.456  1.00  0.00     0.168 HD
ENDROOT
BRANCH   1   3
HETATM    3  C   UNL     1     -43.543  56.796 -56.986  1.00  0.00     0.178 C 
HETATM    4  S   UNL     1     -43.127  55.907 -58.334  1.00  0.00    -0.040 SA
BRANCH   3   5
HETATM    5  N   UNL     1     -42.678  56.685 -55.904  1.00  0.00    -0.303 N 
HETATM    6  C   UNL     1     -42.512  55.626 -55.017  1.00  0.00     0.236 C 
HETATM    7  O   UNL     1     -43.340  54.716 -54.913  1.00  0.00    -0.272 OA
HETATM    8  H   UNL     1     -42.004  57.440 -55.857  1.00  0.00     0.171 HD
BRANCH   6   9
HETATM    9  C   UNL     1     -41.225  55.655 -54.180  1.00  0.00     0.144 C 
BRANCH   9  10
HETATM   10  C   UNL     1     -40.733  54.305 -53.659  1.00  0.00    -0.041 A 
HETATM   11  C   UNL     1     -40.346  53.329 -54.599  1.00  0.00     0.008 A 
HETATM   12  C   UNL     1     -39.878  52.078 -54.195  1.00  0.00     0.001 A 
HETATM   13  C   UNL     1     -39.791  51.776 -52.840  1.00  0.00     0.000 A 
HETATM   14  C   UNL     1     -40.180  52.720 -51.894  1.00  0.00     0.001 A 
HETATM   15  C   UNL     1     -40.653  53.974 -52.297  1.00  0.00     0.008 A 
ENDBRANCH   9  10
BRANCH   9  16
HETATM   16  C   UNL     1     -41.309  56.768 -53.132  1.00  0.00    -0.041 A 
HETATM   17  C   UNL     1     -40.434  57.864 -53.238  1.00  0.00     0.008 A 
HETATM   18  C   UNL     1     -40.515  58.930 -52.341  1.00  0.00     0.001 A 
HETATM   19  C   UNL     1     -41.472  58.919 -51.331  1.00  0.00     0.000 A 
HETATM   20  C   UNL     1     -42.348  57.843 -51.215  1.00  0.00     0.001 A 
HETATM   21  C   UNL     1     -42.272  56.774 -52.109  1.00  0.00     0.008 A 
ENDBRANCH   9  16
ENDBRANCH   6   9
ENDBRANCH   3   5
ENDBRANCH   1   3
BRANCH   1  22
HETATM   22  C   UNL     1     -44.956  58.568 -55.787  1.00  0.00     0.034 A 
HETATM   23  C   UNL     1     -45.341  59.879 -56.042  1.00  0.00     0.031 A 
HETATM   24  C   UNL     1     -45.652  60.756 -54.986  1.00  0.00     0.026 A 
HETATM   25  C   UNL     1     -45.603  60.342 -53.651  1.00  0.00     0.010 A 
HETATM   26  C   UNL     1     -45.200  59.024 -53.408  1.00  0.00     0.026 A 
HETATM   27  C   UNL     1     -44.872  58.156 -54.452  1.00  0.00     0.031 A 
BRANCH  25  28
HETATM   28  N   UNL     1     -45.916  61.159 -52.560  1.00  0.00    -0.280 NA
HETATM   29  C   UNL     1     -45.421  60.623 -51.272  1.00  0.00     0.115 C 
HETATM   30  C   UNL     1     -45.441  61.726 -50.198  1.00  0.00     0.141 C 
HETATM   31  N   UNL     1     -46.723  62.443 -50.115  1.00  0.00    -0.345 N 
HETATM   32  C   UNL     1     -47.203  63.082 -48.964  1.00  0.00     0.260 C 
HETATM   33  C   UNL     1     -47.326  62.814 -51.404  1.00  0.00     0.141 C 
HETATM   34  O   UNL     1     -48.274  63.689 -48.985  1.00  0.00    -0.267 OA
HETATM   35  C   UNL     1     -47.291  61.681 -52.445  1.00  0.00     0.115 C 
BRANCH  32  36
HETATM   36  C   UNL     1     -46.393  63.011 -47.758  1.00  0.00     0.072 A 
HETATM   37  S   UNL     1     -46.585  61.673 -46.708  1.00  0.00    -0.097 SA
HETATM   38  C   UNL     1     -45.417  62.280 -45.616  1.00  0.00     0.050 A 
HETATM   39  C   UNL     1     -44.906  63.491 -46.025  1.00  0.00     0.009 A 
HETATM   40  C   UNL     1     -45.481  63.923 -47.256  1.00  0.00     0.025 A 
ENDBRANCH  32  36
ENDBRANCH  25  28
ENDBRANCH   1  22
TORSDOF 8
ENDMDL
MODEL 7
REMARK VINA RESULT:      -8.1      6.068      9.301
REMARK  8 active torsions:
REMARK  status: ('A' for Active; 'I' for Inactive)
REMARK    1  A    between atoms: C_4  and  C_5 
REMARK    2  A    between atoms: C_5  and  C_6 
REMARK    3  A    between atoms: C_5  and  C_31 
REMARK       I    between atoms: C_6  and  N_7 
REMARK    4  A    between atoms: N_7  and  C_8 
REMARK    5  A    between atoms: C_8  and  N_9 
REMARK    6  A    between atoms: N_9  and  C_10 
REMARK    7  A    between atoms: C_13  and  N_14 
REMARK       I    between atoms: N_17  and  C_18 
REMARK    8  A    between atoms: C_18  and  C_19 
ROOT
HETATM    1  N   UNL     1     -45.828  59.572 -53.348  1.00  0.00    -0.333 N 
HETATM    2  H   UNL     1     -46.723  59.147 -53.598  1.00  0.00     0.168 HD
ENDROOT
BRANCH   1   3
HETATM    3  C   UNL     1     -44.913  59.513 -54.372  1.00  0.00     0.178 C 
HETATM    4  S   UNL     1     -45.101  59.815 -56.002  1.00  0.00    -0.040 SA
BRANCH   3   5
HETATM    5  N   UNL     1     -43.651  59.079 -53.985  1.00  0.00    -0.303 N 
HETATM    6  C   UNL     1     -43.247  57.812 -53.572  1.00  0.00     0.236 C 
HETATM    7  O   UNL     1     -44.052  56.943 -53.227  1.00  0.00    -0.272 OA
HETATM    8  H   UNL     1     -42.927  59.765 -54.156  1.00  0.00     0.171 HD
BRANCH   6   9
HETATM    9  C   UNL     1     -41.732  57.562 -53.584  1.00  0.00     0.144 C 
BRANCH   9  10
HETATM   10  C   UNL     1     -41.294  56.104 -53.719  1.00  0.00    -0.041 A 
HETATM   11  C   UNL     1     -41.242  55.314 -52.553  1.00  0.00     0.008 A 
HETATM   12  C   UNL     1     -40.860  53.972 -52.603  1.00  0.00     0.001 A 
HETATM   13  C   UNL     1     -40.519  53.395 -53.821  1.00  0.00     0.000 A 
HETATM   14  C   UNL     1     -40.550  54.160 -54.983  1.00  0.00     0.001 A 
HETATM   15  C   UNL     1     -40.930  55.505 -54.935  1.00  0.00     0.008 A 
ENDBRANCH   9  10
BRANCH   9  16
HETATM   16  C   UNL     1     -41.066  58.340 -52.446  1.00  0.00    -0.041 A 
HETATM   17  C   UNL     1     -41.822  58.643 -51.299  1.00  0.00     0.008 A 
HETATM   18  C   UNL     1     -41.240  59.297 -50.214  1.00  0.00     0.001 A 
HETATM   19  C   UNL     1     -39.895  59.652 -50.253  1.00  0.00     0.000 A 
HETATM   20  C   UNL     1     -39.130  59.355 -51.379  1.00  0.00     0.001 A 
HETATM   21  C   UNL     1     -39.708  58.701 -52.469  1.00  0.00     0.008 A 
ENDBRANCH   9  16
ENDBRANCH   6   9
ENDBRANCH   3   5
ENDBRANCH   1   3
BRANCH   1  22
HETATM   22  C   UNL     1     -45.823  60.150 -52.062  1.00  0.00     0.034 A 
HETATM   23  C   UNL     1     -45.437  59.528 -50.879  1.00  0.00     0.031 A 
HETATM   24  C   UNL     1     -45.454  60.230 -49.659  1.00  0.00     0.026 A 
HETATM   25  C   UNL     1     -45.841  61.573 -49.591  1.00  0.00     0.010 A 
HETATM   26  C   UNL     1     -46.240  62.181 -50.786  1.00  0.00     0.026 A 
HETATM   27  C   UNL     1     -46.243  61.483 -51.997  1.00  0.00     0.031 A 
BRANCH  25  28
HETATM   28  N   UNL     1     -45.864  62.327 -48.414  1.00  0.00    -0.280 NA
HETATM   29  C   UNL     1     -45.203  61.649 -47.277  1.00  0.00     0.115 C 
HETATM   30  C   UNL     1     -44.913  62.662 -46.153  1.00  0.00     0.141 C 
HETATM   31  N   UNL     1     -46.077  63.484 -45.788  1.00  0.00    -0.345 N 
HETATM   32  C   UNL     1     -46.272  64.072 -44.532  1.00  0.00     0.260 C 
HETATM   33  C   UNL     1     -46.862  64.008 -46.916  1.00  0.00     0.141 C 
HETATM   34  O   UNL     1     -47.260  64.773 -44.314  1.00  0.00    -0.267 OA
HETATM   35  C   UNL     1     -47.134  62.961 -48.011  1.00  0.00     0.115 C 
BRANCH  32  36
HETATM   36  C   UNL     1     -45.269  63.834 -43.506  1.00  0.00     0.072 A 
HETATM   37  S   UNL     1     -45.434  64.610 -41.988  1.00  0.00    -0.097 SA
HETATM   38  C   UNL     1     -43.988  63.910 -41.400  1.00  0.00     0.050 A 
HETATM   39  C   UNL     1     -43.373  63.120 -42.346  1.00  0.00     0.009 A 
HETATM   40  C   UNL     1     -44.105  63.088 -43.570  1.00  0.00     0.025 A 
ENDBRANCH  32  36
ENDBRANCH  25  28
ENDBRANCH   1  22
TORSDOF 8
ENDMDL
MODEL 8
REMARK VINA RESULT:      -8.0      3.856      9.478
REMARK  8 active torsions:
REMARK  status: ('A' for Active; 'I' for Inactive)
REMARK    1  A    between atoms: C_4  and  C_5 
REMARK    2  A    between atoms: C_5  and  C_6 
REMARK    3  A    between atoms: C_5  and  C_31 
REMARK       I    between atoms: C_6  and  N_7 
REMARK    4  A    between atoms: N_7  and  C_8 
REMARK    5  A    between atoms: C_8  and  N_9 
REMARK    6  A    between atoms: N_9  and  C_10 
REMARK    7  A    between atoms: C_13  and  N_14 
REMARK       I    between atoms: N_17  and  C_18 
REMARK    8  A    between atoms: C_18  and  C_19 
ROOT
HETATM    1  N   UNL     1     -45.927  60.139 -55.210  1.00  0.00    -0.333 N 
HETATM    2  H   UNL     1     -46.592  60.470 -54.509  1.00  0.00     0.168 HD
ENDROOT
BRANCH   1   3
HETATM    3  C   UNL     1     -45.956  60.892 -56.359  1.00  0.00     0.178 C 
HETATM    4  S   UNL     1     -46.372  62.491 -56.589  1.00  0.00    -0.040 SA
BRANCH   3   5
HETATM    5  N   UNL     1     -45.640  60.183 -57.513  1.00  0.00    -0.303 N 
HETATM    6  C   UNL     1     -46.422  59.283 -58.232  1.00  0.00     0.236 C 
HETATM    7  O   UNL     1     -47.445  58.777 -57.763  1.00  0.00    -0.272 OA
HETATM    8  H   UNL     1     -44.766  60.476 -57.930  1.00  0.00     0.171 HD
BRANCH   6   9
HETATM    9  C   UNL     1     -45.935  58.969 -59.653  1.00  0.00     0.144 C 
BRANCH   9  10
HETATM   10  C   UNL     1     -47.000  58.482 -60.635  1.00  0.00    -0.041 A 
HETATM   11  C   UNL     1     -47.093  57.097 -60.883  1.00  0.00     0.008 A 
HETATM   12  C   UNL     1     -48.048  56.580 -61.760  1.00  0.00     0.001 A 
HETATM   13  C   UNL     1     -48.927  57.439 -62.410  1.00  0.00     0.000 A 
HETATM   14  C   UNL     1     -48.845  58.811 -62.191  1.00  0.00     0.001 A 
HETATM   15  C   UNL     1     -47.886  59.332 -61.315  1.00  0.00     0.008 A 
ENDBRANCH   9  10
BRANCH   9  16
HETATM   16  C   UNL     1     -44.664  58.116 -59.594  1.00  0.00    -0.041 A 
HETATM   17  C   UNL     1     -44.649  56.984 -58.760  1.00  0.00     0.008 A 
HETATM   18  C   UNL     1     -43.536  56.144 -58.720  1.00  0.00     0.001 A 
HETATM   19  C   UNL     1     -42.426  56.419 -59.513  1.00  0.00     0.000 A 
HETATM   20  C   UNL     1     -42.427  57.534 -60.348  1.00  0.00     0.001 A 
HETATM   21  C   UNL     1     -43.538  58.378 -60.392  1.00  0.00     0.008 A 
ENDBRANCH   9  16
ENDBRANCH   6   9
ENDBRANCH   3   5
ENDBRANCH   1   3
BRANCH   1  22
HETATM   22  C   UNL     1     -45.136  59.060 -54.764  1.00  0.00     0.034 A 
HETATM   23  C   UNL     1     -45.324  57.717 -55.069  1.00  0.00     0.031 A 
HETATM   24  C   UNL     1     -44.441  56.737 -54.578  1.00  0.00     0.026 A 
HETATM   25  C   UNL     1     -43.339  57.074 -53.785  1.00  0.00     0.010 A 
HETATM   26  C   UNL     1     -43.169  58.428 -53.475  1.00  0.00     0.026 A 
HETATM   27  C   UNL     1     -44.054  59.402 -53.944  1.00  0.00     0.031 A 
BRANCH  25  28
HETATM   28  N   UNL     1     -42.418  56.150 -53.282  1.00  0.00    -0.280 NA
HETATM   29  C   UNL     1     -42.672  54.767 -53.744  1.00  0.00     0.115 C 
HETATM   30  C   UNL     1     -41.431  53.890 -53.491  1.00  0.00     0.141 C 
HETATM   31  N   UNL     1     -40.906  53.995 -52.121  1.00  0.00    -0.345 N 
HETATM   32  C   UNL     1     -40.176  52.991 -51.471  1.00  0.00     0.260 C 
HETATM   33  C   UNL     1     -40.831  55.358 -51.573  1.00  0.00     0.141 C 
HETATM   34  O   UNL     1     -39.743  53.169 -50.332  1.00  0.00    -0.267 OA
HETATM   35  C   UNL     1     -42.093  56.196 -51.843  1.00  0.00     0.115 C 
BRANCH  32  36
HETATM   36  C   UNL     1     -39.940  51.748 -52.187  1.00  0.00     0.072 A 
HETATM   37  S   UNL     1     -39.682  50.311 -51.293  1.00  0.00    -0.097 SA
HETATM   38  C   UNL     1     -39.474  49.385 -52.716  1.00  0.00     0.050 A 
HETATM   39  C   UNL     1     -39.572  50.155 -53.853  1.00  0.00     0.009 A 
HETATM   40  C   UNL     1     -39.826  51.525 -53.548  1.00  0.00     0.025 A 
ENDBRANCH  32  36
ENDBRANCH  25  28
ENDBRANCH   1  22
TORSDOF 8
ENDMDL
MODEL 9
REMARK VINA RESULT:      -7.9      0.769      3.149
REMARK  8 active torsions:
REMARK  status: ('A' for Active; 'I' for Inactive)
REMARK    1  A    between atoms: C_4  and  C_5 
REMARK    2  A    between atoms: C_5  and  C_6 
REMARK    3  A    between atoms: C_5  and  C_31 
REMARK       I    between atoms: C_6  and  N_7 
REMARK    4  A    between atoms: N_7  and  C_8 
REMARK    5  A    between atoms: C_8  and  N_9 
REMARK    6  A    between atoms: N_9  and  C_10 
REMARK    7  A    between atoms: C_13  and  N_14 
REMARK       I    between atoms: N_17  and  C_18 
REMARK    8  A    between atoms: C_18  and  C_19 
ROOT
HETATM    1  N   UNL     1     -41.365  56.562 -49.504  1.00  0.00    -0.333 N 
HETATM    2  H   UNL     1     -41.413  56.965 -48.567  1.00  0.00     0.168 HD
ENDROOT
BRANCH   1   3
HETATM    3  C   UNL     1     -41.153  55.204 -49.482  1.00  0.00     0.178 C 
HETATM    4  S   UNL     1     -40.663  54.211 -48.234  1.00  0.00    -0.040 SA
BRANCH   3   5
HETATM    5  N   UNL     1     -41.325  54.580 -50.711  1.00  0.00    -0.303 N 
HETATM    6  C   UNL     1     -40.484  53.684 -51.367  1.00  0.00     0.236 C 
HETATM    7  O   UNL     1     -39.303  53.532 -51.044  1.00  0.00    -0.272 OA
HETATM    8  H   UNL     1     -42.249  54.718 -51.100  1.00  0.00     0.171 HD
BRANCH   6   9
HETATM    9  C   UNL     1     -41.125  52.889 -52.512  1.00  0.00     0.144 C 
BRANCH   9  10
HETATM   10  C   UNL     1     -40.432  51.579 -52.890  1.00  0.00    -0.041 A 
HETATM   11  C   UNL     1     -40.225  51.306 -54.257  1.00  0.00     0.008 A 
HETATM   12  C   UNL     1     -39.590  50.135 -54.674  1.00  0.00     0.001 A 
HETATM   13  C   UNL     1     -39.154  49.211 -53.732  1.00  0.00     0.000 A 
HETATM   14  C   UNL     1     -39.360  49.454 -52.376  1.00  0.00     0.001 A 
HETATM   15  C   UNL     1     -39.998  50.626 -51.956  1.00  0.00     0.008 A 
ENDBRANCH   9  10
BRANCH   9  16
HETATM   16  C   UNL     1     -41.438  53.822 -53.686  1.00  0.00    -0.041 A 
HETATM   17  C   UNL     1     -42.639  53.640 -54.393  1.00  0.00     0.008 A 
HETATM   18  C   UNL     1     -42.994  54.503 -55.430  1.00  0.00     0.001 A 
HETATM   19  C   UNL     1     -42.159  55.563 -55.770  1.00  0.00     0.000 A 
HETATM   20  C   UNL     1     -40.968  55.760 -55.077  1.00  0.00     0.001 A 
HETATM   21  C   UNL     1     -40.607  54.899 -54.039  1.00  0.00     0.008 A 
ENDBRANCH   9  16
ENDBRANCH   6   9
ENDBRANCH   3   5
ENDBRANCH   1   3
BRANCH   1  22
HETATM   22  C   UNL     1     -41.598  57.501 -50.530  1.00  0.00     0.034 A 
HETATM   23  C   UNL     1     -40.888  58.676 -50.751  1.00  0.00     0.031 A 
HETATM   24  C   UNL     1     -41.209  59.516 -51.833  1.00  0.00     0.026 A 
HETATM   25  C   UNL     1     -42.232  59.197 -52.732  1.00  0.00     0.010 A 
HETATM   26  C   UNL     1     -42.947  58.019 -52.489  1.00  0.00     0.026 A 
HETATM   27  C   UNL     1     -42.646  57.191 -51.405  1.00  0.00     0.031 A 
BRANCH  25  28
HETATM   28  N   UNL     1     -42.587  59.982 -53.833  1.00  0.00    -0.280 NA
HETATM   29  C   UNL     1     -41.785  59.684 -55.041  1.00  0.00     0.115 C 
HETATM   30  C   UNL     1     -42.468  60.273 -56.289  1.00  0.00     0.141 C 
HETATM   31  N   UNL     1     -42.850  61.686 -56.137  1.00  0.00    -0.345 N 
HETATM   32  C   UNL     1     -42.986  62.591 -57.198  1.00  0.00     0.260 C 
HETATM   33  C   UNL     1     -43.478  62.039 -54.854  1.00  0.00     0.141 C 
HETATM   34  O   UNL     1     -43.341  63.751 -56.991  1.00  0.00    -0.267 OA
HETATM   35  C   UNL     1     -42.759  61.434 -53.635  1.00  0.00     0.115 C 
BRANCH  32  36
HETATM   36  C   UNL     1     -42.705  62.111 -58.542  1.00  0.00     0.072 A 
HETATM   37  S   UNL     1     -43.989  61.481 -59.484  1.00  0.00    -0.097 SA
HETATM   38  C   UNL     1     -42.945  61.138 -60.795  1.00  0.00     0.050 A 
HETATM   39  C   UNL     1     -41.638  61.470 -60.517  1.00  0.00     0.009 A 
HETATM   40  C   UNL     1     -41.496  62.019 -59.208  1.00  0.00     0.025 A 
ENDBRANCH  32  36
ENDBRANCH  25  28
ENDBRANCH   1  22
TORSDOF 8
ENDMDL
MODEL 10
REMARK VINA RESULT:      -7.9      4.647      7.619
REMARK  8 active torsions:
REMARK  status: ('A' for Active; 'I' for Inactive)
REMARK    1  A    between atoms: C_4  and  C_5 
REMARK    2  A    between atoms: C_5  and  C_6 
REMARK    3  A    between atoms: C_5  and  C_31 
REMARK       I    between atoms: C_6  and  N_7 
REMARK    4  A    between atoms: N_7  and  C_8 
REMARK    5  A    between atoms: C_8  and  N_9 
REMARK    6  A    between atoms: N_9  and  C_10 
REMARK    7  A    between atoms: C_13  and  N_14 
REMARK       I    between atoms: N_17  and  C_18 
REMARK    8  A    between atoms: C_18  and  C_19 
ROOT
HETATM    1  N   UNL     1     -42.535  55.165 -53.978  1.00  0.00    -0.333 N 
HETATM    2  H   UNL     1     -43.182  54.395 -53.794  1.00  0.00     0.168 HD
ENDROOT
BRANCH   1   3
HETATM    3  C   UNL     1     -41.566  54.829 -54.893  1.00  0.00     0.178 C 
HETATM    4  S   UNL     1     -40.233  53.838 -54.736  1.00  0.00    -0.040 SA
BRANCH   3   5
HETATM    5  N   UNL     1     -41.697  55.466 -56.121  1.00  0.00    -0.303 N 
HETATM    6  C   UNL     1     -42.774  55.460 -57.003  1.00  0.00     0.236 C 
HETATM    7  O   UNL     1     -43.686  54.633 -56.924  1.00  0.00    -0.272 OA
HETATM    8  H   UNL     1     -40.942  56.112 -56.315  1.00  0.00     0.171 HD
BRANCH   6   9
HETATM    9  C   UNL     1     -42.759  56.557 -58.077  1.00  0.00     0.144 C 
BRANCH   9  10
HETATM   10  C   UNL     1     -42.546  57.985 -57.574  1.00  0.00    -0.041 A 
HETATM   11  C   UNL     1     -41.893  58.900 -58.426  1.00  0.00     0.008 A 
HETATM   12  C   UNL     1     -41.673  60.222 -58.037  1.00  0.00     0.001 A 
HETATM   13  C   UNL     1     -42.097  60.655 -56.786  1.00  0.00     0.000 A 
HETATM   14  C   UNL     1     -42.731  59.765 -55.923  1.00  0.00     0.001 A 
HETATM   15  C   UNL     1     -42.950  58.439 -56.309  1.00  0.00     0.008 A 
ENDBRANCH   9  10
BRANCH   9  16
HETATM   16  C   UNL     1     -43.944  56.372 -59.029  1.00  0.00    -0.041 A 
HETATM   17  C   UNL     1     -43.868  55.374 -60.018  1.00  0.00     0.008 A 
HETATM   18  C   UNL     1     -44.946  55.129 -60.868  1.00  0.00     0.001 A 
HETATM   19  C   UNL     1     -46.117  55.872 -60.740  1.00  0.00     0.000 A 
HETATM   20  C   UNL     1     -46.211  56.860 -59.763  1.00  0.00     0.001 A 
HETATM   21  C   UNL     1     -45.134  57.109 -58.910  1.00  0.00     0.008 A 
ENDBRANCH   9  16
ENDBRANCH   6   9
ENDBRANCH   3   5
ENDBRANCH   1   3
BRANCH   1  22
HETATM   22  C   UNL     1     -42.870  56.352 -53.296  1.00  0.00     0.034 A 
HETATM   23  C   UNL     1     -44.134  56.925 -53.208  1.00  0.00     0.031 A 
HETATM   24  C   UNL     1     -44.339  58.105 -52.469  1.00  0.00     0.026 A 
HETATM   25  C   UNL     1     -43.292  58.734 -51.787  1.00  0.00     0.010 A 
HETATM   26  C   UNL     1     -42.023  58.155 -51.897  1.00  0.00     0.026 A 
HETATM   27  C   UNL     1     -41.811  56.994 -52.645  1.00  0.00     0.031 A 
BRANCH  25  28
HETATM   28  N   UNL     1     -43.434  59.898 -51.025  1.00  0.00    -0.280 NA
HETATM   29  C   UNL     1     -44.767  60.018 -50.393  1.00  0.00     0.115 C 
HETATM   30  C   UNL     1     -44.730  61.080 -49.277  1.00  0.00     0.141 C 
HETATM   31  N   UNL     1     -44.131  62.355 -49.700  1.00  0.00    -0.345 N 
HETATM   32  C   UNL     1     -44.423  63.599 -49.125  1.00  0.00     0.260 C 
HETATM   33  C   UNL     1     -42.902  62.245 -50.501  1.00  0.00     0.141 C 
HETATM   34  O   UNL     1     -43.855  64.619 -49.516  1.00  0.00    -0.267 OA
HETATM   35  C   UNL     1     -42.987  61.178 -51.607  1.00  0.00     0.115 C 
BRANCH  32  36
HETATM   36  C   UNL     1     -45.405  63.640 -48.053  1.00  0.00     0.072 A 
HETATM   37  S   UNL     1     -47.051  63.903 -48.446  1.00  0.00    -0.097 SA
HETATM   38  C   UNL     1     -47.519  63.847 -46.801  1.00  0.00     0.050 A 
HETATM   39  C   UNL     1     -46.443  63.659 -45.963  1.00  0.00     0.009 A 
HETATM   40  C   UNL     1     -45.217  63.554 -46.685  1.00  0.00     0.025 A 
ENDBRANCH  32  36
ENDBRANCH  25  28
ENDBRANCH   1  22
TORSDOF 8
ENDMDL
