MODEL 1
REMARK VINA RESULT:      -8.7      0.000      0.000
REMARK  6 active torsions:
REMARK  status: ('A' for Active; 'I' for Inactive)
REMARK    1  A    between atoms: C_5  and  C_6 
REMARK    2  A    between atoms: C_12  and  C_13 
REMARK       I    between atoms: C_13  and  N_14 
REMARK    3  A    between atoms: N_14  and  C_15 
REMARK    4  A    between atoms: C_18  and  C_19 
REMARK    5  A    between atoms: C_19  and  O_20 
REMARK    6  A    between atoms: C_25  and  C_26 
ROOT
HETATM    1  C   UNL     1     -41.444  56.803 -53.279  1.00  0.00     0.118 C 
HETATM    2  N   UNL     1     -41.721  57.513 -54.540  1.00  0.00    -0.365 N 
HETATM    3  C   UNL     1     -42.222  58.780 -54.451  1.00  0.00     0.138 A 
HETATM    4  N   UNL     1     -42.780  59.236 -53.277  1.00  0.00    -0.240 N 
HETATM    5  N   UNL     1     -43.155  60.520 -53.321  1.00  0.00    -0.181 NA
HETATM    6  C   UNL     1     -42.929  60.863 -54.592  1.00  0.00     0.160 A 
HETATM    7  C   UNL     1     -42.342  59.821 -55.354  1.00  0.00     0.096 A 
HETATM    8  C   UNL     1     -42.906  58.453 -52.061  1.00  0.00     0.221 C 
HETATM    9  C   UNL     1     -42.657  56.960 -52.356  1.00  0.00     0.066 C 
HETATM   10  H   UNL     1     -42.141  56.895 -55.242  1.00  0.00     0.161 HD
ENDROOT
BRANCH   7  11
HETATM   11  C   UNL     1     -41.947  59.921 -56.751  1.00  0.00     0.261 C 
HETATM   12  N   UNL     1     -41.716  61.213 -57.183  1.00  0.00    -0.323 N 
HETATM   13  H   UNL     1     -41.892  61.937 -56.496  1.00  0.00     0.169 HD
HETATM   14  O   UNL     1     -41.850  58.906 -57.432  1.00  0.00    -0.267 OA
BRANCH  12  15
HETATM   15  C   UNL     1     -41.291  61.631 -58.460  1.00  0.00     0.035 A 
HETATM   16  C   UNL     1     -41.896  61.232 -59.651  1.00  0.00     0.030 A 
HETATM   17  C   UNL     1     -41.408  61.682 -60.884  1.00  0.00     0.012 A 
HETATM   18  C   UNL     1     -40.294  62.531 -60.962  1.00  0.00    -0.030 A 
HETATM   19  C   UNL     1     -39.703  62.943 -59.762  1.00  0.00     0.012 A 
HETATM   20  C   UNL     1     -40.196  62.498 -58.526  1.00  0.00     0.030 A 
BRANCH  18  21
HETATM   21  C   UNL     1     -39.816  62.973 -62.328  1.00  0.00     0.147 C 
HETATM   22  C   UNL     1     -38.476  63.697 -62.373  1.00  0.00     0.044 C 
BRANCH  21  23
HETATM   23  O   UNL     1     -40.816  63.826 -62.882  1.00  0.00    -0.391 OA
HETATM   24  H   UNL     1     -40.456  64.192 -63.707  1.00  0.00     0.210 HD
ENDBRANCH  21  23
ENDBRANCH  18  21
ENDBRANCH  12  15
ENDBRANCH   7  11
BRANCH   1  25
HETATM   25  C   UNL     1     -41.010  55.380 -53.580  1.00  0.00    -0.035 A 
HETATM   26  C   UNL     1     -41.073  54.426 -52.548  1.00  0.00     0.010 A 
HETATM   27  C   UNL     1     -40.741  53.089 -52.778  1.00  0.00     0.007 A 
HETATM   28  C   UNL     1     -40.325  52.672 -54.045  1.00  0.00    -0.062 A 
HETATM   29  C   UNL     1     -40.031  51.226 -54.317  1.00  0.00     0.048 C 
HETATM   30  C   UNL     1     -40.253  53.613 -55.076  1.00  0.00     0.007 A 
HETATM   31  C   UNL     1     -40.582  54.954 -54.845  1.00  0.00     0.010 A 
ENDBRANCH   1  25
BRANCH   8  32
HETATM   32  C   UNL     1     -44.269  58.615 -51.418  1.00  0.00     0.409 C 
HETATM   33  F   UNL     1     -44.352  59.660 -50.573  1.00  0.00    -0.169 F 
HETATM   34  F   UNL     1     -45.258  58.721 -52.333  1.00  0.00    -0.169 F 
HETATM   35  F   UNL     1     -44.550  57.508 -50.676  1.00  0.00    -0.169 F 
ENDBRANCH   8  32
TORSDOF 6
ENDMDL
MODEL 2
REMARK VINA RESULT:      -8.4      4.192      5.206
REMARK  6 active torsions:
REMARK  status: ('A' for Active; 'I' for Inactive)
REMARK    1  A    between atoms: C_5  and  C_6 
REMARK    2  A    between atoms: C_12  and  C_13 
REMARK       I    between atoms: C_13  and  N_14 
REMARK    3  A    between atoms: N_14  and  C_15 
REMARK    4  A    between atoms: C_18  and  C_19 
REMARK    5  A    between atoms: C_19  and  O_20 
REMARK    6  A    between atoms: C_25  and  C_26 
ROOT
HETATM    1  C   UNL     1     -41.293  56.484 -54.177  1.00  0.00     0.118 C 
HETATM    2  N   UNL     1     -42.351  56.597 -55.198  1.00  0.00    -0.365 N 
HETATM    3  C   UNL     1     -42.853  57.842 -55.445  1.00  0.00     0.138 A 
HETATM    4  N   UNL     1     -42.656  58.872 -54.551  1.00  0.00    -0.240 N 
HETATM    5  N   UNL     1     -43.140  60.048 -54.969  1.00  0.00    -0.181 NA
HETATM    6  C   UNL     1     -43.758  59.739 -56.111  1.00  0.00     0.160 A 
HETATM    7  C   UNL     1     -43.615  58.375 -56.470  1.00  0.00     0.096 A 
HETATM    8  C   UNL     1     -41.936  58.753 -53.296  1.00  0.00     0.221 C 
HETATM    9  C   UNL     1     -41.728  57.269 -52.936  1.00  0.00     0.066 C 
HETATM   10  H   UNL     1     -43.024  55.828 -55.137  1.00  0.00     0.161 HD
ENDROOT
BRANCH   7  11
HETATM   11  C   UNL     1     -44.143  57.764 -57.680  1.00  0.00     0.261 C 
HETATM   12  N   UNL     1     -45.412  58.189 -58.022  1.00  0.00    -0.323 N 
HETATM   13  H   UNL     1     -45.842  58.837 -57.370  1.00  0.00     0.169 HD
HETATM   14  O   UNL     1     -43.469  56.945 -58.295  1.00  0.00    -0.267 OA
BRANCH  12  15
HETATM   15  C   UNL     1     -46.174  57.812 -59.146  1.00  0.00     0.035 A 
HETATM   16  C   UNL     1     -46.295  56.500 -59.600  1.00  0.00     0.030 A 
HETATM   17  C   UNL     1     -47.062  56.205 -60.734  1.00  0.00     0.012 A 
HETATM   18  C   UNL     1     -47.718  57.215 -61.453  1.00  0.00    -0.030 A 
HETATM   19  C   UNL     1     -47.608  58.528 -60.982  1.00  0.00     0.012 A 
HETATM   20  C   UNL     1     -46.845  58.823 -59.842  1.00  0.00     0.030 A 
BRANCH  18  21
HETATM   21  C   UNL     1     -48.524  56.825 -62.673  1.00  0.00     0.147 C 
HETATM   22  C   UNL     1     -48.644  57.880 -63.768  1.00  0.00     0.044 C 
BRANCH  21  23
HETATM   23  O   UNL     1     -49.833  56.471 -62.233  1.00  0.00    -0.391 OA
HETATM   24  H   UNL     1     -50.422  56.537 -63.002  1.00  0.00     0.210 HD
ENDBRANCH  21  23
ENDBRANCH  18  21
ENDBRANCH  12  15
ENDBRANCH   7  11
BRANCH   1  25
HETATM   25  C   UNL     1     -40.950  55.021 -53.961  1.00  0.00    -0.035 A 
HETATM   26  C   UNL     1     -40.565  54.250 -55.073  1.00  0.00     0.010 A 
HETATM   27  C   UNL     1     -40.183  52.914 -54.928  1.00  0.00     0.007 A 
HETATM   28  C   UNL     1     -40.188  52.309 -53.669  1.00  0.00    -0.062 A 
HETATM   29  C   UNL     1     -39.715  50.896 -53.496  1.00  0.00     0.048 C 
HETATM   30  C   UNL     1     -40.575  53.065 -52.558  1.00  0.00     0.007 A 
HETATM   31  C   UNL     1     -40.961  54.402 -52.703  1.00  0.00     0.010 A 
ENDBRANCH   1  25
BRANCH   8  32
HETATM   32  C   UNL     1     -42.658  59.447 -52.158  1.00  0.00     0.409 C 
HETATM   33  F   UNL     1     -42.469  60.780 -52.126  1.00  0.00    -0.169 F 
HETATM   34  F   UNL     1     -43.987  59.200 -52.167  1.00  0.00    -0.169 F 
HETATM   35  F   UNL     1     -42.187  58.972 -50.971  1.00  0.00    -0.169 F 
ENDBRANCH   8  32
TORSDOF 6
ENDMDL
MODEL 3
REMARK VINA RESULT:      -8.3      3.953      6.574
REMARK  6 active torsions:
REMARK  status: ('A' for Active; 'I' for Inactive)
REMARK    1  A    between atoms: C_5  and  C_6 
REMARK    2  A    between atoms: C_12  and  C_13 
REMARK       I    between atoms: C_13  and  N_14 
REMARK    3  A    between atoms: N_14  and  C_15 
REMARK    4  A    between atoms: C_18  and  C_19 
REMARK    5  A    between atoms: C_19  and  O_20 
REMARK    6  A    between atoms: C_25  and  C_26 
ROOT
HETATM    1  C   UNL     1     -42.225  56.796 -50.926  1.00  0.00     0.118 C 
HETATM    2  N   UNL     1     -41.716  56.402 -52.252  1.00  0.00    -0.365 N 
HETATM    3  C   UNL     1     -41.426  55.082 -52.446  1.00  0.00     0.138 A 
HETATM    4  N   UNL     1     -41.265  54.231 -51.373  1.00  0.00    -0.240 N 
HETATM    5  N   UNL     1     -41.061  52.955 -51.724  1.00  0.00    -0.181 NA
HETATM    6  C   UNL     1     -40.982  53.011 -53.056  1.00  0.00     0.160 A 
HETATM    7  C   UNL     1     -41.204  54.312 -53.573  1.00  0.00     0.096 A 
HETATM    8  C   UNL     1     -41.368  54.626 -49.980  1.00  0.00     0.221 C 
HETATM    9  C   UNL     1     -41.334  56.162 -49.854  1.00  0.00     0.066 C 
HETATM   10  H   UNL     1     -41.048  57.084 -52.623  1.00  0.00     0.161 HD
ENDROOT
BRANCH   7  11
HETATM   11  C   UNL     1     -41.222  54.664 -54.985  1.00  0.00     0.261 C 
HETATM   12  N   UNL     1     -42.264  55.495 -55.348  1.00  0.00    -0.323 N 
HETATM   13  H   UNL     1     -42.915  55.724 -54.605  1.00  0.00     0.169 HD
HETATM   14  O   UNL     1     -40.358  54.223 -55.735  1.00  0.00    -0.267 OA
BRANCH  12  15
HETATM   15  C   UNL     1     -42.531  56.035 -56.623  1.00  0.00     0.035 A 
HETATM   16  C   UNL     1     -43.019  55.293 -57.696  1.00  0.00     0.030 A 
HETATM   17  C   UNL     1     -43.250  55.899 -58.937  1.00  0.00     0.012 A 
HETATM   18  C   UNL     1     -42.985  57.261 -59.143  1.00  0.00    -0.030 A 
HETATM   19  C   UNL     1     -42.511  58.006 -58.056  1.00  0.00     0.012 A 
HETATM   20  C   UNL     1     -42.288  57.400 -56.811  1.00  0.00     0.030 A 
BRANCH  18  21
HETATM   21  C   UNL     1     -43.250  57.850 -60.512  1.00  0.00     0.147 C 
HETATM   22  C   UNL     1     -42.733  59.264 -60.751  1.00  0.00     0.044 C 
BRANCH  21  23
HETATM   23  O   UNL     1     -44.660  57.836 -60.724  1.00  0.00    -0.391 OA
HETATM   24  H   UNL     1     -44.824  58.248 -61.588  1.00  0.00     0.210 HD
ENDBRANCH  21  23
ENDBRANCH  18  21
ENDBRANCH  12  15
ENDBRANCH   7  11
BRANCH   1  25
HETATM   25  C   UNL     1     -42.376  58.306 -50.867  1.00  0.00    -0.035 A 
HETATM   26  C   UNL     1     -43.624  58.870 -51.190  1.00  0.00     0.010 A 
HETATM   27  C   UNL     1     -43.840  60.247 -51.099  1.00  0.00     0.007 A 
HETATM   28  C   UNL     1     -42.809  61.099 -50.696  1.00  0.00    -0.062 A 
HETATM   29  C   UNL     1     -43.052  62.571 -50.531  1.00  0.00     0.048 C 
HETATM   30  C   UNL     1     -41.563  60.550 -50.379  1.00  0.00     0.007 A 
HETATM   31  C   UNL     1     -41.345  59.171 -50.473  1.00  0.00     0.010 A 
ENDBRANCH   1  25
BRANCH   8  32
HETATM   32  C   UNL     1     -40.259  54.030 -49.136  1.00  0.00     0.409 C 
HETATM   33  F   UNL     1     -40.363  52.698 -48.963  1.00  0.00    -0.169 F 
HETATM   34  F   UNL     1     -39.032  54.306 -49.632  1.00  0.00    -0.169 F 
HETATM   35  F   UNL     1     -40.301  54.576 -47.889  1.00  0.00    -0.169 F 
ENDBRANCH   8  32
TORSDOF 6
ENDMDL
MODEL 4
REMARK VINA RESULT:      -8.2      3.555      4.605
REMARK  6 active torsions:
REMARK  status: ('A' for Active; 'I' for Inactive)
REMARK    1  A    between atoms: C_5  and  C_6 
REMARK    2  A    between atoms: C_12  and  C_13 
REMARK       I    between atoms: C_13  and  N_14 
REMARK    3  A    between atoms: N_14  and  C_15 
REMARK    4  A    between atoms: C_18  and  C_19 
REMARK    5  A    between atoms: C_19  and  O_20 
REMARK    6  A    between atoms: C_25  and  C_26 
ROOT
HETATM    1  C   UNL     1     -40.756  56.334 -53.762  1.00  0.00     0.118 C 
HETATM    2  N   UNL     1     -41.783  56.732 -54.742  1.00  0.00    -0.365 N 
HETATM    3  C   UNL     1     -42.119  58.054 -54.797  1.00  0.00     0.138 A 
HETATM    4  N   UNL     1     -41.798  58.906 -53.763  1.00  0.00    -0.240 N 
HETATM    5  N   UNL     1     -42.123  60.184 -53.996  1.00  0.00    -0.181 NA
HETATM    6  C   UNL     1     -42.768  60.129 -55.165  1.00  0.00     0.160 A 
HETATM    7  C   UNL     1     -42.799  58.825 -55.722  1.00  0.00     0.096 A 
HETATM    8  C   UNL     1     -41.108  58.511 -52.548  1.00  0.00     0.221 C 
HETATM    9  C   UNL     1     -41.096  56.976 -52.413  1.00  0.00     0.066 C 
HETATM   10  H   UNL     1     -42.551  56.055 -54.787  1.00  0.00     0.161 HD
ENDROOT
BRANCH   7  11
HETATM   11  C   UNL     1     -43.393  58.473 -57.003  1.00  0.00     0.261 C 
HETATM   12  N   UNL     1     -44.669  58.968 -57.191  1.00  0.00    -0.323 N 
HETATM   13  H   UNL     1     -45.057  59.476 -56.403  1.00  0.00     0.169 HD
HETATM   14  O   UNL     1     -42.762  57.788 -57.801  1.00  0.00    -0.267 OA
BRANCH  12  15
HETATM   15  C   UNL     1     -45.488  58.829 -58.330  1.00  0.00     0.035 A 
HETATM   16  C   UNL     1     -45.691  59.837 -59.271  1.00  0.00     0.030 A 
HETATM   17  C   UNL     1     -46.530  59.627 -60.371  1.00  0.00     0.012 A 
HETATM   18  C   UNL     1     -47.200  58.408 -60.555  1.00  0.00    -0.030 A 
HETATM   19  C   UNL     1     -46.978  57.393 -59.616  1.00  0.00     0.012 A 
HETATM   20  C   UNL     1     -46.132  57.602 -58.517  1.00  0.00     0.030 A 
BRANCH  18  21
HETATM   21  C   UNL     1     -48.097  58.252 -61.764  1.00  0.00     0.147 C 
HETATM   22  C   UNL     1     -48.360  56.824 -62.229  1.00  0.00     0.044 C 
BRANCH  21  23
HETATM   23  O   UNL     1     -47.509  58.982 -62.838  1.00  0.00    -0.391 OA
HETATM   24  H   UNL     1     -47.547  59.923 -62.600  1.00  0.00     0.210 HD
ENDBRANCH  21  23
ENDBRANCH  18  21
ENDBRANCH  12  15
ENDBRANCH   7  11
BRANCH   1  25
HETATM   25  C   UNL     1     -40.606  54.823 -53.768  1.00  0.00    -0.035 A 
HETATM   26  C   UNL     1     -40.415  54.172 -55.000  1.00  0.00     0.010 A 
HETATM   27  C   UNL     1     -40.213  52.791 -55.065  1.00  0.00     0.007 A 
HETATM   28  C   UNL     1     -40.211  52.022 -53.899  1.00  0.00    -0.062 A 
HETATM   29  C   UNL     1     -39.929  50.550 -53.953  1.00  0.00     0.048 C 
HETATM   30  C   UNL     1     -40.405  52.658 -52.669  1.00  0.00     0.007 A 
HETATM   31  C   UNL     1     -40.611  54.041 -52.605  1.00  0.00     0.010 A 
ENDBRANCH   1  25
BRANCH   8  32
HETATM   32  C   UNL     1     -41.742  59.116 -51.311  1.00  0.00     0.409 C 
HETATM   33  F   UNL     1     -41.495  60.432 -51.160  1.00  0.00    -0.169 F 
HETATM   34  F   UNL     1     -43.080  58.922 -51.273  1.00  0.00    -0.169 F 
HETATM   35  F   UNL     1     -41.235  58.508 -50.203  1.00  0.00    -0.169 F 
ENDBRANCH   8  32
TORSDOF 6
ENDMDL
MODEL 5
REMARK VINA RESULT:      -8.2      5.139      8.002
REMARK  6 active torsions:
REMARK  status: ('A' for Active; 'I' for Inactive)
REMARK    1  A    between atoms: C_5  and  C_6 
REMARK    2  A    between atoms: C_12  and  C_13 
REMARK       I    between atoms: C_13  and  N_14 
REMARK    3  A    between atoms: N_14  and  C_15 
REMARK    4  A    between atoms: C_18  and  C_19 
REMARK    5  A    between atoms: C_19  and  O_20 
REMARK    6  A    between atoms: C_25  and  C_26 
ROOT
HETATM    1  C   UNL     1     -42.629  54.843 -54.318  1.00  0.00     0.118 C 
HETATM    2  N   UNL     1     -42.673  56.085 -53.526  1.00  0.00    -0.365 N 
HETATM    3  C   UNL     1     -43.420  57.116 -54.018  1.00  0.00     0.138 A 
HETATM    4  N   UNL     1     -43.809  57.137 -55.340  1.00  0.00    -0.240 N 
HETATM    5  N   UNL     1     -44.601  58.171 -55.652  1.00  0.00    -0.181 NA
HETATM    6  C   UNL     1     -44.629  58.888 -54.526  1.00  0.00     0.160 A 
HETATM    7  C   UNL     1     -43.913  58.284 -53.462  1.00  0.00     0.096 A 
HETATM    8  C   UNL     1     -43.474  56.118 -56.318  1.00  0.00     0.221 C 
HETATM    9  C   UNL     1     -42.353  55.207 -55.781  1.00  0.00     0.066 C 
HETATM   10  H   UNL     1     -41.756  56.320 -53.134  1.00  0.00     0.161 HD
ENDROOT
BRANCH   7  11
HETATM   11  C   UNL     1     -43.808  58.814 -52.112  1.00  0.00     0.261 C 
HETATM   12  N   UNL     1     -44.592  59.927 -51.877  1.00  0.00    -0.323 N 
HETATM   13  H   UNL     1     -45.109  60.269 -52.680  1.00  0.00     0.169 HD
HETATM   14  O   UNL     1     -43.064  58.274 -51.300  1.00  0.00    -0.267 OA
BRANCH  12  15
HETATM   15  C   UNL     1     -44.733  60.644 -50.672  1.00  0.00     0.035 A 
HETATM   16  C   UNL     1     -45.485  60.199 -49.586  1.00  0.00     0.030 A 
HETATM   17  C   UNL     1     -45.586  60.974 -48.424  1.00  0.00     0.012 A 
HETATM   18  C   UNL     1     -44.951  62.221 -48.320  1.00  0.00    -0.030 A 
HETATM   19  C   UNL     1     -44.182  62.653 -49.408  1.00  0.00     0.012 A 
HETATM   20  C   UNL     1     -44.074  61.873 -50.569  1.00  0.00     0.030 A 
BRANCH  18  21
HETATM   21  C   UNL     1     -45.109  63.008 -47.038  1.00  0.00     0.147 C 
HETATM   22  C   UNL     1     -45.128  62.199 -45.747  1.00  0.00     0.044 C 
BRANCH  21  23
HETATM   23  O   UNL     1     -46.324  63.749 -47.132  1.00  0.00    -0.391 OA
HETATM   24  H   UNL     1     -46.181  64.594 -46.675  1.00  0.00     0.210 HD
ENDBRANCH  21  23
ENDBRANCH  18  21
ENDBRANCH  12  15
ENDBRANCH   7  11
BRANCH   1  25
HETATM   25  C   UNL     1     -41.662  53.864 -53.676  1.00  0.00    -0.035 A 
HETATM   26  C   UNL     1     -41.379  54.002 -52.305  1.00  0.00     0.010 A 
HETATM   27  C   UNL     1     -40.543  53.098 -51.645  1.00  0.00     0.007 A 
HETATM   28  C   UNL     1     -39.955  52.040 -52.343  1.00  0.00    -0.062 A 
HETATM   29  C   UNL     1     -39.110  51.027 -51.628  1.00  0.00     0.048 C 
HETATM   30  C   UNL     1     -40.225  51.897 -53.707  1.00  0.00     0.007 A 
HETATM   31  C   UNL     1     -41.060  52.804 -54.369  1.00  0.00     0.010 A 
ENDBRANCH   1  25
BRANCH   8  32
HETATM   32  C   UNL     1     -43.039  56.720 -57.639  1.00  0.00     0.409 C 
HETATM   33  F   UNL     1     -44.051  57.239 -58.361  1.00  0.00    -0.169 F 
HETATM   34  F   UNL     1     -42.089  57.669 -57.484  1.00  0.00    -0.169 F 
HETATM   35  F   UNL     1     -42.485  55.747 -58.415  1.00  0.00    -0.169 F 
ENDBRANCH   8  32
TORSDOF 6
ENDMDL
MODEL 6
REMARK VINA RESULT:      -8.0      4.306      8.304
REMARK  6 active torsions:
REMARK  status: ('A' for Active; 'I' for Inactive)
REMARK    1  A    between atoms: C_5  and  C_6 
REMARK    2  A    between atoms: C_12  and  C_13 
REMARK       I    between atoms: C_13  and  N_14 
REMARK    3  A    between atoms: N_14  and  C_15 
REMARK    4  A    between atoms: C_18  and  C_19 
REMARK    5  A    between atoms: C_19  and  O_20 
REMARK    6  A    between atoms: C_25  and  C_26 
ROOT
HETATM    1  C   UNL     1     -44.629  58.571 -56.849  1.00  0.00     0.118 C 
HETATM    2  N   UNL     1     -43.401  58.199 -56.124  1.00  0.00    -0.365 N 
HETATM    3  C   UNL     1     -43.058  58.956 -55.041  1.00  0.00     0.138 A 
HETATM    4  N   UNL     1     -43.608  60.205 -54.851  1.00  0.00    -0.240 N 
HETATM    5  N   UNL     1     -43.234  60.790 -53.707  1.00  0.00    -0.181 NA
HETATM    6  C   UNL     1     -42.335  59.939 -53.205  1.00  0.00     0.160 A 
HETATM    7  C   UNL     1     -42.179  58.768 -53.989  1.00  0.00     0.096 A 
HETATM    8  C   UNL     1     -44.563  60.834 -55.746  1.00  0.00     0.221 C 
HETATM    9  C   UNL     1     -44.611  60.084 -57.092  1.00  0.00     0.066 C 
HETATM   10  H   UNL     1     -42.646  57.932 -56.763  1.00  0.00     0.161 HD
ENDROOT
BRANCH   7  11
HETATM   11  C   UNL     1     -41.305  57.650 -53.667  1.00  0.00     0.261 C 
HETATM   12  N   UNL     1     -41.890  56.409 -53.828  1.00  0.00    -0.323 N 
HETATM   13  H   UNL     1     -42.866  56.423 -54.105  1.00  0.00     0.169 HD
HETATM   14  O   UNL     1     -40.159  57.861 -53.286  1.00  0.00    -0.267 OA
BRANCH  12  15
HETATM   15  C   UNL     1     -41.298  55.145 -53.631  1.00  0.00     0.035 A 
HETATM   16  C   UNL     1     -41.112  54.558 -52.381  1.00  0.00     0.030 A 
HETATM   17  C   UNL     1     -40.505  53.303 -52.265  1.00  0.00     0.012 A 
HETATM   18  C   UNL     1     -40.053  52.604 -53.395  1.00  0.00    -0.030 A 
HETATM   19  C   UNL     1     -40.259  53.190 -54.650  1.00  0.00     0.012 A 
HETATM   20  C   UNL     1     -40.874  54.446 -54.766  1.00  0.00     0.030 A 
BRANCH  18  21
HETATM   21  C   UNL     1     -39.399  51.254 -53.197  1.00  0.00     0.147 C 
HETATM   22  C   UNL     1     -39.907  50.121 -54.081  1.00  0.00     0.044 C 
BRANCH  21  23
HETATM   23  O   UNL     1     -39.574  50.884 -51.831  1.00  0.00    -0.391 OA
HETATM   24  H   UNL     1     -39.972  49.998 -51.823  1.00  0.00     0.210 HD
ENDBRANCH  21  23
ENDBRANCH  18  21
ENDBRANCH  12  15
ENDBRANCH   7  11
BRANCH   1  25
HETATM   25  C   UNL     1     -44.778  57.696 -58.081  1.00  0.00    -0.035 A 
HETATM   26  C   UNL     1     -43.693  56.889 -58.466  1.00  0.00     0.010 A 
HETATM   27  C   UNL     1     -43.789  56.020 -59.556  1.00  0.00     0.007 A 
HETATM   28  C   UNL     1     -44.970  55.945 -60.298  1.00  0.00    -0.062 A 
HETATM   29  C   UNL     1     -45.105  54.966 -61.427  1.00  0.00     0.048 C 
HETATM   30  C   UNL     1     -46.054  56.746 -59.926  1.00  0.00     0.007 A 
HETATM   31  C   UNL     1     -45.956  57.620 -58.837  1.00  0.00     0.010 A 
ENDBRANCH   1  25
BRANCH   8  32
HETATM   32  C   UNL     1     -44.231  62.291 -55.997  1.00  0.00     0.409 C 
HETATM   33  F   UNL     1     -44.664  63.123 -55.029  1.00  0.00    -0.169 F 
HETATM   34  F   UNL     1     -42.907  62.493 -56.178  1.00  0.00    -0.169 F 
HETATM   35  F   UNL     1     -44.842  62.700 -57.144  1.00  0.00    -0.169 F 
ENDBRANCH   8  32
TORSDOF 6
ENDMDL
MODEL 7
REMARK VINA RESULT:      -8.0      4.941      8.018
REMARK  6 active torsions:
REMARK  status: ('A' for Active; 'I' for Inactive)
REMARK    1  A    between atoms: C_5  and  C_6 
REMARK    2  A    between atoms: C_12  and  C_13 
REMARK       I    between atoms: C_13  and  N_14 
REMARK    3  A    between atoms: N_14  and  C_15 
REMARK    4  A    between atoms: C_18  and  C_19 
REMARK    5  A    between atoms: C_19  and  O_20 
REMARK    6  A    between atoms: C_25  and  C_26 
ROOT
HETATM    1  C   UNL     1     -42.991  55.312 -54.874  1.00  0.00     0.118 C 
HETATM    2  N   UNL     1     -43.036  56.637 -54.230  1.00  0.00    -0.365 N 
HETATM    3  C   UNL     1     -43.689  57.636 -54.894  1.00  0.00     0.138 A 
HETATM    4  N   UNL     1     -43.969  57.522 -56.239  1.00  0.00    -0.240 N 
HETATM    5  N   UNL     1     -44.680  58.545 -56.729  1.00  0.00    -0.181 NA
HETATM    6  C   UNL     1     -44.763  59.386 -55.696  1.00  0.00     0.160 A 
HETATM    7  C   UNL     1     -44.165  58.878 -54.514  1.00  0.00     0.096 A 
HETATM    8  C   UNL     1     -43.608  56.385 -57.066  1.00  0.00     0.221 C 
HETATM    9  C   UNL     1     -42.581  55.496 -56.338  1.00  0.00     0.066 C 
HETATM   10  H   UNL     1     -42.143  56.878 -53.789  1.00  0.00     0.161 HD
ENDROOT
BRANCH   7  11
HETATM   11  C   UNL     1     -44.141  59.554 -53.226  1.00  0.00     0.261 C 
HETATM   12  N   UNL     1     -45.383  59.959 -52.776  1.00  0.00    -0.323 N 
HETATM   13  H   UNL     1     -46.154  59.782 -53.412  1.00  0.00     0.169 HD
HETATM   14  O   UNL     1     -43.076  59.720 -52.643  1.00  0.00    -0.267 OA
BRANCH  12  15
HETATM   15  C   UNL     1     -45.692  60.603 -51.561  1.00  0.00     0.035 A 
HETATM   16  C   UNL     1     -46.291  61.858 -51.475  1.00  0.00     0.030 A 
HETATM   17  C   UNL     1     -46.556  62.438 -50.229  1.00  0.00     0.012 A 
HETATM   18  C   UNL     1     -46.216  61.787 -49.034  1.00  0.00    -0.030 A 
HETATM   19  C   UNL     1     -45.631  60.518 -49.126  1.00  0.00     0.012 A 
HETATM   20  C   UNL     1     -45.372  59.934 -50.375  1.00  0.00     0.030 A 
BRANCH  18  21
HETATM   21  C   UNL     1     -46.525  62.475 -47.722  1.00  0.00     0.147 C 
HETATM   22  C   UNL     1     -45.451  62.384 -46.643  1.00  0.00     0.044 C 
BRANCH  21  23
HETATM   23  O   UNL     1     -47.734  61.917 -47.213  1.00  0.00    -0.391 OA
HETATM   24  H   UNL     1     -47.793  61.007 -47.547  1.00  0.00     0.210 HD
ENDBRANCH  21  23
ENDBRANCH  18  21
ENDBRANCH  12  15
ENDBRANCH   7  11
BRANCH   1  25
HETATM   25  C   UNL     1     -42.129  54.374 -54.048  1.00  0.00    -0.035 A 
HETATM   26  C   UNL     1     -41.180  53.575 -54.712  1.00  0.00     0.010 A 
HETATM   27  C   UNL     1     -40.319  52.735 -54.001  1.00  0.00     0.007 A 
HETATM   28  C   UNL     1     -40.393  52.662 -52.608  1.00  0.00    -0.062 A 
HETATM   29  C   UNL     1     -39.428  51.813 -51.834  1.00  0.00     0.048 C 
HETATM   30  C   UNL     1     -41.336  53.447 -51.939  1.00  0.00     0.007 A 
HETATM   31  C   UNL     1     -42.201  54.287 -52.651  1.00  0.00     0.010 A 
ENDBRANCH   1  25
BRANCH   8  32
HETATM   32  C   UNL     1     -43.039  56.814 -58.404  1.00  0.00     0.409 C 
HETATM   33  F   UNL     1     -43.961  57.299 -59.258  1.00  0.00    -0.169 F 
HETATM   34  F   UNL     1     -42.051  57.727 -58.273  1.00  0.00    -0.169 F 
HETATM   35  F   UNL     1     -42.484  55.735 -59.023  1.00  0.00    -0.169 F 
ENDBRANCH   8  32
TORSDOF 6
ENDMDL
MODEL 8
REMARK VINA RESULT:      -7.8      6.241      9.915
REMARK  6 active torsions:
REMARK  status: ('A' for Active; 'I' for Inactive)
REMARK    1  A    between atoms: C_5  and  C_6 
REMARK    2  A    between atoms: C_12  and  C_13 
REMARK       I    between atoms: C_13  and  N_14 
REMARK    3  A    between atoms: N_14  and  C_15 
REMARK    4  A    between atoms: C_18  and  C_19 
REMARK    5  A    between atoms: C_19  and  O_20 
REMARK    6  A    between atoms: C_25  and  C_26 
ROOT
HETATM    1  C   UNL     1     -45.126  61.857 -49.392  1.00  0.00     0.118 C 
HETATM    2  N   UNL     1     -45.063  60.423 -49.724  1.00  0.00    -0.365 N 
HETATM    3  C   UNL     1     -45.225  60.073 -51.034  1.00  0.00     0.138 A 
HETATM    4  N   UNL     1     -45.777  60.957 -51.936  1.00  0.00    -0.240 N 
HETATM    5  N   UNL     1     -45.799  60.499 -53.194  1.00  0.00    -0.181 NA
HETATM    6  C   UNL     1     -45.347  59.248 -53.075  1.00  0.00     0.160 A 
HETATM    7  C   UNL     1     -44.967  58.917 -51.749  1.00  0.00     0.096 A 
HETATM    8  C   UNL     1     -46.241  62.293 -51.608  1.00  0.00     0.221 C 
HETATM    9  C   UNL     1     -46.355  62.462 -50.080  1.00  0.00     0.066 C 
HETATM   10  H   UNL     1     -45.545  59.848 -49.026  1.00  0.00     0.161 HD
ENDROOT
BRANCH   7  11
HETATM   11  C   UNL     1     -44.402  57.644 -51.330  1.00  0.00     0.261 C 
HETATM   12  N   UNL     1     -43.199  57.332 -51.934  1.00  0.00    -0.323 N 
HETATM   13  H   UNL     1     -42.876  57.999 -52.627  1.00  0.00     0.169 HD
HETATM   14  O   UNL     1     -44.995  56.953 -50.510  1.00  0.00    -0.267 OA
BRANCH  12  15
HETATM   15  C   UNL     1     -42.393  56.197 -51.714  1.00  0.00     0.035 A 
HETATM   16  C   UNL     1     -42.444  55.043 -52.495  1.00  0.00     0.030 A 
HETATM   17  C   UNL     1     -41.618  53.950 -52.206  1.00  0.00     0.012 A 
HETATM   18  C   UNL     1     -40.729  53.973 -51.121  1.00  0.00    -0.030 A 
HETATM   19  C   UNL     1     -40.670  55.142 -50.351  1.00  0.00     0.012 A 
HETATM   20  C   UNL     1     -41.492  56.240 -50.645  1.00  0.00     0.030 A 
BRANCH  18  21
HETATM   21  C   UNL     1     -39.872  52.754 -50.863  1.00  0.00     0.147 C 
HETATM   22  C   UNL     1     -39.547  51.888 -52.075  1.00  0.00     0.044 C 
BRANCH  21  23
HETATM   23  O   UNL     1     -40.540  51.951 -49.892  1.00  0.00    -0.391 OA
HETATM   24  H   UNL     1     -40.303  52.301 -49.018  1.00  0.00     0.210 HD
ENDBRANCH  21  23
ENDBRANCH  18  21
ENDBRANCH  12  15
ENDBRANCH   7  11
BRANCH   1  25
HETATM   25  C   UNL     1     -45.044  62.036 -47.887  1.00  0.00    -0.035 A 
HETATM   26  C   UNL     1     -44.814  60.901 -47.088  1.00  0.00     0.010 A 
HETATM   27  C   UNL     1     -44.672  61.009 -45.702  1.00  0.00     0.007 A 
HETATM   28  C   UNL     1     -44.768  62.255 -45.077  1.00  0.00    -0.062 A 
HETATM   29  C   UNL     1     -44.550  62.389 -43.599  1.00  0.00     0.048 C 
HETATM   30  C   UNL     1     -45.002  63.388 -45.861  1.00  0.00     0.007 A 
HETATM   31  C   UNL     1     -45.148  63.280 -47.249  1.00  0.00     0.010 A 
ENDBRANCH   1  25
BRANCH   8  32
HETATM   32  C   UNL     1     -47.579  62.603 -52.247  1.00  0.00     0.409 C 
HETATM   33  F   UNL     1     -47.485  63.267 -53.415  1.00  0.00    -0.169 F 
HETATM   34  F   UNL     1     -48.325  61.493 -52.441  1.00  0.00    -0.169 F 
HETATM   35  F   UNL     1     -48.298  63.408 -51.415  1.00  0.00    -0.169 F 
ENDBRANCH   8  32
TORSDOF 6
ENDMDL
MODEL 9
REMARK VINA RESULT:      -7.7      2.878      5.281
REMARK  6 active torsions:
REMARK  status: ('A' for Active; 'I' for Inactive)
REMARK    1  A    between atoms: C_5  and  C_6 
REMARK    2  A    between atoms: C_12  and  C_13 
REMARK       I    between atoms: C_13  and  N_14 
REMARK    3  A    between atoms: N_14  and  C_15 
REMARK    4  A    between atoms: C_18  and  C_19 
REMARK    5  A    between atoms: C_19  and  O_20 
REMARK    6  A    between atoms: C_25  and  C_26 
ROOT
HETATM    1  C   UNL     1     -43.727  56.974 -52.575  1.00  0.00     0.118 C 
HETATM    2  N   UNL     1     -43.406  57.375 -53.956  1.00  0.00    -0.365 N 
HETATM    3  C   UNL     1     -43.121  56.382 -54.848  1.00  0.00     0.138 A 
HETATM    4  N   UNL     1     -42.791  55.116 -54.413  1.00  0.00    -0.240 N 
HETATM    5  N   UNL     1     -42.616  54.235 -55.405  1.00  0.00    -0.181 NA
HETATM    6  C   UNL     1     -42.729  54.982 -56.506  1.00  0.00     0.160 A 
HETATM    7  C   UNL     1     -43.048  56.335 -56.229  1.00  0.00     0.096 A 
HETATM    8  C   UNL     1     -42.701  54.717 -53.020  1.00  0.00     0.221 C 
HETATM    9  C   UNL     1     -42.679  55.959 -52.107  1.00  0.00     0.066 C 
HETATM   10  H   UNL     1     -42.811  58.209 -53.983  1.00  0.00     0.161 HD
ENDROOT
BRANCH   7  11
HETATM   11  C   UNL     1     -43.275  57.367 -57.230  1.00  0.00     0.261 C 
HETATM   12  N   UNL     1     -42.123  57.828 -57.838  1.00  0.00    -0.323 N 
HETATM   13  H   UNL     1     -41.258  57.430 -57.487  1.00  0.00     0.169 HD
HETATM   14  O   UNL     1     -44.415  57.753 -57.462  1.00  0.00    -0.267 OA
BRANCH  12  15
HETATM   15  C   UNL     1     -42.015  58.792 -58.862  1.00  0.00     0.035 A 
HETATM   16  C   UNL     1     -42.096  58.496 -60.221  1.00  0.00     0.030 A 
HETATM   17  C   UNL     1     -41.969  59.508 -61.180  1.00  0.00     0.012 A 
HETATM   18  C   UNL     1     -41.742  60.841 -60.808  1.00  0.00    -0.030 A 
HETATM   19  C   UNL     1     -41.680  61.135 -59.440  1.00  0.00     0.012 A 
HETATM   20  C   UNL     1     -41.815  60.122 -58.479  1.00  0.00     0.030 A 
BRANCH  18  21
HETATM   21  C   UNL     1     -41.606  61.883 -61.897  1.00  0.00     0.147 C 
HETATM   22  C   UNL     1     -42.314  61.580 -63.212  1.00  0.00     0.044 C 
BRANCH  21  23
HETATM   23  O   UNL     1     -40.216  62.061 -62.156  1.00  0.00    -0.391 OA
HETATM   24  H   UNL     1     -40.138  62.725 -62.859  1.00  0.00     0.210 HD
ENDBRANCH  21  23
ENDBRANCH  18  21
ENDBRANCH  12  15
ENDBRANCH   7  11
BRANCH   1  25
HETATM   25  C   UNL     1     -43.896  58.211 -51.711  1.00  0.00    -0.035 A 
HETATM   26  C   UNL     1     -42.789  59.059 -51.530  1.00  0.00     0.010 A 
HETATM   27  C   UNL     1     -42.897  60.242 -50.794  1.00  0.00     0.007 A 
HETATM   28  C   UNL     1     -44.113  60.600 -50.208  1.00  0.00    -0.062 A 
HETATM   29  C   UNL     1     -44.256  61.901 -49.473  1.00  0.00     0.048 C 
HETATM   30  C   UNL     1     -45.219  59.761 -50.377  1.00  0.00     0.007 A 
HETATM   31  C   UNL     1     -45.110  58.575 -51.112  1.00  0.00     0.010 A 
ENDBRANCH   1  25
BRANCH   8  32
HETATM   32  C   UNL     1     -41.472  53.874 -52.748  1.00  0.00     0.409 C 
HETATM   33  F   UNL     1     -41.267  53.614 -51.443  1.00  0.00    -0.169 F 
HETATM   34  F   UNL     1     -41.493  52.703 -53.423  1.00  0.00    -0.169 F 
HETATM   35  F   UNL     1     -40.365  54.544 -53.176  1.00  0.00    -0.169 F 
ENDBRANCH   8  32
TORSDOF 6
ENDMDL
MODEL 10
REMARK VINA RESULT:      -7.6      2.183      2.610
REMARK  6 active torsions:
REMARK  status: ('A' for Active; 'I' for Inactive)
REMARK    1  A    between atoms: C_5  and  C_6 
REMARK    2  A    between atoms: C_12  and  C_13 
REMARK       I    between atoms: C_13  and  N_14 
REMARK    3  A    between atoms: N_14  and  C_15 
REMARK    4  A    between atoms: C_18  and  C_19 
REMARK    5  A    between atoms: C_19  and  O_20 
REMARK    6  A    between atoms: C_25  and  C_26 
ROOT
HETATM    1  C   UNL     1     -40.656  56.444 -53.515  1.00  0.00     0.118 C 
HETATM    2  N   UNL     1     -41.556  57.031 -54.523  1.00  0.00    -0.365 N 
HETATM    3  C   UNL     1     -41.795  58.373 -54.446  1.00  0.00     0.138 A 
HETATM    4  N   UNL     1     -41.515  59.074 -53.293  1.00  0.00    -0.240 N 
HETATM    5  N   UNL     1     -41.730  60.391 -53.397  1.00  0.00    -0.181 NA
HETATM    6  C   UNL     1     -42.264  60.521 -54.614  1.00  0.00     0.160 A 
HETATM    7  C   UNL     1     -42.330  59.297 -55.326  1.00  0.00     0.096 A 
HETATM    8  C   UNL     1     -40.972  58.489 -52.080  1.00  0.00     0.221 C 
HETATM    9  C   UNL     1     -41.077  56.953 -52.132  1.00  0.00     0.066 C 
HETATM   10  H   UNL     1     -42.360  56.426 -54.715  1.00  0.00     0.161 HD
ENDROOT
BRANCH   7  11
HETATM   11  C   UNL     1     -42.823  59.141 -56.686  1.00  0.00     0.261 C 
HETATM   12  N   UNL     1     -42.709  60.277 -57.464  1.00  0.00    -0.323 N 
HETATM   13  H   UNL     1     -42.341  61.093 -56.987  1.00  0.00     0.169 HD
HETATM   14  O   UNL     1     -43.292  58.067 -57.047  1.00  0.00    -0.267 OA
BRANCH  12  15
HETATM   15  C   UNL     1     -43.062  60.433 -58.820  1.00  0.00     0.035 A 
HETATM   16  C   UNL     1     -44.296  60.915 -59.252  1.00  0.00     0.030 A 
HETATM   17  C   UNL     1     -44.578  61.031 -60.618  1.00  0.00     0.012 A 
HETATM   18  C   UNL     1     -43.638  60.655 -61.591  1.00  0.00    -0.030 A 
HETATM   19  C   UNL     1     -42.394  60.189 -61.150  1.00  0.00     0.012 A 
HETATM   20  C   UNL     1     -42.110  60.080 -59.781  1.00  0.00     0.030 A 
BRANCH  18  21
HETATM   21  C   UNL     1     -44.012  60.800 -63.050  1.00  0.00     0.147 C 
HETATM   22  C   UNL     1     -42.954  61.415 -63.960  1.00  0.00     0.044 C 
BRANCH  21  23
HETATM   23  O   UNL     1     -45.194  61.594 -63.119  1.00  0.00    -0.391 OA
HETATM   24  H   UNL     1     -44.947  62.499 -62.867  1.00  0.00     0.210 HD
ENDBRANCH  21  23
ENDBRANCH  18  21
ENDBRANCH  12  15
ENDBRANCH   7  11
BRANCH   1  25
HETATM   25  C   UNL     1     -40.609  54.937 -53.690  1.00  0.00    -0.035 A 
HETATM   26  C   UNL     1     -40.349  54.419 -54.972  1.00  0.00     0.010 A 
HETATM   27  C   UNL     1     -40.236  53.043 -55.186  1.00  0.00     0.007 A 
HETATM   28  C   UNL     1     -40.394  52.147 -54.125  1.00  0.00    -0.062 A 
HETATM   29  C   UNL     1     -40.209  50.673 -54.333  1.00  0.00     0.048 C 
HETATM   30  C   UNL     1     -40.658  52.652 -52.849  1.00  0.00     0.007 A 
HETATM   31  C   UNL     1     -40.774  54.030 -52.635  1.00  0.00     0.010 A 
ENDBRANCH   1  25
BRANCH   8  32
HETATM   32  C   UNL     1     -41.678  58.997 -50.838  1.00  0.00     0.409 C 
HETATM   33  F   UNL     1     -41.320  60.245 -50.480  1.00  0.00    -0.169 F 
HETATM   34  F   UNL     1     -43.023  58.952 -50.958  1.00  0.00    -0.169 F 
HETATM   35  F   UNL     1     -41.360  58.197 -49.782  1.00  0.00    -0.169 F 
ENDBRANCH   8  32
TORSDOF 6
ENDMDL
