MODEL 1
REMARK VINA RESULT:      -8.0      0.000      0.000
REMARK  6 active torsions:
REMARK  status: ('A' for Active; 'I' for Inactive)
REMARK    1  A    between atoms: O_2  and  C_3 
REMARK    2  A    between atoms: C_4  and  O_5 
REMARK    3  A    between atoms: O_5  and  C_6 
REMARK    4  A    between atoms: C_11  and  C_12 
REMARK    5  A    between atoms: C_12  and  N_13 
REMARK       I    between atoms: N_13  and  C_14 
REMARK    6  A    between atoms: C_14  and  C_15 
ROOT
HETATM    1  N   UNL     1     -42.707  55.816 -55.290  1.00  0.00    -0.353 N 
HETATM    2  C   UNL     1     -42.765  56.930 -56.098  1.00  0.00     0.252 C 
HETATM    3  O   UNL     1     -42.234  57.996 -55.805  1.00  0.00    -0.268 OA
HETATM    4  H   UNL     1     -43.338  55.044 -55.459  1.00  0.00     0.163 HD
ENDROOT
BRANCH   1   5
HETATM    5  C   UNL     1     -42.067  55.881 -53.998  1.00  0.00     0.161 C 
BRANCH   5   6
HETATM    6  C   UNL     1     -41.351  54.591 -53.700  1.00  0.00    -0.038 A 
HETATM    7  C   UNL     1     -40.835  53.807 -54.741  1.00  0.00     0.012 A 
HETATM    8  C   UNL     1     -40.131  52.638 -54.458  1.00  0.00     0.040 A 
HETATM    9  C   UNL     1     -39.948  52.239 -53.132  1.00  0.00     0.108 A 
HETATM   10  C   UNL     1     -40.430  53.024 -52.075  1.00  0.00     0.102 A 
HETATM   11  C   UNL     1     -41.136  54.194 -52.368  1.00  0.00     0.048 A 
BRANCH   9  12
HETATM   12  O   UNL     1     -39.213  51.118 -52.839  1.00  0.00    -0.287 OA
BRANCH  12  13
HETATM   13  C   UNL     1     -39.791  49.963 -53.427  1.00  0.00     0.505 C 
HETATM   14  F   UNL     1     -39.014  49.572 -54.471  1.00  0.00    -0.184 F 
HETATM   15  F   UNL     1     -39.732  48.963 -52.512  1.00  0.00    -0.184 F 
ENDBRANCH  12  13
ENDBRANCH   9  12
BRANCH  10  16
HETATM   16  O   UNL     1     -40.190  52.550 -50.812  1.00  0.00    -0.353 OA
HETATM   17  C   UNL     1     -40.294  53.483 -49.742  1.00  0.00     0.210 C 
ENDBRANCH  10  16
ENDBRANCH   5   6
ENDBRANCH   1   5
BRANCH   2  18
HETATM   18  C   UNL     1     -43.554  56.804 -57.358  1.00  0.00     0.034 A 
HETATM   19  C   UNL     1     -43.351  55.739 -58.250  1.00  0.00     0.051 A 
HETATM   20  C   UNL     1     -44.136  55.682 -59.410  1.00  0.00     0.085 A 
HETATM   21  C   UNL     1     -45.074  56.679 -59.657  1.00  0.00     0.062 A 
HETATM   22  N   UNL     1     -44.136  54.750 -60.418  1.00  0.00    -0.242 NA
HETATM   23  N   UNL     1     -45.643  56.317 -60.852  1.00  0.00    -0.349 N 
HETATM   24  C   UNL     1     -45.287  57.760 -58.802  1.00  0.00     0.033 A 
HETATM   25  H   UNL     1     -46.370  56.820 -61.340  1.00  0.00     0.167 HD
HETATM   26  C   UNL     1     -45.051  55.157 -61.267  1.00  0.00     0.208 A 
HETATM   27  C   UNL     1     -44.501  57.802 -57.644  1.00  0.00     0.019 A 
ENDBRANCH   2  18
TORSDOF 6
ENDMDL
MODEL 2
REMARK VINA RESULT:      -7.7      4.209      8.551
REMARK  6 active torsions:
REMARK  status: ('A' for Active; 'I' for Inactive)
REMARK    1  A    between atoms: O_2  and  C_3 
REMARK    2  A    between atoms: C_4  and  O_5 
REMARK    3  A    between atoms: O_5  and  C_6 
REMARK    4  A    between atoms: C_11  and  C_12 
REMARK    5  A    between atoms: C_12  and  N_13 
REMARK       I    between atoms: N_13  and  C_14 
REMARK    6  A    between atoms: C_14  and  C_15 
ROOT
HETATM    1  N   UNL     1     -41.850  55.536 -55.025  1.00  0.00    -0.353 N 
HETATM    2  C   UNL     1     -41.213  55.470 -53.805  1.00  0.00     0.252 C 
HETATM    3  O   UNL     1     -40.990  56.458 -53.114  1.00  0.00    -0.268 OA
HETATM    4  H   UNL     1     -41.809  54.744 -55.652  1.00  0.00     0.163 HD
ENDROOT
BRANCH   1   5
HETATM    5  C   UNL     1     -42.221  56.812 -55.589  1.00  0.00     0.161 C 
BRANCH   5   6
HETATM    6  C   UNL     1     -42.657  56.647 -57.020  1.00  0.00    -0.038 A 
HETATM    7  C   UNL     1     -43.081  55.399 -57.495  1.00  0.00     0.012 A 
HETATM    8  C   UNL     1     -43.530  55.261 -58.807  1.00  0.00     0.040 A 
HETATM    9  C   UNL     1     -43.548  56.369 -59.657  1.00  0.00     0.108 A 
HETATM   10  C   UNL     1     -43.156  57.634 -59.193  1.00  0.00     0.102 A 
HETATM   11  C   UNL     1     -42.706  57.762 -57.876  1.00  0.00     0.048 A 
BRANCH   9  12
HETATM   12  O   UNL     1     -44.035  56.258 -60.935  1.00  0.00    -0.287 OA
BRANCH  12  13
HETATM   13  C   UNL     1     -45.033  55.253 -61.012  1.00  0.00     0.505 C 
HETATM   14  F   UNL     1     -46.252  55.852 -61.056  1.00  0.00    -0.184 F 
HETATM   15  F   UNL     1     -44.880  54.614 -62.200  1.00  0.00    -0.184 F 
ENDBRANCH  12  13
ENDBRANCH   9  12
BRANCH  10  16
HETATM   16  O   UNL     1     -43.219  58.657 -60.102  1.00  0.00    -0.353 OA
HETATM   17  C   UNL     1     -42.000  59.037 -60.731  1.00  0.00     0.210 C 
ENDBRANCH  10  16
ENDBRANCH   5   6
ENDBRANCH   1   5
BRANCH   2  18
HETATM   18  C   UNL     1     -40.756  54.122 -53.360  1.00  0.00     0.034 A 
HETATM   19  C   UNL     1     -40.645  53.048 -54.257  1.00  0.00     0.051 A 
HETATM   20  C   UNL     1     -40.200  51.812 -53.767  1.00  0.00     0.085 A 
HETATM   21  C   UNL     1     -39.897  51.675 -52.417  1.00  0.00     0.062 A 
HETATM   22  N   UNL     1     -40.001  50.630 -54.436  1.00  0.00    -0.242 NA
HETATM   23  N   UNL     1     -39.507  50.366 -52.291  1.00  0.00    -0.349 N 
HETATM   24  C   UNL     1     -40.014  52.715 -51.495  1.00  0.00     0.033 A 
HETATM   25  H   UNL     1     -39.217  49.912 -51.437  1.00  0.00     0.167 HD
HETATM   26  C   UNL     1     -39.584  49.782 -53.524  1.00  0.00     0.208 A 
HETATM   27  C   UNL     1     -40.454  53.946 -51.999  1.00  0.00     0.019 A 
ENDBRANCH   2  18
TORSDOF 6
ENDMDL
MODEL 3
REMARK VINA RESULT:      -7.4      4.175      5.380
REMARK  6 active torsions:
REMARK  status: ('A' for Active; 'I' for Inactive)
REMARK    1  A    between atoms: O_2  and  C_3 
REMARK    2  A    between atoms: C_4  and  O_5 
REMARK    3  A    between atoms: O_5  and  C_6 
REMARK    4  A    between atoms: C_11  and  C_12 
REMARK    5  A    between atoms: C_12  and  N_13 
REMARK       I    between atoms: N_13  and  C_14 
REMARK    6  A    between atoms: C_14  and  C_15 
ROOT
HETATM    1  N   UNL     1     -42.979  55.494 -50.981  1.00  0.00    -0.353 N 
HETATM    2  C   UNL     1     -42.597  56.813 -51.086  1.00  0.00     0.252 C 
HETATM    3  O   UNL     1     -41.576  57.255 -50.573  1.00  0.00    -0.268 OA
HETATM    4  H   UNL     1     -43.924  55.227 -51.221  1.00  0.00     0.163 HD
ENDROOT
BRANCH   1   5
HETATM    5  C   UNL     1     -42.211  54.571 -50.179  1.00  0.00     0.161 C 
BRANCH   5   6
HETATM    6  C   UNL     1     -41.361  53.693 -51.057  1.00  0.00    -0.038 A 
HETATM    7  C   UNL     1     -40.578  52.674 -50.498  1.00  0.00     0.012 A 
HETATM    8  C   UNL     1     -39.830  51.832 -51.319  1.00  0.00     0.040 A 
HETATM    9  C   UNL     1     -39.852  52.010 -52.704  1.00  0.00     0.108 A 
HETATM   10  C   UNL     1     -40.652  53.004 -53.286  1.00  0.00     0.102 A 
HETATM   11  C   UNL     1     -41.398  53.845 -52.455  1.00  0.00     0.048 A 
BRANCH   9  12
HETATM   12  O   UNL     1     -39.160  51.156 -53.526  1.00  0.00    -0.287 OA
BRANCH  12  13
HETATM   13  C   UNL     1     -39.851  49.926 -53.677  1.00  0.00     0.505 C 
HETATM   14  F   UNL     1     -39.734  49.518 -54.968  1.00  0.00    -0.184 F 
HETATM   15  F   UNL     1     -39.208  48.999 -52.924  1.00  0.00    -0.184 F 
ENDBRANCH  12  13
ENDBRANCH   9  12
BRANCH  10  16
HETATM   16  O   UNL     1     -40.610  53.090 -54.653  1.00  0.00    -0.353 OA
HETATM   17  C   UNL     1     -40.157  54.320 -55.207  1.00  0.00     0.210 C 
ENDBRANCH  10  16
ENDBRANCH   5   6
ENDBRANCH   1   5
BRANCH   2  18
HETATM   18  C   UNL     1     -43.517  57.720 -51.832  1.00  0.00     0.034 A 
HETATM   19  C   UNL     1     -44.036  58.886 -51.247  1.00  0.00     0.051 A 
HETATM   20  C   UNL     1     -44.888  59.695 -52.013  1.00  0.00     0.085 A 
HETATM   21  C   UNL     1     -45.209  59.319 -53.313  1.00  0.00     0.062 A 
HETATM   22  N   UNL     1     -45.507  60.873 -51.676  1.00  0.00    -0.242 NA
HETATM   23  N   UNL     1     -46.046  60.313 -53.753  1.00  0.00    -0.349 N 
HETATM   24  C   UNL     1     -44.727  58.158 -53.917  1.00  0.00     0.033 A 
HETATM   25  H   UNL     1     -46.480  60.365 -54.664  1.00  0.00     0.167 HD
HETATM   26  C   UNL     1     -46.193  61.219 -52.741  1.00  0.00     0.208 A 
HETATM   27  C   UNL     1     -43.872  57.363 -53.144  1.00  0.00     0.019 A 
ENDBRANCH   2  18
TORSDOF 6
ENDMDL
MODEL 4
REMARK VINA RESULT:      -7.3      3.989      5.895
REMARK  6 active torsions:
REMARK  status: ('A' for Active; 'I' for Inactive)
REMARK    1  A    between atoms: O_2  and  C_3 
REMARK    2  A    between atoms: C_4  and  O_5 
REMARK    3  A    between atoms: O_5  and  C_6 
REMARK    4  A    between atoms: C_11  and  C_12 
REMARK    5  A    between atoms: C_12  and  N_13 
REMARK       I    between atoms: N_13  and  C_14 
REMARK    6  A    between atoms: C_14  and  C_15 
ROOT
HETATM    1  N   UNL     1     -41.852  56.211 -53.565  1.00  0.00    -0.353 N 
HETATM    2  C   UNL     1     -43.192  56.530 -53.530  1.00  0.00     0.252 C 
HETATM    3  O   UNL     1     -44.045  55.897 -54.143  1.00  0.00    -0.268 OA
HETATM    4  H   UNL     1     -41.172  56.882 -53.238  1.00  0.00     0.163 HD
ENDROOT
BRANCH   1   5
HETATM    5  C   UNL     1     -41.377  55.138 -54.406  1.00  0.00     0.161 C 
BRANCH   5   6
HETATM    6  C   UNL     1     -40.774  54.042 -53.569  1.00  0.00    -0.038 A 
HETATM    7  C   UNL     1     -40.770  54.136 -52.171  1.00  0.00     0.012 A 
HETATM    8  C   UNL     1     -40.254  53.097 -51.398  1.00  0.00     0.040 A 
HETATM    9  C   UNL     1     -39.729  51.962 -52.019  1.00  0.00     0.108 A 
HETATM   10  C   UNL     1     -39.751  51.835 -53.416  1.00  0.00     0.102 A 
HETATM   11  C   UNL     1     -40.269  52.882 -54.183  1.00  0.00     0.048 A 
BRANCH   9  12
HETATM   12  O   UNL     1     -39.266  50.910 -51.269  1.00  0.00    -0.287 OA
BRANCH  12  13
HETATM   13  C   UNL     1     -40.339  50.199 -50.674  1.00  0.00     0.505 C 
HETATM   14  F   UNL     1     -40.093  48.867 -50.788  1.00  0.00    -0.184 F 
HETATM   15  F   UNL     1     -40.328  50.476 -49.345  1.00  0.00    -0.184 F 
ENDBRANCH  12  13
ENDBRANCH   9  12
BRANCH  10  16
HETATM   16  O   UNL     1     -39.220  50.679 -53.925  1.00  0.00    -0.353 OA
HETATM   17  C   UNL     1     -40.101  49.832 -54.656  1.00  0.00     0.210 C 
ENDBRANCH  10  16
ENDBRANCH   5   6
ENDBRANCH   1   5
BRANCH   2  18
HETATM   18  C   UNL     1     -43.575  57.730 -52.732  1.00  0.00     0.034 A 
HETATM   19  C   UNL     1     -44.595  57.679 -51.769  1.00  0.00     0.051 A 
HETATM   20  C   UNL     1     -44.894  58.846 -51.050  1.00  0.00     0.085 A 
HETATM   21  C   UNL     1     -44.194  60.017 -51.317  1.00  0.00     0.062 A 
HETATM   22  N   UNL     1     -45.827  59.047 -50.064  1.00  0.00    -0.242 NA
HETATM   23  N   UNL     1     -44.736  60.937 -50.456  1.00  0.00    -0.349 N 
HETATM   24  C   UNL     1     -43.189  60.107 -52.280  1.00  0.00     0.033 A 
HETATM   25  H   UNL     1     -44.466  61.907 -50.376  1.00  0.00     0.167 HD
HETATM   26  C   UNL     1     -45.707  60.310 -49.726  1.00  0.00     0.208 A 
HETATM   27  C   UNL     1     -42.896  58.933 -52.986  1.00  0.00     0.019 A 
ENDBRANCH   2  18
TORSDOF 6
ENDMDL
MODEL 5
REMARK VINA RESULT:      -7.3      4.821      8.291
REMARK  6 active torsions:
REMARK  status: ('A' for Active; 'I' for Inactive)
REMARK    1  A    between atoms: O_2  and  C_3 
REMARK    2  A    between atoms: C_4  and  O_5 
REMARK    3  A    between atoms: O_5  and  C_6 
REMARK    4  A    between atoms: C_11  and  C_12 
REMARK    5  A    between atoms: C_12  and  N_13 
REMARK       I    between atoms: N_13  and  C_14 
REMARK    6  A    between atoms: C_14  and  C_15 
ROOT
HETATM    1  N   UNL     1     -41.816  54.465 -54.083  1.00  0.00    -0.353 N 
HETATM    2  C   UNL     1     -40.586  53.924 -54.389  1.00  0.00     0.252 C 
HETATM    3  O   UNL     1     -39.783  54.473 -55.134  1.00  0.00    -0.268 OA
HETATM    4  H   UNL     1     -42.524  53.884 -53.656  1.00  0.00     0.163 HD
ENDROOT
BRANCH   1   5
HETATM    5  C   UNL     1     -42.250  55.694 -54.703  1.00  0.00     0.161 C 
BRANCH   5   6
HETATM    6  C   UNL     1     -42.068  56.852 -53.758  1.00  0.00    -0.038 A 
HETATM    7  C   UNL     1     -40.855  57.551 -53.714  1.00  0.00     0.012 A 
HETATM    8  C   UNL     1     -40.707  58.652 -52.873  1.00  0.00     0.040 A 
HETATM    9  C   UNL     1     -41.770  59.056 -52.063  1.00  0.00     0.108 A 
HETATM   10  C   UNL     1     -43.004  58.390 -52.114  1.00  0.00     0.102 A 
HETATM   11  C   UNL     1     -43.142  57.286 -52.959  1.00  0.00     0.048 A 
BRANCH   9  12
HETATM   12  O   UNL     1     -41.655  60.170 -51.269  1.00  0.00    -0.287 OA
BRANCH  12  13
HETATM   13  C   UNL     1     -40.931  59.876 -50.084  1.00  0.00     0.505 C 
HETATM   14  F   UNL     1     -41.000  58.539 -49.853  1.00  0.00    -0.184 F 
HETATM   15  F   UNL     1     -39.625  60.155 -50.323  1.00  0.00    -0.184 F 
ENDBRANCH  12  13
ENDBRANCH   9  12
BRANCH  10  16
HETATM   16  O   UNL     1     -43.984  58.871 -51.286  1.00  0.00    -0.353 OA
HETATM   17  C   UNL     1     -45.201  59.282 -51.900  1.00  0.00     0.210 C 
ENDBRANCH  10  16
ENDBRANCH   5   6
ENDBRANCH   1   5
BRANCH   2  18
HETATM   18  C   UNL     1     -40.274  52.591 -53.798  1.00  0.00     0.034 A 
HETATM   19  C   UNL     1     -40.149  52.412 -52.411  1.00  0.00     0.051 A 
HETATM   20  C   UNL     1     -39.863  51.127 -51.927  1.00  0.00     0.085 A 
HETATM   21  C   UNL     1     -39.696  50.076 -52.822  1.00  0.00     0.062 A 
HETATM   22  N   UNL     1     -39.704  50.698 -50.633  1.00  0.00    -0.242 NA
HETATM   23  N   UNL     1     -39.429  48.992 -52.023  1.00  0.00    -0.349 N 
HETATM   24  C   UNL     1     -39.795  50.223 -54.206  1.00  0.00     0.033 A 
HETATM   25  H   UNL     1     -39.250  48.050 -52.340  1.00  0.00     0.167 HD
HETATM   26  C   UNL     1     -39.446  49.413 -50.723  1.00  0.00     0.208 A 
HETATM   27  C   UNL     1     -40.087  51.510 -54.675  1.00  0.00     0.019 A 
ENDBRANCH   2  18
TORSDOF 6
ENDMDL
MODEL 6
REMARK VINA RESULT:      -7.2      4.637      8.728
REMARK  6 active torsions:
REMARK  status: ('A' for Active; 'I' for Inactive)
REMARK    1  A    between atoms: O_2  and  C_3 
REMARK    2  A    between atoms: C_4  and  O_5 
REMARK    3  A    between atoms: O_5  and  C_6 
REMARK    4  A    between atoms: C_11  and  C_12 
REMARK    5  A    between atoms: C_12  and  N_13 
REMARK       I    between atoms: N_13  and  C_14 
REMARK    6  A    between atoms: C_14  and  C_15 
ROOT
HETATM    1  N   UNL     1     -42.852  55.720 -54.618  1.00  0.00    -0.353 N 
HETATM    2  C   UNL     1     -41.757  55.702 -53.781  1.00  0.00     0.252 C 
HETATM    3  O   UNL     1     -41.276  56.716 -53.289  1.00  0.00    -0.268 OA
HETATM    4  H   UNL     1     -43.070  54.903 -55.172  1.00  0.00     0.163 HD
ENDROOT
BRANCH   1   5
HETATM    5  C   UNL     1     -43.444  56.974 -55.021  1.00  0.00     0.161 C 
BRANCH   5   6
HETATM    6  C   UNL     1     -43.044  57.315 -56.432  1.00  0.00    -0.038 A 
HETATM    7  C   UNL     1     -42.439  58.545 -56.722  1.00  0.00     0.012 A 
HETATM    8  C   UNL     1     -42.026  58.836 -58.021  1.00  0.00     0.040 A 
HETATM    9  C   UNL     1     -42.225  57.903 -59.040  1.00  0.00     0.108 A 
HETATM   10  C   UNL     1     -42.800  56.653 -58.766  1.00  0.00     0.102 A 
HETATM   11  C   UNL     1     -43.212  56.370 -57.461  1.00  0.00     0.048 A 
BRANCH   9  12
HETATM   12  O   UNL     1     -41.777  58.157 -60.312  1.00  0.00    -0.287 OA
BRANCH  12  13
HETATM   13  C   UNL     1     -42.240  59.416 -60.772  1.00  0.00     0.505 C 
HETATM   14  F   UNL     1     -41.465  59.810 -61.817  1.00  0.00    -0.184 F 
HETATM   15  F   UNL     1     -43.490  59.236 -61.271  1.00  0.00    -0.184 F 
ENDBRANCH  12  13
ENDBRANCH   9  12
BRANCH  10  16
HETATM   16  O   UNL     1     -42.942  55.806 -59.833  1.00  0.00    -0.353 OA
HETATM   17  C   UNL     1     -44.270  55.528 -60.262  1.00  0.00     0.210 C 
ENDBRANCH  10  16
ENDBRANCH   5   6
ENDBRANCH   1   5
BRANCH   2  18
HETATM   18  C   UNL     1     -41.136  54.371 -53.520  1.00  0.00     0.034 A 
HETATM   19  C   UNL     1     -40.913  53.907 -52.214  1.00  0.00     0.051 A 
HETATM   20  C   UNL     1     -40.332  52.642 -52.045  1.00  0.00     0.085 A 
HETATM   21  C   UNL     1     -39.979  51.891 -53.162  1.00  0.00     0.062 A 
HETATM   22  N   UNL     1     -40.025  51.970 -50.888  1.00  0.00    -0.242 NA
HETATM   23  N   UNL     1     -39.448  50.739 -52.640  1.00  0.00    -0.349 N 
HETATM   24  C   UNL     1     -40.170  52.330 -54.472  1.00  0.00     0.033 A 
HETATM   25  H   UNL     1     -39.082  49.961 -53.169  1.00  0.00     0.167 HD
HETATM   26  C   UNL     1     -39.498  50.832 -51.277  1.00  0.00     0.208 A 
HETATM   27  C   UNL     1     -40.756  53.593 -54.626  1.00  0.00     0.019 A 
ENDBRANCH   2  18
TORSDOF 6
ENDMDL
MODEL 7
REMARK VINA RESULT:      -7.2     14.403     15.590
REMARK  6 active torsions:
REMARK  status: ('A' for Active; 'I' for Inactive)
REMARK    1  A    between atoms: O_2  and  C_3 
REMARK    2  A    between atoms: C_4  and  O_5 
REMARK    3  A    between atoms: O_5  and  C_6 
REMARK    4  A    between atoms: C_11  and  C_12 
REMARK    5  A    between atoms: C_12  and  N_13 
REMARK       I    between atoms: N_13  and  C_14 
REMARK    6  A    between atoms: C_14  and  C_15 
ROOT
HETATM    1  N   UNL     1     -35.934  41.104 -58.051  1.00  0.00    -0.353 N 
HETATM    2  C   UNL     1     -36.893  41.422 -58.988  1.00  0.00     0.252 C 
HETATM    3  O   UNL     1     -37.242  42.573 -59.221  1.00  0.00    -0.268 OA
HETATM    4  H   UNL     1     -35.842  40.148 -57.735  1.00  0.00     0.163 HD
ENDROOT
BRANCH   1   5
HETATM    5  C   UNL     1     -35.342  42.134 -57.231  1.00  0.00     0.161 C 
BRANCH   5   6
HETATM    6  C   UNL     1     -35.233  41.671 -55.803  1.00  0.00    -0.038 A 
HETATM    7  C   UNL     1     -34.084  41.006 -55.357  1.00  0.00     0.012 A 
HETATM    8  C   UNL     1     -33.967  40.622 -54.022  1.00  0.00     0.040 A 
HETATM    9  C   UNL     1     -35.004  40.893 -53.126  1.00  0.00     0.108 A 
HETATM   10  C   UNL     1     -36.149  41.586 -53.545  1.00  0.00     0.102 A 
HETATM   11  C   UNL     1     -36.259  41.965 -54.886  1.00  0.00     0.048 A 
BRANCH   9  12
HETATM   12  O   UNL     1     -34.880  40.566 -51.799  1.00  0.00    -0.287 OA
BRANCH  12  13
HETATM   13  C   UNL     1     -33.871  41.346 -51.176  1.00  0.00     0.505 C 
HETATM   14  F   UNL     1     -34.370  42.586 -50.932  1.00  0.00    -0.184 F 
HETATM   15  F   UNL     1     -33.615  40.792 -49.964  1.00  0.00    -0.184 F 
ENDBRANCH  12  13
ENDBRANCH   9  12
BRANCH  10  16
HETATM   16  O   UNL     1     -37.103  41.810 -52.587  1.00  0.00    -0.353 OA
HETATM   17  C   UNL     1     -38.302  41.048 -52.682  1.00  0.00     0.210 C 
ENDBRANCH  10  16
ENDBRANCH   5   6
ENDBRANCH   1   5
BRANCH   2  18
HETATM   18  C   UNL     1     -37.538  40.281 -59.700  1.00  0.00     0.034 A 
HETATM   19  C   UNL     1     -37.277  40.015 -61.053  1.00  0.00     0.051 A 
HETATM   20  C   UNL     1     -37.914  38.920 -61.654  1.00  0.00     0.085 A 
HETATM   21  C   UNL     1     -38.793  38.141 -60.908  1.00  0.00     0.062 A 
HETATM   22  N   UNL     1     -37.818  38.454 -62.941  1.00  0.00    -0.242 NA
HETATM   23  N   UNL     1     -39.226  37.184 -61.791  1.00  0.00    -0.349 N 
HETATM   24  C   UNL     1     -39.089  38.389 -59.568  1.00  0.00     0.033 A 
HETATM   25  H   UNL     1     -39.883  36.444 -61.590  1.00  0.00     0.167 HD
HETATM   26  C   UNL     1     -38.615  37.411 -62.992  1.00  0.00     0.208 A 
HETATM   27  C   UNL     1     -38.441  39.482 -58.979  1.00  0.00     0.019 A 
ENDBRANCH   2  18
TORSDOF 6
ENDMDL
MODEL 8
REMARK VINA RESULT:      -7.0     14.380     15.660
REMARK  6 active torsions:
REMARK  status: ('A' for Active; 'I' for Inactive)
REMARK    1  A    between atoms: O_2  and  C_3 
REMARK    2  A    between atoms: C_4  and  O_5 
REMARK    3  A    between atoms: O_5  and  C_6 
REMARK    4  A    between atoms: C_11  and  C_12 
REMARK    5  A    between atoms: C_12  and  N_13 
REMARK       I    between atoms: N_13  and  C_14 
REMARK    6  A    between atoms: C_14  and  C_15 
ROOT
HETATM    1  N   UNL     1     -36.955  41.507 -55.017  1.00  0.00    -0.353 N 
HETATM    2  C   UNL     1     -38.075  41.301 -55.792  1.00  0.00     0.252 C 
HETATM    3  O   UNL     1     -39.213  41.305 -55.336  1.00  0.00    -0.268 OA
HETATM    4  H   UNL     1     -36.044  41.272 -55.385  1.00  0.00     0.163 HD
ENDROOT
BRANCH   1   5
HETATM    5  C   UNL     1     -37.074  41.663 -53.587  1.00  0.00     0.161 C 
BRANCH   5   6
HETATM    6  C   UNL     1     -35.763  41.355 -52.914  1.00  0.00    -0.038 A 
HETATM    7  C   UNL     1     -35.615  41.529 -51.532  1.00  0.00     0.012 A 
HETATM    8  C   UNL     1     -34.414  41.196 -50.906  1.00  0.00     0.040 A 
HETATM    9  C   UNL     1     -33.351  40.697 -51.660  1.00  0.00     0.108 A 
HETATM   10  C   UNL     1     -33.488  40.487 -53.040  1.00  0.00     0.102 A 
HETATM   11  C   UNL     1     -34.694  40.824 -53.660  1.00  0.00     0.048 A 
BRANCH   9  12
HETATM   12  O   UNL     1     -32.182  40.318 -51.049  1.00  0.00    -0.287 OA
BRANCH  12  13
HETATM   13  C   UNL     1     -32.442  39.672 -49.813  1.00  0.00     0.505 C 
HETATM   14  F   UNL     1     -31.730  38.515 -49.769  1.00  0.00    -0.184 F 
HETATM   15  F   UNL     1     -31.947  40.461 -48.826  1.00  0.00    -0.184 F 
ENDBRANCH  12  13
ENDBRANCH   9  12
BRANCH  10  16
HETATM   16  O   UNL     1     -32.389  39.985 -53.687  1.00  0.00    -0.353 OA
HETATM   17  C   UNL     1     -32.395  40.046 -55.109  1.00  0.00     0.210 C 
ENDBRANCH  10  16
ENDBRANCH   5   6
ENDBRANCH   1   5
BRANCH   2  18
HETATM   18  C   UNL     1     -37.847  41.025 -57.240  1.00  0.00     0.034 A 
HETATM   19  C   UNL     1     -38.199  39.796 -57.820  1.00  0.00     0.051 A 
HETATM   20  C   UNL     1     -37.962  39.612 -59.190  1.00  0.00     0.085 A 
HETATM   21  C   UNL     1     -37.376  40.632 -59.930  1.00  0.00     0.062 A 
HETATM   22  N   UNL     1     -38.223  38.520 -59.980  1.00  0.00    -0.242 NA
HETATM   23  N   UNL     1     -37.290  40.120 -61.200  1.00  0.00    -0.349 N 
HETATM   24  C   UNL     1     -36.997  41.858 -59.382  1.00  0.00     0.033 A 
HETATM   25  H   UNL     1     -36.909  40.593 -62.007  1.00  0.00     0.167 HD
HETATM   26  C   UNL     1     -37.810  38.856 -61.181  1.00  0.00     0.208 A 
HETATM   27  C   UNL     1     -37.245  42.031 -58.014  1.00  0.00     0.019 A 
ENDBRANCH   2  18
TORSDOF 6
ENDMDL
MODEL 9
REMARK VINA RESULT:      -6.9      4.541      8.538
REMARK  6 active torsions:
REMARK  status: ('A' for Active; 'I' for Inactive)
REMARK    1  A    between atoms: O_2  and  C_3 
REMARK    2  A    between atoms: C_4  and  O_5 
REMARK    3  A    between atoms: O_5  and  C_6 
REMARK    4  A    between atoms: C_11  and  C_12 
REMARK    5  A    between atoms: C_12  and  N_13 
REMARK       I    between atoms: N_13  and  C_14 
REMARK    6  A    between atoms: C_14  and  C_15 
ROOT
HETATM    1  N   UNL     1     -41.643  56.452 -54.289  1.00  0.00    -0.353 N 
HETATM    2  C   UNL     1     -42.232  55.563 -53.417  1.00  0.00     0.252 C 
HETATM    3  O   UNL     1     -43.321  55.766 -52.891  1.00  0.00    -0.268 OA
HETATM    4  H   UNL     1     -40.663  56.353 -54.515  1.00  0.00     0.163 HD
ENDROOT
BRANCH   1   5
HETATM    5  C   UNL     1     -42.265  57.725 -54.568  1.00  0.00     0.161 C 
BRANCH   5   6
HETATM    6  C   UNL     1     -43.098  57.639 -55.818  1.00  0.00    -0.038 A 
HETATM    7  C   UNL     1     -44.438  58.049 -55.809  1.00  0.00     0.012 A 
HETATM    8  C   UNL     1     -45.192  58.014 -56.981  1.00  0.00     0.040 A 
HETATM    9  C   UNL     1     -44.613  57.559 -58.168  1.00  0.00     0.108 A 
HETATM   10  C   UNL     1     -43.265  57.174 -58.206  1.00  0.00     0.102 A 
HETATM   11  C   UNL     1     -42.517  57.211 -57.026  1.00  0.00     0.048 A 
BRANCH   9  12
HETATM   12  O   UNL     1     -45.330  57.568 -59.338  1.00  0.00    -0.287 OA
BRANCH  12  13
HETATM   13  C   UNL     1     -46.706  57.325 -59.094  1.00  0.00     0.505 C 
HETATM   14  F   UNL     1     -47.427  58.359 -59.602  1.00  0.00    -0.184 F 
HETATM   15  F   UNL     1     -47.060  56.226 -59.807  1.00  0.00    -0.184 F 
ENDBRANCH  12  13
ENDBRANCH   9  12
BRANCH  10  16
HETATM   16  O   UNL     1     -42.791  56.753 -59.421  1.00  0.00    -0.353 OA
HETATM   17  C   UNL     1     -41.871  57.611 -60.086  1.00  0.00     0.210 C 
ENDBRANCH  10  16
ENDBRANCH   5   6
ENDBRANCH   1   5
BRANCH   2  18
HETATM   18  C   UNL     1     -41.459  54.330 -53.092  1.00  0.00     0.034 A 
HETATM   19  C   UNL     1     -41.295  53.297 -54.028  1.00  0.00     0.051 A 
HETATM   20  C   UNL     1     -40.547  52.170 -53.655  1.00  0.00     0.085 A 
HETATM   21  C   UNL     1     -40.006  52.096 -52.376  1.00  0.00     0.062 A 
HETATM   22  N   UNL     1     -40.240  51.048 -54.383  1.00  0.00    -0.242 NA
HETATM   23  N   UNL     1     -39.358  50.887 -52.355  1.00  0.00    -0.349 N 
HETATM   24  C   UNL     1     -40.166  53.095 -51.416  1.00  0.00     0.033 A 
HETATM   25  H   UNL     1     -38.849  50.499 -51.573  1.00  0.00     0.167 HD
HETATM   26  C   UNL     1     -39.525  50.298 -53.576  1.00  0.00     0.208 A 
HETATM   27  C   UNL     1     -40.909  54.217 -51.804  1.00  0.00     0.019 A 
ENDBRANCH   2  18
TORSDOF 6
ENDMDL
MODEL 10
REMARK VINA RESULT:      -6.8      1.981      2.737
REMARK  6 active torsions:
REMARK  status: ('A' for Active; 'I' for Inactive)
REMARK    1  A    between atoms: O_2  and  C_3 
REMARK    2  A    between atoms: C_4  and  O_5 
REMARK    3  A    between atoms: O_5  and  C_6 
REMARK    4  A    between atoms: C_11  and  C_12 
REMARK    5  A    between atoms: C_12  and  N_13 
REMARK       I    between atoms: N_13  and  C_14 
REMARK    6  A    between atoms: C_14  and  C_15 
ROOT
HETATM    1  N   UNL     1     -42.098  56.514 -56.245  1.00  0.00    -0.353 N 
HETATM    2  C   UNL     1     -42.663  57.464 -57.068  1.00  0.00     0.252 C 
HETATM    3  O   UNL     1     -42.498  58.668 -56.908  1.00  0.00    -0.268 OA
HETATM    4  H   UNL     1     -42.438  55.563 -56.274  1.00  0.00     0.163 HD
ENDROOT
BRANCH   1   5
HETATM    5  C   UNL     1     -41.332  56.911 -55.087  1.00  0.00     0.161 C 
BRANCH   5   6
HETATM    6  C   UNL     1     -41.401  55.849 -54.022  1.00  0.00    -0.038 A 
HETATM    7  C   UNL     1     -40.800  54.600 -54.224  1.00  0.00     0.012 A 
HETATM    8  C   UNL     1     -40.824  53.637 -53.217  1.00  0.00     0.040 A 
HETATM    9  C   UNL     1     -41.459  53.913 -52.005  1.00  0.00     0.108 A 
HETATM   10  C   UNL     1     -42.041  55.168 -51.771  1.00  0.00     0.102 A 
HETATM   11  C   UNL     1     -42.013  56.127 -52.787  1.00  0.00     0.048 A 
BRANCH   9  12
HETATM   12  O   UNL     1     -41.446  52.993 -50.987  1.00  0.00    -0.287 OA
BRANCH  12  13
HETATM   13  C   UNL     1     -40.123  52.559 -50.711  1.00  0.00     0.505 C 
HETATM   14  F   UNL     1     -39.487  53.529 -50.002  1.00  0.00    -0.184 F 
HETATM   15  F   UNL     1     -40.208  51.481 -49.892  1.00  0.00    -0.184 F 
ENDBRANCH  12  13
ENDBRANCH   9  12
BRANCH  10  16
HETATM   16  O   UNL     1     -42.630  55.341 -50.546  1.00  0.00    -0.353 OA
HETATM   17  C   UNL     1     -44.052  55.294 -50.503  1.00  0.00     0.210 C 
ENDBRANCH  10  16
ENDBRANCH   5   6
ENDBRANCH   1   5
BRANCH   2  18
HETATM   18  C   UNL     1     -43.539  56.964 -58.166  1.00  0.00     0.034 A 
HETATM   19  C   UNL     1     -44.813  57.507 -58.396  1.00  0.00     0.051 A 
HETATM   20  C   UNL     1     -45.578  56.991 -59.452  1.00  0.00     0.085 A 
HETATM   21  C   UNL     1     -45.070  55.955 -60.228  1.00  0.00     0.062 A 
HETATM   22  N   UNL     1     -46.831  57.354 -59.880  1.00  0.00    -0.242 NA
HETATM   23  N   UNL     1     -46.060  55.703 -61.144  1.00  0.00    -0.349 N 
HETATM   24  C   UNL     1     -43.817  55.380 -60.015  1.00  0.00     0.033 A 
HETATM   25  H   UNL     1     -46.033  55.002 -61.870  1.00  0.00     0.167 HD
HETATM   26  C   UNL     1     -47.091  56.565 -60.897  1.00  0.00     0.208 A 
HETATM   27  C   UNL     1     -43.061  55.909 -58.961  1.00  0.00     0.019 A 
ENDBRANCH   2  18
TORSDOF 6
ENDMDL
