MODEL 1
REMARK VINA RESULT:      -9.2      0.000      0.000
REMARK  8 active torsions:
REMARK  status: ('A' for Active; 'I' for Inactive)
REMARK    1  A    between atoms: C_3  and  S_4 
REMARK    2  A    between atoms: S_4  and  C_5 
REMARK    3  A    between atoms: C_5  and  C_6 
REMARK       I    between atoms: C_6  and  N_7 
REMARK    4  A    between atoms: N_7  and  C_8 
REMARK    5  A    between atoms: C_8  and  C_9 
REMARK    6  A    between atoms: C_18  and  C_19 
REMARK    7  A    between atoms: C_19  and  O_20 
REMARK    8  A    between atoms: O_20  and  C_21 
ROOT
HETATM    1  C   UNL     1     -43.092  59.906 -51.947  1.00  0.00     0.160 C 
HETATM    2  N   UNL     1     -44.172  59.157 -51.361  1.00  0.00    -0.314 N 
HETATM    3  C   UNL     1     -45.258  59.636 -50.685  1.00  0.00     0.191 A 
HETATM    4  N   UNL     1     -46.031  58.640 -50.319  1.00  0.00    -0.123 NA
HETATM    5  N   UNL     1     -45.444  57.479 -50.746  1.00  0.00    -0.132 NA
HETATM    6  C   UNL     1     -44.322  57.787 -51.369  1.00  0.00     0.154 A 
ENDROOT
BRANCH   3   7
HETATM    7  S   UNL     1     -45.544  61.308 -50.357  1.00  0.00    -0.081 SA
BRANCH   7   8
HETATM    8  C   UNL     1     -44.524  61.555 -48.873  1.00  0.00     0.185 C 
BRANCH   8   9
HETATM    9  C   UNL     1     -45.366  61.617 -47.609  1.00  0.00     0.227 C 
HETATM   10  N   UNL     1     -45.198  62.748 -46.849  1.00  0.00    -0.356 N 
HETATM   11  H   UNL     1     -44.548  63.461 -47.174  1.00  0.00     0.162 HD
HETATM   12  O   UNL     1     -46.095  60.683 -47.276  1.00  0.00    -0.273 OA
BRANCH  10  13
HETATM   13  C   UNL     1     -45.830  62.938 -45.565  1.00  0.00     0.161 C 
BRANCH  13  14
HETATM   14  C   UNL     1     -44.827  63.217 -44.474  1.00  0.00    -0.041 A 
HETATM   15  C   UNL     1     -44.120  62.160 -43.880  1.00  0.00     0.009 A 
HETATM   16  C   UNL     1     -43.161  62.411 -42.896  1.00  0.00     0.001 A 
HETATM   17  C   UNL     1     -42.898  63.720 -42.494  1.00  0.00     0.000 A 
HETATM   18  C   UNL     1     -43.597  64.778 -43.073  1.00  0.00     0.001 A 
HETATM   19  C   UNL     1     -44.553  64.529 -44.060  1.00  0.00     0.009 A 
ENDBRANCH  13  14
ENDBRANCH  10  13
ENDBRANCH   8   9
ENDBRANCH   7   8
ENDBRANCH   3   7
BRANCH   6  20
HETATM   20  C   UNL     1     -43.386  56.821 -52.010  1.00  0.00     0.256 C 
BRANCH  20  21
HETATM   21  O   UNL     1     -42.724  56.112 -50.963  1.00  0.00    -0.344 OA
BRANCH  21  22
HETATM   22  C   UNL     1     -41.959  55.041 -51.338  1.00  0.00     0.070 A 
HETATM   23  C   UNL     1     -41.955  54.436 -52.598  1.00  0.00     0.049 A 
HETATM   24  C   UNL     1     -41.130  53.328 -52.862  1.00  0.00    -0.023 A 
HETATM   25  C   UNL     1     -40.290  52.826 -51.842  1.00  0.00    -0.026 A 
HETATM   26  C   UNL     1     -41.125  52.701 -54.120  1.00  0.00     0.012 A 
HETATM   27  C   UNL     1     -40.290  53.452 -50.588  1.00  0.00     0.015 A 
HETATM   28  C   UNL     1     -39.475  51.713 -52.105  1.00  0.00     0.012 A 
HETATM   29  C   UNL     1     -41.115  54.551 -50.343  1.00  0.00     0.037 A 
HETATM   30  C   UNL     1     -39.486  51.102 -53.359  1.00  0.00     0.001 A 
HETATM   31  C   UNL     1     -40.309  51.596 -54.366  1.00  0.00     0.001 A 
ENDBRANCH  21  22
ENDBRANCH  20  21
ENDBRANCH   6  20
TORSDOF 8
ENDMDL
MODEL 2
REMARK VINA RESULT:      -9.1      5.304      7.780
REMARK  8 active torsions:
REMARK  status: ('A' for Active; 'I' for Inactive)
REMARK    1  A    between atoms: C_3  and  S_4 
REMARK    2  A    between atoms: S_4  and  C_5 
REMARK    3  A    between atoms: C_5  and  C_6 
REMARK       I    between atoms: C_6  and  N_7 
REMARK    4  A    between atoms: N_7  and  C_8 
REMARK    5  A    between atoms: C_8  and  C_9 
REMARK    6  A    between atoms: C_18  and  C_19 
REMARK    7  A    between atoms: C_19  and  O_20 
REMARK    8  A    between atoms: O_20  and  C_21 
ROOT
HETATM    1  C   UNL     1     -44.445  57.246 -51.115  1.00  0.00     0.160 C 
HETATM    2  N   UNL     1     -43.084  57.699 -51.249  1.00  0.00    -0.314 N 
HETATM    3  C   UNL     1     -42.641  58.900 -51.727  1.00  0.00     0.191 A 
HETATM    4  N   UNL     1     -41.330  58.944 -51.675  1.00  0.00    -0.123 NA
HETATM    5  N   UNL     1     -40.893  57.749 -51.168  1.00  0.00    -0.132 NA
HETATM    6  C   UNL     1     -41.947  56.996 -50.915  1.00  0.00     0.154 A 
ENDROOT
BRANCH   3   7
HETATM    7  S   UNL     1     -43.670  60.153 -52.322  1.00  0.00    -0.081 SA
BRANCH   7   8
HETATM    8  C   UNL     1     -42.600  60.925 -53.571  1.00  0.00     0.185 C 
BRANCH   8   9
HETATM    9  C   UNL     1     -42.553  60.117 -54.858  1.00  0.00     0.227 C 
HETATM   10  N   UNL     1     -43.736  59.518 -55.216  1.00  0.00    -0.356 N 
HETATM   11  H   UNL     1     -44.551  59.656 -54.621  1.00  0.00     0.162 HD
HETATM   12  O   UNL     1     -41.507  59.971 -55.488  1.00  0.00    -0.273 OA
BRANCH  10  13
HETATM   13  C   UNL     1     -43.861  58.628 -56.345  1.00  0.00     0.161 C 
BRANCH  13  14
HETATM   14  C   UNL     1     -43.624  57.188 -55.961  1.00  0.00    -0.041 A 
HETATM   15  C   UNL     1     -44.023  56.720 -54.700  1.00  0.00     0.009 A 
HETATM   16  C   UNL     1     -43.844  55.380 -54.350  1.00  0.00     0.001 A 
HETATM   17  C   UNL     1     -43.264  54.493 -55.255  1.00  0.00     0.000 A 
HETATM   18  C   UNL     1     -42.860  54.946 -56.510  1.00  0.00     0.001 A 
HETATM   19  C   UNL     1     -43.042  56.285 -56.863  1.00  0.00     0.009 A 
ENDBRANCH  13  14
ENDBRANCH  10  13
ENDBRANCH   8   9
ENDBRANCH   7   8
ENDBRANCH   3   7
BRANCH   6  20
HETATM   20  C   UNL     1     -41.921  55.625 -50.332  1.00  0.00     0.256 C 
BRANCH  20  21
HETATM   21  O   UNL     1     -40.593  55.124 -50.482  1.00  0.00    -0.344 OA
BRANCH  21  22
HETATM   22  C   UNL     1     -40.433  54.057 -51.324  1.00  0.00     0.070 A 
HETATM   23  C   UNL     1     -40.092  52.756 -50.945  1.00  0.00     0.049 A 
HETATM   24  C   UNL     1     -39.945  51.740 -51.907  1.00  0.00    -0.023 A 
HETATM   25  C   UNL     1     -40.152  52.040 -53.272  1.00  0.00    -0.026 A 
HETATM   26  C   UNL     1     -39.589  50.431 -51.541  1.00  0.00     0.012 A 
HETATM   27  C   UNL     1     -40.510  53.344 -53.639  1.00  0.00     0.015 A 
HETATM   28  C   UNL     1     -39.994  51.026 -54.232  1.00  0.00     0.012 A 
HETATM   29  C   UNL     1     -40.652  54.340 -52.671  1.00  0.00     0.037 A 
HETATM   30  C   UNL     1     -39.637  49.732 -53.851  1.00  0.00     0.001 A 
HETATM   31  C   UNL     1     -39.436  49.434 -52.507  1.00  0.00     0.001 A 
ENDBRANCH  21  22
ENDBRANCH  20  21
ENDBRANCH   6  20
TORSDOF 8
ENDMDL
MODEL 3
REMARK VINA RESULT:      -9.0      3.794      6.244
REMARK  8 active torsions:
REMARK  status: ('A' for Active; 'I' for Inactive)
REMARK    1  A    between atoms: C_3  and  S_4 
REMARK    2  A    between atoms: S_4  and  C_5 
REMARK    3  A    between atoms: C_5  and  C_6 
REMARK       I    between atoms: C_6  and  N_7 
REMARK    4  A    between atoms: N_7  and  C_8 
REMARK    5  A    between atoms: C_8  and  C_9 
REMARK    6  A    between atoms: C_18  and  C_19 
REMARK    7  A    between atoms: C_19  and  O_20 
REMARK    8  A    between atoms: O_20  and  C_21 
ROOT
HETATM    1  C   UNL     1     -44.522  61.607 -53.795  1.00  0.00     0.160 C 
HETATM    2  N   UNL     1     -43.454  61.107 -52.968  1.00  0.00    -0.314 N 
HETATM    3  C   UNL     1     -43.298  61.251 -51.619  1.00  0.00     0.191 A 
HETATM    4  N   UNL     1     -42.205  60.638 -51.229  1.00  0.00    -0.123 NA
HETATM    5  N   UNL     1     -41.617  60.089 -52.338  1.00  0.00    -0.132 NA
HETATM    6  C   UNL     1     -42.365  60.375 -53.387  1.00  0.00     0.154 A 
ENDROOT
BRANCH   3   7
HETATM    7  S   UNL     1     -44.381  62.128 -50.599  1.00  0.00    -0.081 SA
BRANCH   7   8
HETATM    8  C   UNL     1     -45.050  60.793 -49.564  1.00  0.00     0.185 C 
BRANCH   8   9
HETATM    9  C   UNL     1     -45.474  59.590 -50.391  1.00  0.00     0.227 C 
HETATM   10  N   UNL     1     -44.571  58.557 -50.426  1.00  0.00    -0.356 N 
HETATM   11  H   UNL     1     -43.702  58.652 -49.904  1.00  0.00     0.162 HD
HETATM   12  O   UNL     1     -46.528  59.586 -51.025  1.00  0.00    -0.273 OA
BRANCH  10  13
HETATM   13  C   UNL     1     -44.749  57.379 -51.241  1.00  0.00     0.161 C 
BRANCH  13  14
HETATM   14  C   UNL     1     -43.577  56.436 -51.141  1.00  0.00    -0.041 A 
HETATM   15  C   UNL     1     -42.266  56.928 -51.232  1.00  0.00     0.009 A 
HETATM   16  C   UNL     1     -41.173  56.069 -51.102  1.00  0.00     0.001 A 
HETATM   17  C   UNL     1     -41.377  54.708 -50.881  1.00  0.00     0.000 A 
HETATM   18  C   UNL     1     -42.674  54.205 -50.793  1.00  0.00     0.001 A 
HETATM   19  C   UNL     1     -43.768  55.064 -50.918  1.00  0.00     0.009 A 
ENDBRANCH  13  14
ENDBRANCH  10  13
ENDBRANCH   8   9
ENDBRANCH   7   8
ENDBRANCH   3   7
BRANCH   6  20
HETATM   20  C   UNL     1     -42.100  59.948 -54.789  1.00  0.00     0.256 C 
BRANCH  20  21
HETATM   21  O   UNL     1     -43.143  59.049 -55.165  1.00  0.00    -0.344 OA
BRANCH  21  22
HETATM   22  C   UNL     1     -42.902  57.716 -54.968  1.00  0.00     0.070 A 
HETATM   23  C   UNL     1     -41.645  57.109 -54.911  1.00  0.00     0.049 A 
HETATM   24  C   UNL     1     -41.523  55.721 -54.715  1.00  0.00    -0.023 A 
HETATM   25  C   UNL     1     -42.688  54.934 -54.566  1.00  0.00    -0.026 A 
HETATM   26  C   UNL     1     -40.266  55.095 -54.668  1.00  0.00     0.012 A 
HETATM   27  C   UNL     1     -43.942  55.557 -54.609  1.00  0.00     0.015 A 
HETATM   28  C   UNL     1     -42.564  53.548 -54.381  1.00  0.00     0.012 A 
HETATM   29  C   UNL     1     -44.045  56.936 -54.804  1.00  0.00     0.037 A 
HETATM   30  C   UNL     1     -41.307  52.943 -54.341  1.00  0.00     0.001 A 
HETATM   31  C   UNL     1     -40.159  53.716 -54.483  1.00  0.00     0.001 A 
ENDBRANCH  21  22
ENDBRANCH  20  21
ENDBRANCH   6  20
TORSDOF 8
ENDMDL
MODEL 4
REMARK VINA RESULT:      -8.8      6.994     10.199
REMARK  8 active torsions:
REMARK  status: ('A' for Active; 'I' for Inactive)
REMARK    1  A    between atoms: C_3  and  S_4 
REMARK    2  A    between atoms: S_4  and  C_5 
REMARK    3  A    between atoms: C_5  and  C_6 
REMARK       I    between atoms: C_6  and  N_7 
REMARK    4  A    between atoms: N_7  and  C_8 
REMARK    5  A    between atoms: C_8  and  C_9 
REMARK    6  A    between atoms: C_18  and  C_19 
REMARK    7  A    between atoms: C_19  and  O_20 
REMARK    8  A    between atoms: O_20  and  C_21 
ROOT
HETATM    1  C   UNL     1     -44.171  57.264 -55.260  1.00  0.00     0.160 C 
HETATM    2  N   UNL     1     -42.971  57.903 -54.785  1.00  0.00    -0.314 N 
HETATM    3  C   UNL     1     -42.455  59.110 -55.162  1.00  0.00     0.191 A 
HETATM    4  N   UNL     1     -41.355  59.355 -54.489  1.00  0.00    -0.123 NA
HETATM    5  N   UNL     1     -41.128  58.288 -53.660  1.00  0.00    -0.132 NA
HETATM    6  C   UNL     1     -42.096  57.411 -53.840  1.00  0.00     0.154 A 
ENDROOT
BRANCH   3   7
HETATM    7  S   UNL     1     -43.154  60.138 -56.362  1.00  0.00    -0.081 SA
BRANCH   7   8
HETATM    8  C   UNL     1     -41.745  60.378 -57.484  1.00  0.00     0.185 C 
BRANCH   8   9
HETATM    9  C   UNL     1     -41.925  59.625 -58.792  1.00  0.00     0.227 C 
HETATM   10  N   UNL     1     -42.060  58.264 -58.669  1.00  0.00    -0.356 N 
HETATM   11  H   UNL     1     -42.043  57.855 -57.737  1.00  0.00     0.162 HD
HETATM   12  O   UNL     1     -41.889  60.203 -59.877  1.00  0.00    -0.273 OA
BRANCH  10  13
HETATM   13  C   UNL     1     -42.135  57.372 -59.801  1.00  0.00     0.161 C 
BRANCH  13  14
HETATM   14  C   UNL     1     -43.499  56.745 -59.941  1.00  0.00    -0.041 A 
HETATM   15  C   UNL     1     -44.630  57.552 -60.137  1.00  0.00     0.009 A 
HETATM   16  C   UNL     1     -45.892  56.979 -60.307  1.00  0.00     0.001 A 
HETATM   17  C   UNL     1     -46.039  55.594 -60.282  1.00  0.00     0.000 A 
HETATM   18  C   UNL     1     -44.925  54.780 -60.084  1.00  0.00     0.001 A 
HETATM   19  C   UNL     1     -43.661  55.351 -59.918  1.00  0.00     0.009 A 
ENDBRANCH  13  14
ENDBRANCH  10  13
ENDBRANCH   8   9
ENDBRANCH   7   8
ENDBRANCH   3   7
BRANCH   6  20
HETATM   20  C   UNL     1     -42.246  56.116 -53.119  1.00  0.00     0.256 C 
BRANCH  20  21
HETATM   21  O   UNL     1     -40.939  55.693 -52.729  1.00  0.00    -0.344 OA
BRANCH  21  22
HETATM   22  C   UNL     1     -40.650  54.366 -52.899  1.00  0.00     0.070 A 
HETATM   23  C   UNL     1     -40.398  53.444 -51.881  1.00  0.00     0.049 A 
HETATM   24  C   UNL     1     -40.099  52.102 -52.181  1.00  0.00    -0.023 A 
HETATM   25  C   UNL     1     -40.060  51.683 -53.530  1.00  0.00    -0.026 A 
HETATM   26  C   UNL     1     -39.832  51.166 -51.168  1.00  0.00     0.012 A 
HETATM   27  C   UNL     1     -40.330  52.614 -54.542  1.00  0.00     0.015 A 
HETATM   28  C   UNL     1     -39.751  50.346 -53.829  1.00  0.00     0.012 A 
HETATM   29  C   UNL     1     -40.625  53.941 -54.227  1.00  0.00     0.037 A 
HETATM   30  C   UNL     1     -39.484  49.431 -52.809  1.00  0.00     0.001 A 
HETATM   31  C   UNL     1     -39.526  49.840 -51.480  1.00  0.00     0.001 A 
ENDBRANCH  21  22
ENDBRANCH  20  21
ENDBRANCH   6  20
TORSDOF 8
ENDMDL
MODEL 5
REMARK VINA RESULT:      -8.7      5.744      9.333
REMARK  8 active torsions:
REMARK  status: ('A' for Active; 'I' for Inactive)
REMARK    1  A    between atoms: C_3  and  S_4 
REMARK    2  A    between atoms: S_4  and  C_5 
REMARK    3  A    between atoms: C_5  and  C_6 
REMARK       I    between atoms: C_6  and  N_7 
REMARK    4  A    between atoms: N_7  and  C_8 
REMARK    5  A    between atoms: C_8  and  C_9 
REMARK    6  A    between atoms: C_18  and  C_19 
REMARK    7  A    between atoms: C_19  and  O_20 
REMARK    8  A    between atoms: O_20  and  C_21 
ROOT
HETATM    1  C   UNL     1     -44.086  58.584 -52.485  1.00  0.00     0.160 C 
HETATM    2  N   UNL     1     -42.700  58.621 -52.873  1.00  0.00    -0.314 N 
HETATM    3  C   UNL     1     -42.010  59.661 -53.428  1.00  0.00     0.191 A 
HETATM    4  N   UNL     1     -40.760  59.312 -53.624  1.00  0.00    -0.123 NA
HETATM    5  N   UNL     1     -40.618  58.015 -53.206  1.00  0.00    -0.132 NA
HETATM    6  C   UNL     1     -41.787  57.596 -52.758  1.00  0.00     0.154 A 
ENDROOT
BRANCH   3   7
HETATM    7  S   UNL     1     -42.703  61.193 -53.821  1.00  0.00    -0.081 SA
BRANCH   7   8
HETATM    8  C   UNL     1     -43.577  60.800 -55.366  1.00  0.00     0.185 C 
BRANCH   8   9
HETATM    9  C   UNL     1     -42.694  60.036 -56.339  1.00  0.00     0.227 C 
HETATM   10  N   UNL     1     -43.154  58.791 -56.691  1.00  0.00    -0.356 N 
HETATM   11  H   UNL     1     -44.036  58.469 -56.299  1.00  0.00     0.162 HD
HETATM   12  O   UNL     1     -41.620  60.492 -56.726  1.00  0.00    -0.273 OA
BRANCH  10  13
HETATM   13  C   UNL     1     -42.403  57.877 -57.519  1.00  0.00     0.161 C 
BRANCH  13  14
HETATM   14  C   UNL     1     -43.277  57.180 -58.531  1.00  0.00    -0.041 A 
HETATM   15  C   UNL     1     -44.308  57.881 -59.176  1.00  0.00     0.009 A 
HETATM   16  C   UNL     1     -45.097  57.255 -60.143  1.00  0.00     0.001 A 
HETATM   17  C   UNL     1     -44.866  55.921 -60.476  1.00  0.00     0.000 A 
HETATM   18  C   UNL     1     -43.849  55.212 -59.841  1.00  0.00     0.001 A 
HETATM   19  C   UNL     1     -43.055  55.838 -58.877  1.00  0.00     0.009 A 
ENDBRANCH  13  14
ENDBRANCH  10  13
ENDBRANCH   8   9
ENDBRANCH   7   8
ENDBRANCH   3   7
BRANCH   6  20
HETATM   20  C   UNL     1     -42.070  56.249 -52.188  1.00  0.00     0.256 C 
BRANCH  20  21
HETATM   21  O   UNL     1     -40.813  55.641 -51.888  1.00  0.00    -0.344 OA
BRANCH  21  22
HETATM   22  C   UNL     1     -40.602  54.390 -52.399  1.00  0.00     0.070 A 
HETATM   23  C   UNL     1     -40.227  53.258 -51.670  1.00  0.00     0.049 A 
HETATM   24  C   UNL     1     -40.027  52.022 -52.311  1.00  0.00    -0.023 A 
HETATM   25  C   UNL     1     -40.215  51.924 -53.709  1.00  0.00    -0.026 A 
HETATM   26  C   UNL     1     -39.637  50.878 -51.593  1.00  0.00     0.012 A 
HETATM   27  C   UNL     1     -40.607  53.061 -54.426  1.00  0.00     0.015 A 
HETATM   28  C   UNL     1     -40.004  50.691 -54.348  1.00  0.00     0.012 A 
HETATM   29  C   UNL     1     -40.801  54.281 -53.774  1.00  0.00     0.037 A 
HETATM   30  C   UNL     1     -39.614  49.567 -53.619  1.00  0.00     0.001 A 
HETATM   31  C   UNL     1     -39.432  49.660 -52.243  1.00  0.00     0.001 A 
ENDBRANCH  21  22
ENDBRANCH  20  21
ENDBRANCH   6  20
TORSDOF 8
ENDMDL
MODEL 6
REMARK VINA RESULT:      -8.7      5.106      9.242
REMARK  8 active torsions:
REMARK  status: ('A' for Active; 'I' for Inactive)
REMARK    1  A    between atoms: C_3  and  S_4 
REMARK    2  A    between atoms: S_4  and  C_5 
REMARK    3  A    between atoms: C_5  and  C_6 
REMARK       I    between atoms: C_6  and  N_7 
REMARK    4  A    between atoms: N_7  and  C_8 
REMARK    5  A    between atoms: C_8  and  C_9 
REMARK    6  A    between atoms: C_18  and  C_19 
REMARK    7  A    between atoms: C_19  and  O_20 
REMARK    8  A    between atoms: O_20  and  C_21 
ROOT
HETATM    1  C   UNL     1     -43.565  59.055 -51.503  1.00  0.00     0.160 C 
HETATM    2  N   UNL     1     -42.375  59.139 -52.310  1.00  0.00    -0.314 N 
HETATM    3  C   UNL     1     -42.223  59.750 -53.522  1.00  0.00     0.191 A 
HETATM    4  N   UNL     1     -40.982  59.624 -53.932  1.00  0.00    -0.123 NA
HETATM    5  N   UNL     1     -40.301  58.906 -52.985  1.00  0.00    -0.132 NA
HETATM    6  C   UNL     1     -41.139  58.609 -52.010  1.00  0.00     0.154 A 
ENDROOT
BRANCH   3   7
HETATM    7  S   UNL     1     -43.492  60.550 -54.378  1.00  0.00    -0.081 SA
BRANCH   7   8
HETATM    8  C   UNL     1     -44.571  59.149 -54.798  1.00  0.00     0.185 C 
BRANCH   8   9
HETATM    9  C   UNL     1     -43.817  58.047 -55.523  1.00  0.00     0.227 C 
HETATM   10  N   UNL     1     -43.479  58.328 -56.824  1.00  0.00    -0.356 N 
HETATM   11  H   UNL     1     -43.737  59.234 -57.209  1.00  0.00     0.162 HD
HETATM   12  O   UNL     1     -43.587  56.965 -54.986  1.00  0.00    -0.273 OA
BRANCH  10  13
HETATM   13  C   UNL     1     -42.855  57.368 -57.703  1.00  0.00     0.161 C 
BRANCH  13  14
HETATM   14  C   UNL     1     -43.856  56.690 -58.605  1.00  0.00    -0.041 A 
HETATM   15  C   UNL     1     -45.086  57.307 -58.883  1.00  0.00     0.009 A 
HETATM   16  C   UNL     1     -46.003  56.706 -59.749  1.00  0.00     0.001 A 
HETATM   17  C   UNL     1     -45.702  55.483 -60.345  1.00  0.00     0.000 A 
HETATM   18  C   UNL     1     -44.486  54.858 -60.074  1.00  0.00     0.001 A 
HETATM   19  C   UNL     1     -43.566  55.459 -59.213  1.00  0.00     0.009 A 
ENDBRANCH  13  14
ENDBRANCH  10  13
ENDBRANCH   8   9
ENDBRANCH   7   8
ENDBRANCH   3   7
BRANCH   6  20
HETATM   20  C   UNL     1     -40.802  57.855 -50.769  1.00  0.00     0.256 C 
BRANCH  20  21
HETATM   21  O   UNL     1     -41.682  56.733 -50.701  1.00  0.00    -0.344 OA
BRANCH  21  22
HETATM   22  C   UNL     1     -41.170  55.530 -51.103  1.00  0.00     0.070 A 
HETATM   23  C   UNL     1     -41.286  54.974 -52.380  1.00  0.00     0.049 A 
HETATM   24  C   UNL     1     -40.724  53.717 -52.672  1.00  0.00    -0.023 A 
HETATM   25  C   UNL     1     -40.028  53.014 -51.663  1.00  0.00    -0.026 A 
HETATM   26  C   UNL     1     -40.843  53.140 -53.948  1.00  0.00     0.012 A 
HETATM   27  C   UNL     1     -39.905  53.589 -50.391  1.00  0.00     0.015 A 
HETATM   28  C   UNL     1     -39.478  51.755 -51.954  1.00  0.00     0.012 A 
HETATM   29  C   UNL     1     -40.468  54.837 -50.118  1.00  0.00     0.037 A 
HETATM   30  C   UNL     1     -39.610  51.196 -53.226  1.00  0.00     0.001 A 
HETATM   31  C   UNL     1     -40.290  51.889 -54.223  1.00  0.00     0.001 A 
ENDBRANCH  21  22
ENDBRANCH  20  21
ENDBRANCH   6  20
TORSDOF 8
ENDMDL
MODEL 7
REMARK VINA RESULT:      -8.7      1.760     11.418
REMARK  8 active torsions:
REMARK  status: ('A' for Active; 'I' for Inactive)
REMARK    1  A    between atoms: C_3  and  S_4 
REMARK    2  A    between atoms: S_4  and  C_5 
REMARK    3  A    between atoms: C_5  and  C_6 
REMARK       I    between atoms: C_6  and  N_7 
REMARK    4  A    between atoms: N_7  and  C_8 
REMARK    5  A    between atoms: C_8  and  C_9 
REMARK    6  A    between atoms: C_18  and  C_19 
REMARK    7  A    between atoms: C_19  and  O_20 
REMARK    8  A    between atoms: O_20  and  C_21 
ROOT
HETATM    1  C   UNL     1     -43.060  60.556 -51.006  1.00  0.00     0.160 C 
HETATM    2  N   UNL     1     -44.151  59.631 -50.841  1.00  0.00    -0.314 N 
HETATM    3  C   UNL     1     -44.268  58.370 -51.352  1.00  0.00     0.191 A 
HETATM    4  N   UNL     1     -45.404  57.836 -50.965  1.00  0.00    -0.123 NA
HETATM    5  N   UNL     1     -46.059  58.761 -50.196  1.00  0.00    -0.132 NA
HETATM    6  C   UNL     1     -45.309  59.845 -50.124  1.00  0.00     0.154 A 
ENDROOT
BRANCH   3   7
HETATM    7  S   UNL     1     -43.093  57.615 -52.368  1.00  0.00    -0.081 SA
BRANCH   7   8
HETATM    8  C   UNL     1     -43.257  55.876 -51.865  1.00  0.00     0.185 C 
BRANCH   8   9
HETATM    9  C   UNL     1     -42.691  54.927 -52.908  1.00  0.00     0.227 C 
HETATM   10  N   UNL     1     -41.321  54.862 -52.959  1.00  0.00    -0.356 N 
HETATM   11  H   UNL     1     -40.782  55.429 -52.307  1.00  0.00     0.162 HD
HETATM   12  O   UNL     1     -43.424  54.313 -53.683  1.00  0.00    -0.273 OA
BRANCH  10  13
HETATM   13  C   UNL     1     -40.602  54.099 -53.952  1.00  0.00     0.161 C 
BRANCH  13  14
HETATM   14  C   UNL     1     -40.238  52.722 -53.455  1.00  0.00    -0.041 A 
HETATM   15  C   UNL     1     -39.951  52.515 -52.097  1.00  0.00     0.009 A 
HETATM   16  C   UNL     1     -39.650  51.237 -51.621  1.00  0.00     0.001 A 
HETATM   17  C   UNL     1     -39.632  50.152 -52.495  1.00  0.00     0.000 A 
HETATM   18  C   UNL     1     -39.911  50.345 -53.847  1.00  0.00     0.001 A 
HETATM   19  C   UNL     1     -40.216  51.621 -54.325  1.00  0.00     0.009 A 
ENDBRANCH  13  14
ENDBRANCH  10  13
ENDBRANCH   8   9
ENDBRANCH   7   8
ENDBRANCH   3   7
BRANCH   6  20
HETATM   20  C   UNL     1     -45.637  61.084 -49.366  1.00  0.00     0.256 C 
BRANCH  20  21
HETATM   21  O   UNL     1     -46.131  60.682 -48.088  1.00  0.00    -0.344 OA
BRANCH  21  22
HETATM   22  C   UNL     1     -45.789  61.473 -47.024  1.00  0.00     0.070 A 
HETATM   23  C   UNL     1     -44.885  61.141 -46.012  1.00  0.00     0.049 A 
HETATM   24  C   UNL     1     -44.623  62.036 -44.958  1.00  0.00    -0.023 A 
HETATM   25  C   UNL     1     -45.277  63.288 -44.930  1.00  0.00    -0.026 A 
HETATM   26  C   UNL     1     -43.726  61.711 -43.926  1.00  0.00     0.012 A 
HETATM   27  C   UNL     1     -46.169  63.617 -45.959  1.00  0.00     0.015 A 
HETATM   28  C   UNL     1     -45.021  64.176 -43.872  1.00  0.00     0.012 A 
HETATM   29  C   UNL     1     -46.418  62.717 -46.998  1.00  0.00     0.037 A 
HETATM   30  C   UNL     1     -44.130  63.834 -42.854  1.00  0.00     0.001 A 
HETATM   31  C   UNL     1     -43.482  62.603 -42.882  1.00  0.00     0.001 A 
ENDBRANCH  21  22
ENDBRANCH  20  21
ENDBRANCH   6  20
TORSDOF 8
ENDMDL
MODEL 8
REMARK VINA RESULT:      -8.6      5.591      6.412
REMARK  8 active torsions:
REMARK  status: ('A' for Active; 'I' for Inactive)
REMARK    1  A    between atoms: C_3  and  S_4 
REMARK    2  A    between atoms: S_4  and  C_5 
REMARK    3  A    between atoms: C_5  and  C_6 
REMARK       I    between atoms: C_6  and  N_7 
REMARK    4  A    between atoms: N_7  and  C_8 
REMARK    5  A    between atoms: C_8  and  C_9 
REMARK    6  A    between atoms: C_18  and  C_19 
REMARK    7  A    between atoms: C_19  and  O_20 
REMARK    8  A    between atoms: O_20  and  C_21 
ROOT
HETATM    1  C   UNL     1     -45.070  57.232 -54.664  1.00  0.00     0.160 C 
HETATM    2  N   UNL     1     -43.879  57.583 -55.393  1.00  0.00    -0.314 N 
HETATM    3  C   UNL     1     -43.475  58.825 -55.795  1.00  0.00     0.191 A 
HETATM    4  N   UNL     1     -42.324  58.738 -56.421  1.00  0.00    -0.123 NA
HETATM    5  N   UNL     1     -41.963  57.417 -56.447  1.00  0.00    -0.132 NA
HETATM    6  C   UNL     1     -42.900  56.719 -55.833  1.00  0.00     0.154 A 
ENDROOT
BRANCH   3   7
HETATM    7  S   UNL     1     -44.369  60.278 -55.526  1.00  0.00    -0.081 SA
BRANCH   7   8
HETATM    8  C   UNL     1     -44.254  60.433 -53.719  1.00  0.00     0.185 C 
BRANCH   8   9
HETATM    9  C   UNL     1     -42.896  59.994 -53.197  1.00  0.00     0.227 C 
HETATM   10  N   UNL     1     -42.921  58.945 -52.311  1.00  0.00    -0.356 N 
HETATM   11  H   UNL     1     -43.820  58.530 -52.074  1.00  0.00     0.162 HD
HETATM   12  O   UNL     1     -41.864  60.587 -53.509  1.00  0.00    -0.273 OA
BRANCH  10  13
HETATM   13  C   UNL     1     -41.746  58.458 -51.630  1.00  0.00     0.161 C 
BRANCH  13  14
HETATM   14  C   UNL     1     -41.987  57.128 -50.961  1.00  0.00    -0.041 A 
HETATM   15  C   UNL     1     -43.141  56.387 -51.259  1.00  0.00     0.009 A 
HETATM   16  C   UNL     1     -43.355  55.137 -50.675  1.00  0.00     0.001 A 
HETATM   17  C   UNL     1     -42.418  54.613 -49.786  1.00  0.00     0.000 A 
HETATM   18  C   UNL     1     -41.269  55.339 -49.478  1.00  0.00     0.001 A 
HETATM   19  C   UNL     1     -41.052  56.588 -50.065  1.00  0.00     0.009 A 
ENDBRANCH  13  14
ENDBRANCH  10  13
ENDBRANCH   8   9
ENDBRANCH   7   8
ENDBRANCH   3   7
BRANCH   6  20
HETATM   20  C   UNL     1     -42.890  55.245 -55.617  1.00  0.00     0.256 C 
BRANCH  20  21
HETATM   21  O   UNL     1     -41.539  54.805 -55.753  1.00  0.00    -0.344 OA
BRANCH  21  22
HETATM   22  C   UNL     1     -41.077  53.945 -54.794  1.00  0.00     0.070 A 
HETATM   23  C   UNL     1     -40.799  52.587 -54.973  1.00  0.00     0.049 A 
HETATM   24  C   UNL     1     -40.337  51.799 -53.903  1.00  0.00    -0.023 A 
HETATM   25  C   UNL     1     -40.146  52.391 -52.634  1.00  0.00    -0.026 A 
HETATM   26  C   UNL     1     -40.065  50.430 -54.066  1.00  0.00     0.012 A 
HETATM   27  C   UNL     1     -40.413  53.756 -52.470  1.00  0.00     0.015 A 
HETATM   28  C   UNL     1     -39.695  51.599 -51.565  1.00  0.00     0.012 A 
HETATM   29  C   UNL     1     -40.870  54.525 -53.543  1.00  0.00     0.037 A 
HETATM   30  C   UNL     1     -39.434  50.240 -51.745  1.00  0.00     0.001 A 
HETATM   31  C   UNL     1     -39.617  49.656 -52.994  1.00  0.00     0.001 A 
ENDBRANCH  21  22
ENDBRANCH  20  21
ENDBRANCH   6  20
TORSDOF 8
ENDMDL
MODEL 9
REMARK VINA RESULT:      -8.6      5.250      8.675
REMARK  8 active torsions:
REMARK  status: ('A' for Active; 'I' for Inactive)
REMARK    1  A    between atoms: C_3  and  S_4 
REMARK    2  A    between atoms: S_4  and  C_5 
REMARK    3  A    between atoms: C_5  and  C_6 
REMARK       I    between atoms: C_6  and  N_7 
REMARK    4  A    between atoms: N_7  and  C_8 
REMARK    5  A    between atoms: C_8  and  C_9 
REMARK    6  A    between atoms: C_18  and  C_19 
REMARK    7  A    between atoms: C_19  and  O_20 
REMARK    8  A    between atoms: O_20  and  C_21 
ROOT
HETATM    1  C   UNL     1     -43.334  58.816 -51.513  1.00  0.00     0.160 C 
HETATM    2  N   UNL     1     -43.552  57.830 -52.539  1.00  0.00    -0.314 N 
HETATM    3  C   UNL     1     -44.175  57.994 -53.744  1.00  0.00     0.191 A 
HETATM    4  N   UNL     1     -44.160  56.864 -54.411  1.00  0.00    -0.123 NA
HETATM    5  N   UNL     1     -43.530  55.929 -53.633  1.00  0.00    -0.132 NA
HETATM    6  C   UNL     1     -43.167  56.507 -52.504  1.00  0.00     0.154 A 
ENDROOT
BRANCH   3   7
HETATM    7  S   UNL     1     -44.885  59.474 -54.282  1.00  0.00    -0.081 SA
BRANCH   7   8
HETATM    8  C   UNL     1     -43.420  60.542 -54.409  1.00  0.00     0.185 C 
BRANCH   8   9
HETATM    9  C   UNL     1     -42.352  59.939 -55.306  1.00  0.00     0.227 C 
HETATM   10  N   UNL     1     -42.610  60.011 -56.652  1.00  0.00    -0.356 N 
HETATM   11  H   UNL     1     -43.471  60.459 -56.960  1.00  0.00     0.162 HD
HETATM   12  O   UNL     1     -41.362  59.378 -54.839  1.00  0.00    -0.273 OA
BRANCH  10  13
HETATM   13  C   UNL     1     -41.766  59.401 -57.652  1.00  0.00     0.161 C 
BRANCH  13  14
HETATM   14  C   UNL     1     -42.384  58.153 -58.232  1.00  0.00    -0.041 A 
HETATM   15  C   UNL     1     -42.523  57.002 -57.442  1.00  0.00     0.009 A 
HETATM   16  C   UNL     1     -43.129  55.854 -57.958  1.00  0.00     0.001 A 
HETATM   17  C   UNL     1     -43.601  55.844 -59.269  1.00  0.00     0.000 A 
HETATM   18  C   UNL     1     -43.466  56.979 -60.066  1.00  0.00     0.001 A 
HETATM   19  C   UNL     1     -42.864  58.129 -59.551  1.00  0.00     0.009 A 
ENDBRANCH  13  14
ENDBRANCH  10  13
ENDBRANCH   8   9
ENDBRANCH   7   8
ENDBRANCH   3   7
BRANCH   6  20
HETATM   20  C   UNL     1     -42.431  55.853 -51.386  1.00  0.00     0.256 C 
BRANCH  20  21
HETATM   21  O   UNL     1     -41.095  55.624 -51.833  1.00  0.00    -0.344 OA
BRANCH  21  22
HETATM   22  C   UNL     1     -40.714  54.318 -51.978  1.00  0.00     0.070 A 
HETATM   23  C   UNL     1     -40.693  53.597 -53.175  1.00  0.00     0.049 A 
HETATM   24  C   UNL     1     -40.290  52.249 -53.198  1.00  0.00    -0.023 A 
HETATM   25  C   UNL     1     -39.896  51.620 -51.995  1.00  0.00    -0.026 A 
HETATM   26  C   UNL     1     -40.276  51.508 -54.392  1.00  0.00     0.012 A 
HETATM   27  C   UNL     1     -39.906  52.358 -50.804  1.00  0.00     0.015 A 
HETATM   28  C   UNL     1     -39.505  50.272 -52.018  1.00  0.00     0.012 A 
HETATM   29  C   UNL     1     -40.308  53.695 -50.799  1.00  0.00     0.037 A 
HETATM   30  C   UNL     1     -39.501  49.551 -53.213  1.00  0.00     0.001 A 
HETATM   31  C   UNL     1     -39.885  50.169 -54.399  1.00  0.00     0.001 A 
ENDBRANCH  21  22
ENDBRANCH  20  21
ENDBRANCH   6  20
TORSDOF 8
ENDMDL
MODEL 10
REMARK VINA RESULT:      -8.4      5.981      8.423
REMARK  8 active torsions:
REMARK  status: ('A' for Active; 'I' for Inactive)
REMARK    1  A    between atoms: C_3  and  S_4 
REMARK    2  A    between atoms: S_4  and  C_5 
REMARK    3  A    between atoms: C_5  and  C_6 
REMARK       I    between atoms: C_6  and  N_7 
REMARK    4  A    between atoms: N_7  and  C_8 
REMARK    5  A    between atoms: C_8  and  C_9 
REMARK    6  A    between atoms: C_18  and  C_19 
REMARK    7  A    between atoms: C_19  and  O_20 
REMARK    8  A    between atoms: O_20  and  C_21 
ROOT
HETATM    1  C   UNL     1     -43.970  57.463 -53.443  1.00  0.00     0.160 C 
HETATM    2  N   UNL     1     -42.738  58.207 -53.467  1.00  0.00    -0.314 N 
HETATM    3  C   UNL     1     -42.569  59.557 -53.340  1.00  0.00     0.191 A 
HETATM    4  N   UNL     1     -41.291  59.853 -53.396  1.00  0.00    -0.123 NA
HETATM    5  N   UNL     1     -40.600  58.684 -53.578  1.00  0.00    -0.132 NA
HETATM    6  C   UNL     1     -41.470  57.693 -53.626  1.00  0.00     0.154 A 
ENDROOT
BRANCH   3   7
HETATM    7  S   UNL     1     -43.859  60.689 -53.149  1.00  0.00    -0.081 SA
BRANCH   7   8
HETATM    8  C   UNL     1     -43.204  62.125 -54.050  1.00  0.00     0.185 C 
BRANCH   8   9
HETATM    9  C   UNL     1     -43.318  61.952 -55.556  1.00  0.00     0.227 C 
HETATM   10  N   UNL     1     -42.260  61.312 -56.153  1.00  0.00    -0.356 N 
HETATM   11  H   UNL     1     -41.491  60.992 -55.567  1.00  0.00     0.162 HD
HETATM   12  O   UNL     1     -44.269  62.412 -56.186  1.00  0.00    -0.273 OA
BRANCH  10  13
HETATM   13  C   UNL     1     -42.140  61.149 -57.582  1.00  0.00     0.161 C 
BRANCH  13  14
HETATM   14  C   UNL     1     -42.260  59.706 -58.002  1.00  0.00    -0.041 A 
HETATM   15  C   UNL     1     -42.587  58.721 -57.056  1.00  0.00     0.009 A 
HETATM   16  C   UNL     1     -42.739  57.388 -57.442  1.00  0.00     0.001 A 
HETATM   17  C   UNL     1     -42.565  57.022 -58.776  1.00  0.00     0.000 A 
HETATM   18  C   UNL     1     -42.235  57.989 -59.724  1.00  0.00     0.001 A 
HETATM   19  C   UNL     1     -42.088  59.324 -59.341  1.00  0.00     0.009 A 
ENDBRANCH  13  14
ENDBRANCH  10  13
ENDBRANCH   8   9
ENDBRANCH   7   8
ENDBRANCH   3   7
BRANCH   6  20
HETATM   20  C   UNL     1     -41.139  56.249 -53.789  1.00  0.00     0.256 C 
BRANCH  20  21
HETATM   21  O   UNL     1     -41.078  55.677 -52.483  1.00  0.00    -0.344 OA
BRANCH  21  22
HETATM   22  C   UNL     1     -40.711  54.361 -52.408  1.00  0.00     0.070 A 
HETATM   23  C   UNL     1     -40.601  53.477 -53.485  1.00  0.00     0.049 A 
HETATM   24  C   UNL     1     -40.224  52.137 -53.282  1.00  0.00    -0.023 A 
HETATM   25  C   UNL     1     -39.949  51.682 -51.972  1.00  0.00    -0.026 A 
HETATM   26  C   UNL     1     -40.121  51.234 -54.353  1.00  0.00     0.012 A 
HETATM   27  C   UNL     1     -40.047  52.582 -50.902  1.00  0.00     0.015 A 
HETATM   28  C   UNL     1     -39.584  50.341 -51.770  1.00  0.00     0.012 A 
HETATM   29  C   UNL     1     -40.422  53.909 -51.122  1.00  0.00     0.037 A 
HETATM   30  C   UNL     1     -39.490  49.458 -52.847  1.00  0.00     0.001 A 
HETATM   31  C   UNL     1     -39.757  49.904 -54.137  1.00  0.00     0.001 A 
ENDBRANCH  21  22
ENDBRANCH  20  21
ENDBRANCH   6  20
TORSDOF 8
ENDMDL
