MODEL 1
REMARK VINA RESULT:      -8.5      0.000      0.000
REMARK  7 active torsions:
REMARK  status: ('A' for Active; 'I' for Inactive)
REMARK    1  A    between atoms: O_2  and  C_3 
REMARK    2  A    between atoms: C_6  and  C_7 
REMARK    3  A    between atoms: C_7  and  N_8 
REMARK    4  A    between atoms: C_7  and  C_25 
REMARK    5  A    between atoms: N_8  and  C_11 
REMARK    6  A    between atoms: C_11  and  C_12 
REMARK       I    between atoms: C_12  and  N_13 
REMARK    7  A    between atoms: N_13  and  C_14 
ROOT
HETATM    1  N   UNL     1     -41.403  53.839 -51.101  1.00  0.00    -0.055 N 
HETATM    2  H   UNL     1     -42.377  54.025 -51.393  1.00  0.00     0.278 HD
HETATM    3  H   UNL     1     -41.480  52.994 -50.528  1.00  0.00     0.278 HD
ENDROOT
BRANCH   1   4
HETATM    4  C   UNL     1     -40.564  53.586 -52.311  1.00  0.00     0.252 C 
BRANCH   4   5
HETATM    5  C   UNL     1     -41.197  54.135 -53.579  1.00  0.00    -0.023 A 
HETATM    6  C   UNL     1     -42.495  53.726 -53.935  1.00  0.00     0.012 A 
HETATM    7  C   UNL     1     -43.127  54.230 -55.079  1.00  0.00     0.037 A 
HETATM    8  C   UNL     1     -42.476  55.159 -55.885  1.00  0.00     0.068 A 
HETATM    9  C   UNL     1     -41.187  55.569 -55.544  1.00  0.00     0.037 A 
HETATM   10  C   UNL     1     -40.552  55.070 -54.403  1.00  0.00     0.012 A 
BRANCH   8  11
HETATM   11  O   UNL     1     -42.978  55.736 -57.016  1.00  0.00    -0.356 OA
HETATM   12  C   UNL     1     -42.717  57.122 -57.210  1.00  0.00     0.210 C 
ENDBRANCH   8  11
ENDBRANCH   4   5
BRANCH   4  13
HETATM   13  C   UNL     1     -40.146  52.130 -52.429  1.00  0.00    -0.023 A 
HETATM   14  C   UNL     1     -39.906  51.380 -51.263  1.00  0.00     0.009 A 
HETATM   15  C   UNL     1     -39.542  50.035 -51.343  1.00  0.00     0.001 A 
HETATM   16  C   UNL     1     -39.409  49.421 -52.584  1.00  0.00     0.000 A 
HETATM   17  C   UNL     1     -39.633  50.150 -53.749  1.00  0.00     0.001 A 
HETATM   18  C   UNL     1     -39.995  51.497 -53.675  1.00  0.00     0.009 A 
ENDBRANCH   4  13
ENDBRANCH   1   4
BRANCH   1  19
HETATM   19  C   UNL     1     -40.974  54.987 -50.223  1.00  0.00     0.336 C 
BRANCH  19  20
HETATM   20  C   UNL     1     -41.559  56.293 -50.761  1.00  0.00     0.248 C 
HETATM   21  N   UNL     1     -42.832  56.177 -51.278  1.00  0.00    -0.326 N 
HETATM   22  H   UNL     1     -43.267  55.261 -51.298  1.00  0.00     0.169 HD
HETATM   23  O   UNL     1     -40.861  57.305 -50.691  1.00  0.00    -0.271 OA
BRANCH  21  24
HETATM   24  C   UNL     1     -43.627  57.215 -51.818  1.00  0.00     0.037 A 
HETATM   25  C   UNL     1     -44.508  57.996 -51.057  1.00  0.00     0.061 A 
HETATM   26  C   UNL     1     -45.223  58.966 -51.723  1.00  0.00     0.065 A 
HETATM   27  C   UNL     1     -45.094  59.185 -53.092  1.00  0.00     0.063 A 
HETATM   28  N   UNL     1     -46.158  59.872 -51.233  1.00  0.00    -0.306 N 
HETATM   29  N   UNL     1     -45.946  60.224 -53.444  1.00  0.00    -0.307 N 
HETATM   30  C   UNL     1     -44.243  58.443 -53.870  1.00  0.00     0.034 A 
HETATM   31  C   UNL     1     -46.620  60.663 -52.296  1.00  0.00     0.325 A 
HETATM   32  H   UNL     1     -46.090  60.622 -54.359  1.00  0.00     0.170 HD
HETATM   33  O   UNL     1     -47.444  61.557 -52.231  1.00  0.00    -0.247 OA
HETATM   34  C   UNL     1     -43.505  57.446 -53.216  1.00  0.00     0.032 A 
HETATM   35  H   UNL     1     -46.482  59.976 -50.285  1.00  0.00     0.170 HD
ENDBRANCH  21  24
ENDBRANCH  19  20
ENDBRANCH   1  19
TORSDOF 7
ENDMDL
MODEL 2
REMARK VINA RESULT:      -8.0      2.114      2.374
REMARK  7 active torsions:
REMARK  status: ('A' for Active; 'I' for Inactive)
REMARK    1  A    between atoms: O_2  and  C_3 
REMARK    2  A    between atoms: C_6  and  C_7 
REMARK    3  A    between atoms: C_7  and  N_8 
REMARK    4  A    between atoms: C_7  and  C_25 
REMARK    5  A    between atoms: N_8  and  C_11 
REMARK    6  A    between atoms: C_11  and  C_12 
REMARK       I    between atoms: C_12  and  N_13 
REMARK    7  A    between atoms: N_13  and  C_14 
ROOT
HETATM    1  N   UNL     1     -41.173  53.963 -51.069  1.00  0.00    -0.055 N 
HETATM    2  H   UNL     1     -42.184  54.044 -51.273  1.00  0.00     0.278 HD
HETATM    3  H   UNL     1     -41.124  53.195 -50.394  1.00  0.00     0.278 HD
ENDROOT
BRANCH   1   4
HETATM    4  C   UNL     1     -40.443  53.614 -52.324  1.00  0.00     0.252 C 
BRANCH   4   5
HETATM    5  C   UNL     1     -41.148  54.130 -53.567  1.00  0.00    -0.023 A 
HETATM    6  C   UNL     1     -42.531  53.917 -53.714  1.00  0.00     0.012 A 
HETATM    7  C   UNL     1     -43.226  54.402 -54.829  1.00  0.00     0.037 A 
HETATM    8  C   UNL     1     -42.553  55.118 -55.816  1.00  0.00     0.068 A 
HETATM    9  C   UNL     1     -41.181  55.331 -55.682  1.00  0.00     0.037 A 
HETATM   10  C   UNL     1     -40.482  54.850 -54.571  1.00  0.00     0.012 A 
BRANCH   8  11
HETATM   11  O   UNL     1     -43.108  55.653 -56.943  1.00  0.00    -0.356 OA
HETATM   12  C   UNL     1     -43.306  57.062 -56.963  1.00  0.00     0.210 C 
ENDBRANCH   8  11
ENDBRANCH   4   5
BRANCH   4  13
HETATM   13  C   UNL     1     -40.097  52.136 -52.399  1.00  0.00    -0.023 A 
HETATM   14  C   UNL     1     -39.827  51.425 -51.215  1.00  0.00     0.009 A 
HETATM   15  C   UNL     1     -39.529  50.062 -51.253  1.00  0.00     0.001 A 
HETATM   16  C   UNL     1     -39.491  49.391 -52.472  1.00  0.00     0.000 A 
HETATM   17  C   UNL     1     -39.745  50.081 -53.654  1.00  0.00     0.001 A 
HETATM   18  C   UNL     1     -40.042  51.445 -53.622  1.00  0.00     0.009 A 
ENDBRANCH   4  13
ENDBRANCH   1   4
BRANCH   1  19
HETATM   19  C   UNL     1     -40.752  55.240 -50.387  1.00  0.00     0.336 C 
BRANCH  19  20
HETATM   20  C   UNL     1     -41.652  56.389 -50.845  1.00  0.00     0.248 C 
HETATM   21  N   UNL     1     -40.980  57.558 -51.135  1.00  0.00    -0.326 N 
HETATM   22  H   UNL     1     -39.975  57.588 -50.998  1.00  0.00     0.169 HD
HETATM   23  O   UNL     1     -42.862  56.177 -50.910  1.00  0.00    -0.271 OA
BRANCH  21  24
HETATM   24  C   UNL     1     -41.545  58.768 -51.603  1.00  0.00     0.037 A 
HETATM   25  C   UNL     1     -41.695  59.082 -52.960  1.00  0.00     0.061 A 
HETATM   26  C   UNL     1     -42.256  60.303 -53.263  1.00  0.00     0.065 A 
HETATM   27  C   UNL     1     -42.666  61.204 -52.284  1.00  0.00     0.063 A 
HETATM   28  N   UNL     1     -42.518  60.874 -54.504  1.00  0.00    -0.306 N 
HETATM   29  N   UNL     1     -43.181  62.326 -52.920  1.00  0.00    -0.307 N 
HETATM   30  C   UNL     1     -42.537  60.932 -50.947  1.00  0.00     0.034 A 
HETATM   31  C   UNL     1     -43.095  62.138 -54.306  1.00  0.00     0.325 A 
HETATM   32  H   UNL     1     -43.559  63.158 -52.495  1.00  0.00     0.170 HD
HETATM   33  O   UNL     1     -43.451  62.917 -55.172  1.00  0.00    -0.247 OA
HETATM   34  C   UNL     1     -41.966  59.696 -50.611  1.00  0.00     0.032 A 
HETATM   35  H   UNL     1     -42.338  60.485 -55.416  1.00  0.00     0.170 HD
ENDBRANCH  21  24
ENDBRANCH  19  20
ENDBRANCH   1  19
TORSDOF 7
ENDMDL
MODEL 3
REMARK VINA RESULT:      -7.8      2.528      8.418
REMARK  7 active torsions:
REMARK  status: ('A' for Active; 'I' for Inactive)
REMARK    1  A    between atoms: O_2  and  C_3 
REMARK    2  A    between atoms: C_6  and  C_7 
REMARK    3  A    between atoms: C_7  and  N_8 
REMARK    4  A    between atoms: C_7  and  C_25 
REMARK    5  A    between atoms: N_8  and  C_11 
REMARK    6  A    between atoms: C_11  and  C_12 
REMARK       I    between atoms: C_12  and  N_13 
REMARK    7  A    between atoms: N_13  and  C_14 
ROOT
HETATM    1  N   UNL     1     -43.316  58.036 -53.559  1.00  0.00    -0.055 N 
HETATM    2  H   UNL     1     -44.032  57.311 -53.387  1.00  0.00     0.278 HD
HETATM    3  H   UNL     1     -43.838  58.788 -54.019  1.00  0.00     0.278 HD
ENDROOT
BRANCH   1   4
HETATM    4  C   UNL     1     -42.759  58.500 -52.253  1.00  0.00     0.252 C 
BRANCH   4   5
HETATM    5  C   UNL     1     -42.466  57.347 -51.307  1.00  0.00    -0.023 A 
HETATM    6  C   UNL     1     -43.429  56.336 -51.133  1.00  0.00     0.012 A 
HETATM    7  C   UNL     1     -43.188  55.240 -50.294  1.00  0.00     0.037 A 
HETATM    8  C   UNL     1     -41.976  55.130 -49.619  1.00  0.00     0.068 A 
HETATM    9  C   UNL     1     -41.016  56.128 -49.781  1.00  0.00     0.037 A 
HETATM   10  C   UNL     1     -41.250  57.223 -50.618  1.00  0.00     0.012 A 
BRANCH   8  11
HETATM   11  O   UNL     1     -41.609  54.114 -48.783  1.00  0.00    -0.356 OA
HETATM   12  C   UNL     1     -40.247  54.072 -48.372  1.00  0.00     0.210 C 
ENDBRANCH   8  11
ENDBRANCH   4   5
BRANCH   4  13
HETATM   13  C   UNL     1     -43.601  59.596 -51.623  1.00  0.00    -0.023 A 
HETATM   14  C   UNL     1     -43.000  60.510 -50.737  1.00  0.00     0.009 A 
HETATM   15  C   UNL     1     -43.746  61.540 -50.162  1.00  0.00     0.001 A 
HETATM   16  C   UNL     1     -45.099  61.671 -50.458  1.00  0.00     0.000 A 
HETATM   17  C   UNL     1     -45.712  60.770 -51.324  1.00  0.00     0.001 A 
HETATM   18  C   UNL     1     -44.972  59.736 -51.901  1.00  0.00     0.009 A 
ENDBRANCH   4  13
ENDBRANCH   1   4
BRANCH   1  19
HETATM   19  C   UNL     1     -42.324  57.461 -54.538  1.00  0.00     0.336 C 
BRANCH  19  20
HETATM   20  C   UNL     1     -42.226  55.948 -54.341  1.00  0.00     0.248 C 
HETATM   21  N   UNL     1     -40.995  55.510 -53.900  1.00  0.00    -0.326 N 
HETATM   22  H   UNL     1     -40.253  56.191 -53.773  1.00  0.00     0.169 HD
HETATM   23  O   UNL     1     -43.223  55.271 -54.590  1.00  0.00    -0.271 OA
BRANCH  21  24
HETATM   24  C   UNL     1     -40.622  54.176 -53.607  1.00  0.00     0.037 A 
HETATM   25  C   UNL     1     -40.481  53.677 -52.306  1.00  0.00     0.061 A 
HETATM   26  C   UNL     1     -40.105  52.358 -52.177  1.00  0.00     0.065 A 
HETATM   27  C   UNL     1     -39.871  51.534 -53.274  1.00  0.00     0.063 A 
HETATM   28  N   UNL     1     -39.886  51.607 -51.027  1.00  0.00    -0.306 N 
HETATM   29  N   UNL     1     -39.512  50.279 -52.802  1.00  0.00    -0.307 N 
HETATM   30  C   UNL     1     -40.000  51.986 -54.563  1.00  0.00     0.034 A 
HETATM   31  C   UNL     1     -39.515  50.306 -51.401  1.00  0.00     0.325 A 
HETATM   32  H   UNL     1     -39.277  49.459 -53.341  1.00  0.00     0.170 HD
HETATM   33  O   UNL     1     -39.248  49.385 -50.652  1.00  0.00    -0.247 OA
HETATM   34  C   UNL     1     -40.380  53.327 -54.722  1.00  0.00     0.032 A 
HETATM   35  H   UNL     1     -39.967  51.905 -50.068  1.00  0.00     0.170 HD
ENDBRANCH  21  24
ENDBRANCH  19  20
ENDBRANCH   1  19
TORSDOF 7
ENDMDL
MODEL 4
REMARK VINA RESULT:      -7.7      3.716      5.903
REMARK  7 active torsions:
REMARK  status: ('A' for Active; 'I' for Inactive)
REMARK    1  A    between atoms: O_2  and  C_3 
REMARK    2  A    between atoms: C_6  and  C_7 
REMARK    3  A    between atoms: C_7  and  N_8 
REMARK    4  A    between atoms: C_7  and  C_25 
REMARK    5  A    between atoms: N_8  and  C_11 
REMARK    6  A    between atoms: C_11  and  C_12 
REMARK       I    between atoms: C_12  and  N_13 
REMARK    7  A    between atoms: N_13  and  C_14 
ROOT
HETATM    1  N   UNL     1     -41.636  54.885 -55.707  1.00  0.00    -0.055 N 
HETATM    2  H   UNL     1     -40.966  55.653 -55.878  1.00  0.00     0.278 HD
HETATM    3  H   UNL     1     -41.145  54.055 -56.052  1.00  0.00     0.278 HD
ENDROOT
BRANCH   1   4
HETATM    4  C   UNL     1     -41.899  54.774 -54.241  1.00  0.00     0.252 C 
BRANCH   4   5
HETATM    5  C   UNL     1     -41.780  56.112 -53.530  1.00  0.00    -0.023 A 
HETATM    6  C   UNL     1     -40.740  56.992 -53.885  1.00  0.00     0.012 A 
HETATM    7  C   UNL     1     -40.611  58.246 -53.276  1.00  0.00     0.037 A 
HETATM    8  C   UNL     1     -41.524  58.650 -52.306  1.00  0.00     0.068 A 
HETATM    9  C   UNL     1     -42.557  57.785 -51.944  1.00  0.00     0.037 A 
HETATM   10  C   UNL     1     -42.691  56.532 -52.549  1.00  0.00     0.012 A 
BRANCH   8  11
HETATM   11  O   UNL     1     -41.521  59.845 -51.644  1.00  0.00    -0.356 OA
HETATM   12  C   UNL     1     -41.236  59.813 -50.250  1.00  0.00     0.210 C 
ENDBRANCH   8  11
ENDBRANCH   4   5
BRANCH   4  13
HETATM   13  C   UNL     1     -41.082  53.672 -53.589  1.00  0.00    -0.023 A 
HETATM   14  C   UNL     1     -40.619  52.596 -54.370  1.00  0.00     0.009 A 
HETATM   15  C   UNL     1     -39.848  51.582 -53.801  1.00  0.00     0.001 A 
HETATM   16  C   UNL     1     -39.531  51.623 -52.446  1.00  0.00     0.000 A 
HETATM   17  C   UNL     1     -39.989  52.674 -51.656  1.00  0.00     0.001 A 
HETATM   18  C   UNL     1     -40.763  53.691 -52.220  1.00  0.00     0.009 A 
ENDBRANCH   4  13
ENDBRANCH   1   4
BRANCH   1  19
HETATM   19  C   UNL     1     -42.839  55.138 -56.581  1.00  0.00     0.336 C 
BRANCH  19  20
HETATM   20  C   UNL     1     -42.949  56.633 -56.884  1.00  0.00     0.248 C 
HETATM   21  N   UNL     1     -42.069  57.086 -57.844  1.00  0.00    -0.326 N 
HETATM   22  H   UNL     1     -41.409  56.430 -58.248  1.00  0.00     0.169 HD
HETATM   23  O   UNL     1     -43.786  57.283 -56.258  1.00  0.00    -0.271 OA
BRANCH  21  24
HETATM   24  C   UNL     1     -41.962  58.406 -58.343  1.00  0.00     0.037 A 
HETATM   25  C   UNL     1     -41.705  59.523 -57.536  1.00  0.00     0.061 A 
HETATM   26  C   UNL     1     -41.636  60.747 -58.164  1.00  0.00     0.065 A 
HETATM   27  C   UNL     1     -41.807  60.897 -59.537  1.00  0.00     0.063 A 
HETATM   28  N   UNL     1     -41.402  62.008 -57.624  1.00  0.00    -0.306 N 
HETATM   29  N   UNL     1     -41.678  62.246 -59.843  1.00  0.00    -0.307 N 
HETATM   30  C   UNL     1     -42.059  59.829 -60.358  1.00  0.00     0.034 A 
HETATM   31  C   UNL     1     -41.426  62.954 -58.659  1.00  0.00     0.325 A 
HETATM   32  H   UNL     1     -41.750  62.684 -60.747  1.00  0.00     0.170 HD
HETATM   33  O   UNL     1     -41.261  64.155 -58.549  1.00  0.00    -0.247 OA
HETATM   34  C   UNL     1     -42.138  58.571 -59.744  1.00  0.00     0.032 A 
HETATM   35  H   UNL     1     -41.241  62.248 -56.659  1.00  0.00     0.170 HD
ENDBRANCH  21  24
ENDBRANCH  19  20
ENDBRANCH   1  19
TORSDOF 7
ENDMDL
MODEL 5
REMARK VINA RESULT:      -7.5      3.702      8.122
REMARK  7 active torsions:
REMARK  status: ('A' for Active; 'I' for Inactive)
REMARK    1  A    between atoms: O_2  and  C_3 
REMARK    2  A    between atoms: C_6  and  C_7 
REMARK    3  A    between atoms: C_7  and  N_8 
REMARK    4  A    between atoms: C_7  and  C_25 
REMARK    5  A    between atoms: N_8  and  C_11 
REMARK    6  A    between atoms: C_11  and  C_12 
REMARK       I    between atoms: C_12  and  N_13 
REMARK    7  A    between atoms: N_13  and  C_14 
ROOT
HETATM    1  N   UNL     1     -42.776  56.912 -57.340  1.00  0.00    -0.055 N 
HETATM    2  H   UNL     1     -41.916  57.362 -56.984  1.00  0.00     0.278 HD
HETATM    3  H   UNL     1     -43.529  57.416 -56.861  1.00  0.00     0.278 HD
ENDROOT
BRANCH   1   4
HETATM    4  C   UNL     1     -42.862  57.109 -58.818  1.00  0.00     0.252 C 
BRANCH   4   5
HETATM    5  C   UNL     1     -42.382  58.486 -59.246  1.00  0.00    -0.023 A 
HETATM    6  C   UNL     1     -42.314  58.797 -60.617  1.00  0.00     0.012 A 
HETATM    7  C   UNL     1     -41.905  60.063 -61.055  1.00  0.00     0.037 A 
HETATM    8  C   UNL     1     -41.565  61.046 -60.130  1.00  0.00     0.068 A 
HETATM    9  C   UNL     1     -41.625  60.748 -58.769  1.00  0.00     0.037 A 
HETATM   10  C   UNL     1     -42.032  59.486 -58.326  1.00  0.00     0.012 A 
BRANCH   8  11
HETATM   11  O   UNL     1     -41.163  62.319 -60.419  1.00  0.00    -0.356 OA
HETATM   12  C   UNL     1     -42.160  63.228 -60.874  1.00  0.00     0.210 C 
ENDBRANCH   8  11
ENDBRANCH   4   5
BRANCH   4  13
HETATM   13  C   UNL     1     -44.231  56.751 -59.370  1.00  0.00    -0.023 A 
HETATM   14  C   UNL     1     -45.363  57.467 -58.939  1.00  0.00     0.009 A 
HETATM   15  C   UNL     1     -46.629  57.173 -59.447  1.00  0.00     0.001 A 
HETATM   16  C   UNL     1     -46.784  56.159 -60.388  1.00  0.00     0.000 A 
HETATM   17  C   UNL     1     -45.677  55.433 -60.818  1.00  0.00     0.001 A 
HETATM   18  C   UNL     1     -44.409  55.722 -60.311  1.00  0.00     0.009 A 
ENDBRANCH   4  13
ENDBRANCH   1   4
BRANCH   1  19
HETATM   19  C   UNL     1     -42.763  55.482 -56.859  1.00  0.00     0.336 C 
BRANCH  19  20
HETATM   20  C   UNL     1     -42.146  55.416 -55.462  1.00  0.00     0.248 C 
HETATM   21  N   UNL     1     -42.238  54.180 -54.857  1.00  0.00    -0.326 N 
HETATM   22  H   UNL     1     -42.722  53.433 -55.346  1.00  0.00     0.169 HD
HETATM   23  O   UNL     1     -41.638  56.442 -55.010  1.00  0.00    -0.271 OA
BRANCH  21  24
HETATM   24  C   UNL     1     -41.736  53.817 -53.584  1.00  0.00     0.037 A 
HETATM   25  C   UNL     1     -42.167  54.398 -52.385  1.00  0.00     0.061 A 
HETATM   26  C   UNL     1     -41.581  53.947 -51.222  1.00  0.00     0.065 A 
HETATM   27  C   UNL     1     -40.602  52.957 -51.212  1.00  0.00     0.063 A 
HETATM   28  N   UNL     1     -41.804  54.338 -49.907  1.00  0.00    -0.306 N 
HETATM   29  N   UNL     1     -40.224  52.739 -49.894  1.00  0.00    -0.307 N 
HETATM   30  C   UNL     1     -40.155  52.365 -52.365  1.00  0.00     0.034 A 
HETATM   31  C   UNL     1     -40.964  53.594 -49.065  1.00  0.00     0.325 A 
HETATM   32  H   UNL     1     -39.536  52.088 -49.547  1.00  0.00     0.170 HD
HETATM   33  O   UNL     1     -40.894  53.676 -47.853  1.00  0.00    -0.247 OA
HETATM   34  C   UNL     1     -40.734  52.808 -53.563  1.00  0.00     0.032 A 
HETATM   35  H   UNL     1     -42.448  55.036 -49.569  1.00  0.00     0.170 HD
ENDBRANCH  21  24
ENDBRANCH  19  20
ENDBRANCH   1  19
TORSDOF 7
ENDMDL
MODEL 6
REMARK VINA RESULT:      -7.5      3.033      5.243
REMARK  7 active torsions:
REMARK  status: ('A' for Active; 'I' for Inactive)
REMARK    1  A    between atoms: O_2  and  C_3 
REMARK    2  A    between atoms: C_6  and  C_7 
REMARK    3  A    between atoms: C_7  and  N_8 
REMARK    4  A    between atoms: C_7  and  C_25 
REMARK    5  A    between atoms: N_8  and  C_11 
REMARK    6  A    between atoms: C_11  and  C_12 
REMARK       I    between atoms: C_12  and  N_13 
REMARK    7  A    between atoms: N_13  and  C_14 
ROOT
HETATM    1  N   UNL     1     -43.514  55.671 -52.724  1.00  0.00    -0.055 N 
HETATM    2  H   UNL     1     -43.924  54.787 -53.067  1.00  0.00     0.278 HD
HETATM    3  H   UNL     1     -43.499  55.552 -51.707  1.00  0.00     0.278 HD
ENDROOT
BRANCH   1   4
HETATM    4  C   UNL     1     -42.128  55.815 -53.261  1.00  0.00     0.252 C 
BRANCH   4   5
HETATM    5  C   UNL     1     -41.372  54.496 -53.272  1.00  0.00    -0.023 A 
HETATM    6  C   UNL     1     -40.956  53.930 -52.053  1.00  0.00     0.012 A 
HETATM    7  C   UNL     1     -40.283  52.702 -52.015  1.00  0.00     0.037 A 
HETATM    8  C   UNL     1     -40.021  52.012 -53.195  1.00  0.00     0.068 A 
HETATM    9  C   UNL     1     -40.425  52.566 -54.409  1.00  0.00     0.037 A 
HETATM   10  C   UNL     1     -41.098  53.791 -54.454  1.00  0.00     0.012 A 
BRANCH   8  11
HETATM   11  O   UNL     1     -39.386  50.807 -53.299  1.00  0.00    -0.356 OA
HETATM   12  C   UNL     1     -39.711  49.998 -54.424  1.00  0.00     0.210 C 
ENDBRANCH   8  11
ENDBRANCH   4   5
BRANCH   4  13
HETATM   13  C   UNL     1     -41.362  56.942 -52.590  1.00  0.00    -0.023 A 
HETATM   14  C   UNL     1     -40.688  57.891 -53.380  1.00  0.00     0.009 A 
HETATM   15  C   UNL     1     -39.996  58.949 -52.789  1.00  0.00     0.001 A 
HETATM   16  C   UNL     1     -39.962  59.073 -51.404  1.00  0.00     0.000 A 
HETATM   17  C   UNL     1     -40.614  58.137 -50.605  1.00  0.00     0.001 A 
HETATM   18  C   UNL     1     -41.307  57.076 -51.191  1.00  0.00     0.009 A 
ENDBRANCH   4  13
ENDBRANCH   1   4
BRANCH   1  19
HETATM   19  C   UNL     1     -44.480  56.776 -53.072  1.00  0.00     0.336 C 
BRANCH  19  20
HETATM   20  C   UNL     1     -44.653  57.705 -51.870  1.00  0.00     0.248 C 
HETATM   21  N   UNL     1     -44.235  59.001 -52.088  1.00  0.00    -0.326 N 
HETATM   22  H   UNL     1     -43.825  59.236 -52.986  1.00  0.00     0.169 HD
HETATM   23  O   UNL     1     -45.132  57.228 -50.842  1.00  0.00    -0.271 OA
BRANCH  21  24
HETATM   24  C   UNL     1     -44.297  60.079 -51.173  1.00  0.00     0.037 A 
HETATM   25  C   UNL     1     -45.417  60.360 -50.380  1.00  0.00     0.061 A 
HETATM   26  C   UNL     1     -45.333  61.449 -49.539  1.00  0.00     0.065 A 
HETATM   27  C   UNL     1     -44.197  62.250 -49.461  1.00  0.00     0.063 A 
HETATM   28  N   UNL     1     -46.277  61.961 -48.655  1.00  0.00    -0.306 N 
HETATM   29  N   UNL     1     -44.440  63.251 -48.530  1.00  0.00    -0.307 N 
HETATM   30  C   UNL     1     -43.082  62.006 -50.220  1.00  0.00     0.034 A 
HETATM   31  C   UNL     1     -45.734  63.087 -48.017  1.00  0.00     0.325 A 
HETATM   32  H   UNL     1     -43.819  63.993 -48.243  1.00  0.00     0.170 HD
HETATM   33  O   UNL     1     -46.282  63.783 -47.183  1.00  0.00    -0.247 OA
HETATM   34  C   UNL     1     -43.143  60.904 -51.086  1.00  0.00     0.032 A 
HETATM   35  H   UNL     1     -47.206  61.616 -48.473  1.00  0.00     0.170 HD
ENDBRANCH  21  24
ENDBRANCH  19  20
ENDBRANCH   1  19
TORSDOF 7
ENDMDL
MODEL 7
REMARK VINA RESULT:      -7.5      3.784      6.764
REMARK  7 active torsions:
REMARK  status: ('A' for Active; 'I' for Inactive)
REMARK    1  A    between atoms: O_2  and  C_3 
REMARK    2  A    between atoms: C_6  and  C_7 
REMARK    3  A    between atoms: C_7  and  N_8 
REMARK    4  A    between atoms: C_7  and  C_25 
REMARK    5  A    between atoms: N_8  and  C_11 
REMARK    6  A    between atoms: C_11  and  C_12 
REMARK       I    between atoms: C_12  and  N_13 
REMARK    7  A    between atoms: N_13  and  C_14 
ROOT
HETATM    1  N   UNL     1     -42.875  54.911 -55.033  1.00  0.00    -0.055 N 
HETATM    2  H   UNL     1     -43.108  53.926 -54.819  1.00  0.00     0.278 HD
HETATM    3  H   UNL     1     -43.635  55.440 -54.594  1.00  0.00     0.278 HD
ENDROOT
BRANCH   1   4
HETATM    4  C   UNL     1     -41.562  55.254 -54.410  1.00  0.00     0.252 C 
BRANCH   4   5
HETATM    5  C   UNL     1     -40.909  54.057 -53.739  1.00  0.00    -0.023 A 
HETATM    6  C   UNL     1     -40.795  54.029 -52.336  1.00  0.00     0.012 A 
HETATM    7  C   UNL     1     -40.228  52.933 -51.676  1.00  0.00     0.037 A 
HETATM    8  C   UNL     1     -39.770  51.838 -52.403  1.00  0.00     0.068 A 
HETATM    9  C   UNL     1     -39.874  51.856 -53.794  1.00  0.00     0.037 A 
HETATM   10  C   UNL     1     -40.440  52.947 -54.459  1.00  0.00     0.012 A 
BRANCH   8  11
HETATM   11  O   UNL     1     -39.208  50.705 -51.887  1.00  0.00    -0.356 OA
HETATM   12  C   UNL     1     -39.825  50.142 -50.734  1.00  0.00     0.210 C 
ENDBRANCH   8  11
ENDBRANCH   4   5
BRANCH   4  13
HETATM   13  C   UNL     1     -41.651  56.474 -53.509  1.00  0.00    -0.023 A 
HETATM   14  C   UNL     1     -40.639  57.450 -53.558  1.00  0.00     0.009 A 
HETATM   15  C   UNL     1     -40.708  58.591 -52.757  1.00  0.00     0.001 A 
HETATM   16  C   UNL     1     -41.785  58.772 -51.894  1.00  0.00     0.000 A 
HETATM   17  C   UNL     1     -42.791  57.813 -51.824  1.00  0.00     0.001 A 
HETATM   18  C   UNL     1     -42.725  56.668 -52.622  1.00  0.00     0.009 A 
ENDBRANCH   4  13
ENDBRANCH   1   4
BRANCH   1  19
HETATM   19  C   UNL     1     -42.965  55.076 -56.529  1.00  0.00     0.336 C 
BRANCH  19  20
HETATM   20  C   UNL     1     -43.082  56.560 -56.876  1.00  0.00     0.248 C 
HETATM   21  N   UNL     1     -42.131  57.014 -57.766  1.00  0.00    -0.326 N 
HETATM   22  H   UNL     1     -41.422  56.366 -58.093  1.00  0.00     0.169 HD
HETATM   23  O   UNL     1     -43.986  57.203 -56.344  1.00  0.00    -0.271 OA
BRANCH  21  24
HETATM   24  C   UNL     1     -42.011  58.325 -58.285  1.00  0.00     0.037 A 
HETATM   25  C   UNL     1     -41.743  59.451 -57.496  1.00  0.00     0.061 A 
HETATM   26  C   UNL     1     -41.661  60.665 -58.143  1.00  0.00     0.065 A 
HETATM   27  C   UNL     1     -41.830  60.795 -59.518  1.00  0.00     0.063 A 
HETATM   28  N   UNL     1     -41.415  61.932 -57.623  1.00  0.00    -0.306 N 
HETATM   29  N   UNL     1     -41.687  62.137 -59.845  1.00  0.00    -0.307 N 
HETATM   30  C   UNL     1     -42.092  59.716 -60.323  1.00  0.00     0.034 A 
HETATM   31  C   UNL     1     -41.429  62.862 -58.673  1.00  0.00     0.325 A 
HETATM   32  H   UNL     1     -41.755  62.562 -60.757  1.00  0.00     0.170 HD
HETATM   33  O   UNL     1     -41.252  64.062 -58.582  1.00  0.00    -0.247 OA
HETATM   34  C   UNL     1     -42.184  58.469 -59.689  1.00  0.00     0.032 A 
HETATM   35  H   UNL     1     -41.251  62.185 -56.661  1.00  0.00     0.170 HD
ENDBRANCH  21  24
ENDBRANCH  19  20
ENDBRANCH   1  19
TORSDOF 7
ENDMDL
MODEL 8
REMARK VINA RESULT:      -7.5      3.640      7.980
REMARK  7 active torsions:
REMARK  status: ('A' for Active; 'I' for Inactive)
REMARK    1  A    between atoms: O_2  and  C_3 
REMARK    2  A    between atoms: C_6  and  C_7 
REMARK    3  A    between atoms: C_7  and  N_8 
REMARK    4  A    between atoms: C_7  and  C_25 
REMARK    5  A    between atoms: N_8  and  C_11 
REMARK    6  A    between atoms: C_11  and  C_12 
REMARK       I    between atoms: C_12  and  N_13 
REMARK    7  A    between atoms: N_13  and  C_14 
ROOT
HETATM    1  N   UNL     1     -42.467  56.198 -57.598  1.00  0.00    -0.055 N 
HETATM    2  H   UNL     1     -42.206  55.819 -58.524  1.00  0.00     0.278 HD
HETATM    3  H   UNL     1     -41.587  56.578 -57.236  1.00  0.00     0.278 HD
ENDROOT
BRANCH   1   4
HETATM    4  C   UNL     1     -43.479  57.282 -57.776  1.00  0.00     0.252 C 
BRANCH   4   5
HETATM    5  C   UNL     1     -44.498  56.951 -58.854  1.00  0.00    -0.023 A 
HETATM    6  C   UNL     1     -44.154  56.043 -59.873  1.00  0.00     0.012 A 
HETATM    7  C   UNL     1     -45.072  55.687 -60.868  1.00  0.00     0.037 A 
HETATM    8  C   UNL     1     -46.356  56.224 -60.860  1.00  0.00     0.068 A 
HETATM    9  C   UNL     1     -46.707  57.128 -59.857  1.00  0.00     0.037 A 
HETATM   10  C   UNL     1     -45.795  57.487 -58.860  1.00  0.00     0.012 A 
BRANCH   8  11
HETATM   11  O   UNL     1     -47.348  55.956 -61.760  1.00  0.00    -0.356 OA
HETATM   12  C   UNL     1     -48.269  57.004 -62.042  1.00  0.00     0.210 C 
ENDBRANCH   8  11
ENDBRANCH   4   5
BRANCH   4  13
HETATM   13  C   UNL     1     -42.838  58.648 -57.953  1.00  0.00    -0.023 A 
HETATM   14  C   UNL     1     -42.592  59.452 -56.825  1.00  0.00     0.009 A 
HETATM   15  C   UNL     1     -41.984  60.701 -56.958  1.00  0.00     0.001 A 
HETATM   16  C   UNL     1     -41.617  61.167 -58.217  1.00  0.00     0.000 A 
HETATM   17  C   UNL     1     -41.861  60.390 -59.345  1.00  0.00     0.001 A 
HETATM   18  C   UNL     1     -42.471  59.140 -59.218  1.00  0.00     0.009 A 
ENDBRANCH   4  13
ENDBRANCH   1   4
BRANCH   1  19
HETATM   19  C   UNL     1     -42.885  55.031 -56.739  1.00  0.00     0.336 C 
BRANCH  19  20
HETATM   20  C   UNL     1     -42.139  55.082 -55.406  1.00  0.00     0.248 C 
HETATM   21  N   UNL     1     -42.368  53.998 -54.584  1.00  0.00    -0.326 N 
HETATM   22  H   UNL     1     -43.018  53.282 -54.892  1.00  0.00     0.169 HD
HETATM   23  O   UNL     1     -41.424  56.058 -55.186  1.00  0.00    -0.271 OA
BRANCH  21  24
HETATM   24  C   UNL     1     -41.797  53.762 -53.311  1.00  0.00     0.037 A 
HETATM   25  C   UNL     1     -42.249  54.370 -52.132  1.00  0.00     0.061 A 
HETATM   26  C   UNL     1     -41.589  54.047 -50.966  1.00  0.00     0.065 A 
HETATM   27  C   UNL     1     -40.519  53.158 -50.932  1.00  0.00     0.063 A 
HETATM   28  N   UNL     1     -41.813  54.494 -49.668  1.00  0.00    -0.306 N 
HETATM   29  N   UNL     1     -40.085  53.056 -49.617  1.00  0.00    -0.307 N 
HETATM   30  C   UNL     1     -40.049  52.543 -52.064  1.00  0.00     0.034 A 
HETATM   31  C   UNL     1     -40.881  53.885 -48.814  1.00  0.00     0.325 A 
HETATM   32  H   UNL     1     -39.328  52.496 -49.257  1.00  0.00     0.170 HD
HETATM   33  O   UNL     1     -40.785  54.046 -47.612  1.00  0.00    -0.247 OA
HETATM   34  C   UNL     1     -40.702  52.856 -53.265  1.00  0.00     0.032 A 
HETATM   35  H   UNL     1     -42.511  55.147 -49.350  1.00  0.00     0.170 HD
ENDBRANCH  21  24
ENDBRANCH  19  20
ENDBRANCH   1  19
TORSDOF 7
ENDMDL
MODEL 9
REMARK VINA RESULT:      -7.4      3.892      8.580
REMARK  7 active torsions:
REMARK  status: ('A' for Active; 'I' for Inactive)
REMARK    1  A    between atoms: O_2  and  C_3 
REMARK    2  A    between atoms: C_6  and  C_7 
REMARK    3  A    between atoms: C_7  and  N_8 
REMARK    4  A    between atoms: C_7  and  C_25 
REMARK    5  A    between atoms: N_8  and  C_11 
REMARK    6  A    between atoms: C_11  and  C_12 
REMARK       I    between atoms: C_12  and  N_13 
REMARK    7  A    between atoms: N_13  and  C_14 
ROOT
HETATM    1  N   UNL     1     -41.715  60.096 -57.026  1.00  0.00    -0.055 N 
HETATM    2  H   UNL     1     -41.019  59.342 -57.153  1.00  0.00     0.278 HD
HETATM    3  H   UNL     1     -41.155  60.889 -56.699  1.00  0.00     0.278 HD
ENDROOT
BRANCH   1   4
HETATM    4  C   UNL     1     -42.355  60.404 -58.339  1.00  0.00     0.252 C 
BRANCH   4   5
HETATM    5  C   UNL     1     -42.816  59.152 -59.066  1.00  0.00    -0.023 A 
HETATM    6  C   UNL     1     -41.903  58.101 -59.276  1.00  0.00     0.012 A 
HETATM    7  C   UNL     1     -42.293  56.918 -59.915  1.00  0.00     0.037 A 
HETATM    8  C   UNL     1     -43.606  56.757 -60.349  1.00  0.00     0.068 A 
HETATM    9  C   UNL     1     -44.518  57.793 -60.150  1.00  0.00     0.037 A 
HETATM   10  C   UNL     1     -44.135  58.977 -59.512  1.00  0.00     0.012 A 
BRANCH   8  11
HETATM   11  O   UNL     1     -44.120  55.656 -60.973  1.00  0.00    -0.356 OA
HETATM   12  C   UNL     1     -45.060  54.876 -60.243  1.00  0.00     0.210 C 
ENDBRANCH   8  11
ENDBRANCH   4   5
BRANCH   4  13
HETATM   13  C   UNL     1     -41.499  61.318 -59.199  1.00  0.00    -0.023 A 
HETATM   14  C   UNL     1     -40.447  62.043 -58.608  1.00  0.00     0.009 A 
HETATM   15  C   UNL     1     -39.632  62.873 -59.380  1.00  0.00     0.001 A 
HETATM   16  C   UNL     1     -39.855  62.994 -60.748  1.00  0.00     0.000 A 
HETATM   17  C   UNL     1     -40.897  62.293 -61.347  1.00  0.00     0.001 A 
HETATM   18  C   UNL     1     -41.718  61.463 -60.580  1.00  0.00     0.009 A 
ENDBRANCH   4  13
ENDBRANCH   1   4
BRANCH   1  19
HETATM   19  C   UNL     1     -42.642  59.665 -55.918  1.00  0.00     0.336 C 
BRANCH  19  20
HETATM   20  C   UNL     1     -41.908  58.713 -54.974  1.00  0.00     0.248 C 
HETATM   21  N   UNL     1     -42.284  57.391 -55.091  1.00  0.00    -0.326 N 
HETATM   22  H   UNL     1     -43.020  57.151 -55.748  1.00  0.00     0.169 HD
HETATM   23  O   UNL     1     -41.072  59.195 -54.210  1.00  0.00    -0.271 OA
BRANCH  21  24
HETATM   24  C   UNL     1     -41.761  56.291 -54.371  1.00  0.00     0.037 A 
HETATM   25  C   UNL     1     -41.935  56.112 -52.992  1.00  0.00     0.061 A 
HETATM   26  C   UNL     1     -41.360  54.994 -52.427  1.00  0.00     0.065 A 
HETATM   27  C   UNL     1     -40.635  54.068 -53.171  1.00  0.00     0.063 A 
HETATM   28  N   UNL     1     -41.365  54.568 -51.103  1.00  0.00    -0.306 N 
HETATM   29  N   UNL     1     -40.195  53.073 -52.307  1.00  0.00    -0.307 N 
HETATM   30  C   UNL     1     -40.443  54.209 -54.521  1.00  0.00     0.034 A 
HETATM   31  C   UNL     1     -40.641  53.370 -51.012  1.00  0.00     0.325 A 
HETATM   32  H   UNL     1     -39.643  52.259 -52.531  1.00  0.00     0.170 HD
HETATM   33  O   UNL     1     -40.441  52.718 -50.004  1.00  0.00    -0.247 OA
HETATM   34  C   UNL     1     -41.016  55.340 -55.120  1.00  0.00     0.032 A 
HETATM   35  H   UNL     1     -41.799  55.014 -50.311  1.00  0.00     0.170 HD
ENDBRANCH  21  24
ENDBRANCH  19  20
ENDBRANCH   1  19
TORSDOF 7
ENDMDL
MODEL 10
REMARK VINA RESULT:      -7.4     15.661     18.718
REMARK  7 active torsions:
REMARK  status: ('A' for Active; 'I' for Inactive)
REMARK    1  A    between atoms: O_2  and  C_3 
REMARK    2  A    between atoms: C_6  and  C_7 
REMARK    3  A    between atoms: C_7  and  N_8 
REMARK    4  A    between atoms: C_7  and  C_25 
REMARK    5  A    between atoms: N_8  and  C_11 
REMARK    6  A    between atoms: C_11  and  C_12 
REMARK       I    between atoms: C_12  and  N_13 
REMARK    7  A    between atoms: N_13  and  C_14 
ROOT
HETATM    1  N   UNL     1     -34.632  41.873 -53.568  1.00  0.00    -0.055 N 
HETATM    2  H   UNL     1     -34.253  42.411 -52.771  1.00  0.00     0.278 HD
HETATM    3  H   UNL     1     -34.124  42.247 -54.375  1.00  0.00     0.278 HD
ENDROOT
BRANCH   1   4
HETATM    4  C   UNL     1     -34.328  40.423 -53.376  1.00  0.00     0.252 C 
BRANCH   4   5
HETATM    5  C   UNL     1     -33.578  40.156 -52.081  1.00  0.00    -0.023 A 
HETATM    6  C   UNL     1     -34.291  39.724 -50.948  1.00  0.00     0.012 A 
HETATM    7  C   UNL     1     -33.636  39.438 -49.743  1.00  0.00     0.037 A 
HETATM    8  C   UNL     1     -32.253  39.570 -49.651  1.00  0.00     0.068 A 
HETATM    9  C   UNL     1     -31.537  40.002 -50.767  1.00  0.00     0.037 A 
HETATM   10  C   UNL     1     -32.185  40.288 -51.972  1.00  0.00     0.012 A 
BRANCH   8  11
HETATM   11  O   UNL     1     -31.492  39.315 -48.546  1.00  0.00    -0.356 OA
HETATM   12  C   UNL     1     -31.943  38.289 -47.669  1.00  0.00     0.210 C 
ENDBRANCH   8  11
ENDBRANCH   4   5
BRANCH   4  13
HETATM   13  C   UNL     1     -33.663  39.806 -54.594  1.00  0.00    -0.023 A 
HETATM   14  C   UNL     1     -32.904  40.618 -55.457  1.00  0.00     0.009 A 
HETATM   15  C   UNL     1     -32.265  40.072 -56.571  1.00  0.00     0.001 A 
HETATM   16  C   UNL     1     -32.377  38.712 -56.842  1.00  0.00     0.000 A 
HETATM   17  C   UNL     1     -33.132  37.895 -56.006  1.00  0.00     0.001 A 
HETATM   18  C   UNL     1     -33.776  38.436 -54.891  1.00  0.00     0.009 A 
ENDBRANCH   4  13
ENDBRANCH   1   4
BRANCH   1  19
HETATM   19  C   UNL     1     -36.090  42.235 -53.697  1.00  0.00     0.336 C 
BRANCH  19  20
HETATM   20  C   UNL     1     -36.678  41.564 -54.939  1.00  0.00     0.248 C 
HETATM   21  N   UNL     1     -36.036  41.882 -56.117  1.00  0.00    -0.326 N 
HETATM   22  H   UNL     1     -35.265  42.542 -56.088  1.00  0.00     0.169 HD
HETATM   23  O   UNL     1     -37.649  40.824 -54.784  1.00  0.00    -0.271 OA
BRANCH  21  24
HETATM   24  C   UNL     1     -36.341  41.394 -57.409  1.00  0.00     0.037 A 
HETATM   25  C   UNL     1     -35.970  40.123 -57.867  1.00  0.00     0.061 A 
HETATM   26  C   UNL     1     -36.331  39.789 -59.154  1.00  0.00     0.065 A 
HETATM   27  C   UNL     1     -37.036  40.657 -59.984  1.00  0.00     0.063 A 
HETATM   28  N   UNL     1     -36.097  38.617 -59.865  1.00  0.00    -0.306 N 
HETATM   29  N   UNL     1     -37.237  40.020 -61.202  1.00  0.00    -0.307 N 
HETATM   30  C   UNL     1     -37.417  41.908 -59.571  1.00  0.00     0.034 A 
HETATM   31  C   UNL     1     -36.656  38.746 -61.146  1.00  0.00     0.325 A 
HETATM   32  H   UNL     1     -37.711  40.379 -62.016  1.00  0.00     0.170 HD
HETATM   33  O   UNL     1     -36.638  37.913 -62.033  1.00  0.00    -0.247 OA
HETATM   34  C   UNL     1     -37.059  42.273 -58.266  1.00  0.00     0.032 A 
HETATM   35  H   UNL     1     -35.610  37.791 -59.554  1.00  0.00     0.170 HD
ENDBRANCH  21  24
ENDBRANCH  19  20
ENDBRANCH   1  19
TORSDOF 7
ENDMDL
