MODEL 1
REMARK VINA RESULT:      -7.7      0.000      0.000
REMARK  6 active torsions:
REMARK  status: ('A' for Active; 'I' for Inactive)
REMARK    1  A    between atoms: C_8  and  C_9 
REMARK    2  A    between atoms: C_9  and  C_10 
REMARK       I    between atoms: C_10  and  N_11 
REMARK    3  A    between atoms: N_11  and  C_12 
REMARK    4  A    between atoms: C_12  and  C_13 
REMARK    5  A    between atoms: C_13  and  N_14 
REMARK    6  A    between atoms: C_13  and  C_20 
ROOT
HETATM    1  C   UNL     1     -41.607  55.720 -55.462  1.00  0.00     0.160 C 
ENDROOT
BRANCH   1   2
HETATM    2  N   UNL     1     -42.276  55.680 -56.757  1.00  0.00    -0.358 N 
HETATM    3  C   UNL     1     -42.390  56.834 -57.510  1.00  0.00     0.226 C 
HETATM    4  O   UNL     1     -42.192  57.927 -56.973  1.00  0.00    -0.273 OA
HETATM    5  H   UNL     1     -42.238  54.801 -57.262  1.00  0.00     0.162 HD
BRANCH   3   6
HETATM    6  C   UNL     1     -42.841  56.688 -58.969  1.00  0.00     0.111 C 
HETATM    7  C   UNL     1     -42.155  57.660 -59.929  1.00  0.00     0.025 C 
BRANCH   6   8
HETATM    8  C   UNL     1     -44.336  56.691 -59.120  1.00  0.00     0.004 A 
HETATM    9  C   UNL     1     -45.108  55.642 -59.602  1.00  0.00     0.033 A 
HETATM   10  C   UNL     1     -44.754  54.282 -60.076  1.00  0.00     0.070 C 
HETATM   11  N   UNL     1     -46.401  56.081 -59.587  1.00  0.00    -0.282 N 
HETATM   12  H   UNL     1     -47.240  55.583 -59.871  1.00  0.00     0.189 HD
HETATM   13  N   UNL     1     -46.531  57.335 -59.147  1.00  0.00    -0.179 NA
HETATM   14  C   UNL     1     -45.285  57.728 -58.870  1.00  0.00     0.060 A 
HETATM   15  C   UNL     1     -45.079  59.112 -58.379  1.00  0.00     0.073 C 
ENDBRANCH   6   8
ENDBRANCH   3   6
ENDBRANCH   1   2
BRANCH   1  16
HETATM   16  C   UNL     1     -42.368  55.075 -54.250  1.00  0.00     0.238 C 
BRANCH  16  17
HETATM   17  N   UNL     1     -42.898  56.140 -53.274  1.00  0.00    -0.061 N 
HETATM   18  H   UNL     1     -42.718  55.757 -52.321  1.00  0.00     0.280 HD
HETATM   19  C   UNL     1     -44.359  56.522 -53.368  1.00  0.00     0.236 C 
HETATM   20  C   UNL     1     -44.349  57.760 -54.235  1.00  0.00     0.029 C 
HETATM   21  C   UNL     1     -43.171  58.528 -53.679  1.00  0.00     0.029 C 
HETATM   22  C   UNL     1     -42.136  57.464 -53.356  1.00  0.00     0.236 C 
ENDBRANCH  16  17
BRANCH  16  23
HETATM   23  C   UNL     1     -41.491  53.998 -53.630  1.00  0.00    -0.024 A 
HETATM   24  C   UNL     1     -41.129  52.836 -54.337  1.00  0.00     0.033 A 
HETATM   25  C   UNL     1     -40.315  51.870 -53.740  1.00  0.00     0.034 A 
HETATM   26 CL   UNL     1     -39.867  50.473 -54.633  1.00  0.00    -0.084 Cl
HETATM   27  C   UNL     1     -39.860  52.036 -52.436  1.00  0.00     0.024 A 
HETATM   28  C   UNL     1     -40.215  53.179 -51.721  1.00  0.00     0.002 A 
HETATM   29  C   UNL     1     -41.022  54.153 -52.312  1.00  0.00     0.009 A 
ENDBRANCH  16  23
ENDBRANCH   1  16
TORSDOF 6
ENDMDL
MODEL 2
REMARK VINA RESULT:      -7.5      1.333      1.865
REMARK  6 active torsions:
REMARK  status: ('A' for Active; 'I' for Inactive)
REMARK    1  A    between atoms: C_8  and  C_9 
REMARK    2  A    between atoms: C_9  and  C_10 
REMARK       I    between atoms: C_10  and  N_11 
REMARK    3  A    between atoms: N_11  and  C_12 
REMARK    4  A    between atoms: C_12  and  C_13 
REMARK    5  A    between atoms: C_13  and  N_14 
REMARK    6  A    between atoms: C_13  and  C_20 
ROOT
HETATM    1  C   UNL     1     -43.714  56.851 -55.092  1.00  0.00     0.160 C 
ENDROOT
BRANCH   1   2
HETATM    2  N   UNL     1     -43.933  56.603 -56.513  1.00  0.00    -0.358 N 
HETATM    3  C   UNL     1     -43.053  57.118 -57.446  1.00  0.00     0.226 C 
HETATM    4  O   UNL     1     -42.269  58.009 -57.109  1.00  0.00    -0.273 OA
HETATM    5  H   UNL     1     -44.413  55.742 -56.756  1.00  0.00     0.162 HD
BRANCH   3   6
HETATM    6  C   UNL     1     -43.162  56.600 -58.886  1.00  0.00     0.111 C 
HETATM    7  C   UNL     1     -42.236  57.313 -59.872  1.00  0.00     0.025 C 
BRANCH   6   8
HETATM    8  C   UNL     1     -44.581  56.532 -59.376  1.00  0.00     0.004 A 
HETATM    9  C   UNL     1     -45.246  55.386 -59.788  1.00  0.00     0.033 A 
HETATM   10  C   UNL     1     -44.827  53.966 -59.866  1.00  0.00     0.070 C 
HETATM   11  N   UNL     1     -46.496  55.785 -60.167  1.00  0.00    -0.282 N 
HETATM   12  H   UNL     1     -47.258  55.216 -60.524  1.00  0.00     0.189 HD
HETATM   13  N   UNL     1     -46.693  57.100 -60.047  1.00  0.00    -0.179 NA
HETATM   14  C   UNL     1     -45.535  57.575 -59.580  1.00  0.00     0.060 A 
HETATM   15  C   UNL     1     -45.414  59.037 -59.361  1.00  0.00     0.073 C 
ENDBRANCH   6   8
ENDBRANCH   3   6
ENDBRANCH   1   2
BRANCH   1  16
HETATM   16  C   UNL     1     -43.684  55.597 -54.149  1.00  0.00     0.238 C 
BRANCH  16  17
HETATM   17  N   UNL     1     -44.014  55.967 -52.692  1.00  0.00    -0.061 N 
HETATM   18  H   UNL     1     -45.027  55.753 -52.573  1.00  0.00     0.280 HD
HETATM   19  C   UNL     1     -43.772  57.396 -52.254  1.00  0.00     0.236 C 
HETATM   20  C   UNL     1     -42.404  57.346 -51.612  1.00  0.00     0.029 C 
HETATM   21  C   UNL     1     -42.480  56.073 -50.800  1.00  0.00     0.029 C 
HETATM   22  C   UNL     1     -43.268  55.108 -51.670  1.00  0.00     0.236 C 
ENDBRANCH  16  17
BRANCH  16  23
HETATM   23  C   UNL     1     -42.373  54.854 -54.353  1.00  0.00    -0.024 A 
HETATM   24  C   UNL     1     -42.288  53.453 -54.241  1.00  0.00     0.033 A 
HETATM   25  C   UNL     1     -41.069  52.801 -54.441  1.00  0.00     0.034 A 
HETATM   26 CL   UNL     1     -40.997  51.088 -54.323  1.00  0.00    -0.084 Cl
HETATM   27  C   UNL     1     -39.920  53.524 -54.744  1.00  0.00     0.024 A 
HETATM   28  C   UNL     1     -39.988  54.912 -54.853  1.00  0.00     0.002 A 
HETATM   29  C   UNL     1     -41.202  55.573 -54.661  1.00  0.00     0.009 A 
ENDBRANCH  16  23
ENDBRANCH   1  16
TORSDOF 6
ENDMDL
MODEL 3
REMARK VINA RESULT:      -7.3      2.094      3.015
REMARK  6 active torsions:
REMARK  status: ('A' for Active; 'I' for Inactive)
REMARK    1  A    between atoms: C_8  and  C_9 
REMARK    2  A    between atoms: C_9  and  C_10 
REMARK       I    between atoms: C_10  and  N_11 
REMARK    3  A    between atoms: N_11  and  C_12 
REMARK    4  A    between atoms: C_12  and  C_13 
REMARK    5  A    between atoms: C_13  and  N_14 
REMARK    6  A    between atoms: C_13  and  C_20 
ROOT
HETATM    1  C   UNL     1     -41.436  56.556 -54.600  1.00  0.00     0.160 C 
ENDROOT
BRANCH   1   2
HETATM    2  N   UNL     1     -42.458  56.917 -55.576  1.00  0.00    -0.358 N 
HETATM    3  C   UNL     1     -42.523  58.211 -56.058  1.00  0.00     0.226 C 
HETATM    4  O   UNL     1     -41.922  59.109 -55.462  1.00  0.00    -0.273 OA
HETATM    5  H   UNL     1     -42.782  56.178 -56.191  1.00  0.00     0.162 HD
BRANCH   3   6
HETATM    6  C   UNL     1     -43.418  58.470 -57.276  1.00  0.00     0.111 C 
HETATM    7  C   UNL     1     -44.863  58.005 -57.093  1.00  0.00     0.025 C 
BRANCH   6   8
HETATM    8  C   UNL     1     -42.814  57.977 -58.560  1.00  0.00     0.004 A 
HETATM    9  C   UNL     1     -42.164  58.757 -59.506  1.00  0.00     0.033 A 
HETATM   10  C   UNL     1     -41.860  60.207 -59.562  1.00  0.00     0.070 C 
HETATM   11  N   UNL     1     -41.796  57.910 -60.513  1.00  0.00    -0.282 N 
HETATM   12  H   UNL     1     -41.300  58.129 -61.372  1.00  0.00     0.189 HD
HETATM   13  N   UNL     1     -42.167  56.644 -60.303  1.00  0.00    -0.179 NA
HETATM   14  C   UNL     1     -42.799  56.667 -59.127  1.00  0.00     0.060 A 
HETATM   15  C   UNL     1     -43.369  55.398 -58.613  1.00  0.00     0.073 C 
ENDBRANCH   6   8
ENDBRANCH   3   6
ENDBRANCH   1   2
BRANCH   1  16
HETATM   16  C   UNL     1     -41.913  55.755 -53.338  1.00  0.00     0.238 C 
BRANCH  16  17
HETATM   17  N   UNL     1     -41.800  56.592 -52.052  1.00  0.00    -0.061 N 
HETATM   18  H   UNL     1     -41.186  56.042 -51.414  1.00  0.00     0.280 HD
HETATM   19  C   UNL     1     -43.077  56.930 -51.313  1.00  0.00     0.236 C 
HETATM   20  C   UNL     1     -43.428  58.311 -51.819  1.00  0.00     0.029 C 
HETATM   21  C   UNL     1     -42.083  59.002 -51.814  1.00  0.00     0.029 C 
HETATM   22  C   UNL     1     -41.101  57.936 -52.268  1.00  0.00     0.236 C 
ENDBRANCH  16  17
BRANCH  16  23
HETATM   23  C   UNL     1     -41.202  54.410 -53.305  1.00  0.00    -0.024 A 
HETATM   24  C   UNL     1     -40.970  53.722 -52.099  1.00  0.00     0.033 A 
HETATM   25  C   UNL     1     -40.320  52.485 -52.105  1.00  0.00     0.034 A 
HETATM   26 CL   UNL     1     -40.072  51.653 -50.622  1.00  0.00    -0.084 Cl
HETATM   27  C   UNL     1     -39.884  51.920 -53.299  1.00  0.00     0.024 A 
HETATM   28  C   UNL     1     -40.102  52.593 -54.500  1.00  0.00     0.002 A 
HETATM   29  C   UNL     1     -40.756  53.826 -54.505  1.00  0.00     0.009 A 
ENDBRANCH  16  23
ENDBRANCH   1  16
TORSDOF 6
ENDMDL
MODEL 4
REMARK VINA RESULT:      -7.2      1.111      2.132
REMARK  6 active torsions:
REMARK  status: ('A' for Active; 'I' for Inactive)
REMARK    1  A    between atoms: C_8  and  C_9 
REMARK    2  A    between atoms: C_9  and  C_10 
REMARK       I    between atoms: C_10  and  N_11 
REMARK    3  A    between atoms: N_11  and  C_12 
REMARK    4  A    between atoms: C_12  and  C_13 
REMARK    5  A    between atoms: C_13  and  N_14 
REMARK    6  A    between atoms: C_13  and  C_20 
ROOT
HETATM    1  C   UNL     1     -41.760  56.092 -55.660  1.00  0.00     0.160 C 
ENDROOT
BRANCH   1   2
HETATM    2  N   UNL     1     -42.453  56.136 -56.943  1.00  0.00    -0.358 N 
HETATM    3  C   UNL     1     -42.477  57.310 -57.672  1.00  0.00     0.226 C 
HETATM    4  O   UNL     1     -42.173  58.371 -57.119  1.00  0.00    -0.273 OA
HETATM    5  H   UNL     1     -42.503  55.267 -57.464  1.00  0.00     0.162 HD
BRANCH   3   6
HETATM    6  C   UNL     1     -42.965  57.234 -59.124  1.00  0.00     0.111 C 
HETATM    7  C   UNL     1     -42.466  58.379 -60.006  1.00  0.00     0.025 C 
BRANCH   6   8
HETATM    8  C   UNL     1     -44.450  57.032 -59.230  1.00  0.00     0.004 A 
HETATM    9  C   UNL     1     -45.425  57.839 -58.660  1.00  0.00     0.033 A 
HETATM   10  C   UNL     1     -45.341  59.070 -57.838  1.00  0.00     0.070 C 
HETATM   11  N   UNL     1     -46.627  57.280 -58.990  1.00  0.00    -0.282 N 
HETATM   12  H   UNL     1     -47.560  57.599 -58.746  1.00  0.00     0.189 HD
HETATM   13  N   UNL     1     -46.511  56.166 -59.719  1.00  0.00    -0.179 NA
HETATM   14  C   UNL     1     -45.195  55.991 -59.864  1.00  0.00     0.060 A 
HETATM   15  C   UNL     1     -44.725  54.802 -60.615  1.00  0.00     0.073 C 
ENDBRANCH   6   8
ENDBRANCH   3   6
ENDBRANCH   1   2
BRANCH   1  16
HETATM   16  C   UNL     1     -42.526  55.424 -54.463  1.00  0.00     0.238 C 
BRANCH  16  17
HETATM   17  N   UNL     1     -43.041  56.469 -53.458  1.00  0.00    -0.061 N 
HETATM   18  H   UNL     1     -42.886  56.051 -52.517  1.00  0.00     0.280 HD
HETATM   19  C   UNL     1     -44.491  56.894 -53.559  1.00  0.00     0.236 C 
HETATM   20  C   UNL     1     -44.437  58.159 -54.384  1.00  0.00     0.029 C 
HETATM   21  C   UNL     1     -43.247  58.876 -53.787  1.00  0.00     0.029 C 
HETATM   22  C   UNL     1     -42.244  57.775 -53.487  1.00  0.00     0.236 C 
ENDBRANCH  16  17
BRANCH  16  23
HETATM   23  C   UNL     1     -41.660  54.322 -53.872  1.00  0.00    -0.024 A 
HETATM   24  C   UNL     1     -41.465  54.195 -52.484  1.00  0.00     0.033 A 
HETATM   25  C   UNL     1     -40.669  53.167 -51.973  1.00  0.00     0.034 A 
HETATM   26 CL   UNL     1     -40.468  53.018 -50.273  1.00  0.00    -0.084 Cl
HETATM   27  C   UNL     1     -40.048  52.262 -52.827  1.00  0.00     0.024 A 
HETATM   28  C   UNL     1     -40.226  52.379 -54.204  1.00  0.00     0.002 A 
HETATM   29  C   UNL     1     -41.026  53.399 -54.724  1.00  0.00     0.009 A 
ENDBRANCH  16  23
ENDBRANCH   1  16
TORSDOF 6
ENDMDL
MODEL 5
REMARK VINA RESULT:      -7.1      3.189      7.499
REMARK  6 active torsions:
REMARK  status: ('A' for Active; 'I' for Inactive)
REMARK    1  A    between atoms: C_8  and  C_9 
REMARK    2  A    between atoms: C_9  and  C_10 
REMARK       I    between atoms: C_10  and  N_11 
REMARK    3  A    between atoms: N_11  and  C_12 
REMARK    4  A    between atoms: C_12  and  C_13 
REMARK    5  A    between atoms: C_13  and  N_14 
REMARK    6  A    between atoms: C_13  and  C_20 
ROOT
HETATM    1  C   UNL     1     -43.653  57.459 -56.614  1.00  0.00     0.160 C 
ENDROOT
BRANCH   1   2
HETATM    2  N   UNL     1     -42.882  57.537 -55.379  1.00  0.00    -0.358 N 
HETATM    3  C   UNL     1     -42.945  56.506 -54.461  1.00  0.00     0.226 C 
HETATM    4  O   UNL     1     -43.855  55.677 -54.546  1.00  0.00    -0.273 OA
HETATM    5  H   UNL     1     -42.021  58.073 -55.413  1.00  0.00     0.162 HD
BRANCH   3   6
HETATM    6  C   UNL     1     -41.913  56.501 -53.327  1.00  0.00     0.111 C 
HETATM    7  C   UNL     1     -40.763  57.488 -53.531  1.00  0.00     0.025 C 
BRANCH   6   8
HETATM    8  C   UNL     1     -41.430  55.120 -52.984  1.00  0.00     0.004 A 
HETATM    9  C   UNL     1     -41.598  54.478 -51.764  1.00  0.00     0.033 A 
HETATM   10  C   UNL     1     -42.261  54.892 -50.504  1.00  0.00     0.070 C 
HETATM   11  N   UNL     1     -40.991  53.260 -51.886  1.00  0.00    -0.282 N 
HETATM   12  H   UNL     1     -40.914  52.521 -51.193  1.00  0.00     0.189 HD
HETATM   13  N   UNL     1     -40.431  53.064 -53.083  1.00  0.00    -0.179 NA
HETATM   14  C   UNL     1     -40.675  54.189 -53.760  1.00  0.00     0.060 A 
HETATM   15  C   UNL     1     -40.149  54.304 -55.142  1.00  0.00     0.073 C 
ENDBRANCH   6   8
ENDBRANCH   3   6
ENDBRANCH   1   2
BRANCH   1  16
HETATM   16  C   UNL     1     -42.949  56.795 -57.850  1.00  0.00     0.238 C 
BRANCH  16  17
HETATM   17  N   UNL     1     -41.852  57.699 -58.439  1.00  0.00    -0.061 N 
HETATM   18  H   UNL     1     -40.959  57.365 -58.018  1.00  0.00     0.280 HD
HETATM   19  C   UNL     1     -41.963  59.191 -58.203  1.00  0.00     0.236 C 
HETATM   20  C   UNL     1     -42.634  59.702 -59.456  1.00  0.00     0.029 C 
HETATM   21  C   UNL     1     -41.910  58.934 -60.540  1.00  0.00     0.029 C 
HETATM   22  C   UNL     1     -41.698  57.549 -59.953  1.00  0.00     0.236 C 
ENDBRANCH  16  17
BRANCH  16  23
HETATM   23  C   UNL     1     -44.010  56.330 -58.835  1.00  0.00    -0.024 A 
HETATM   24  C   UNL     1     -45.084  57.157 -59.215  1.00  0.00     0.033 A 
HETATM   25  C   UNL     1     -46.038  56.702 -60.128  1.00  0.00     0.034 A 
HETATM   26 CL   UNL     1     -47.326  57.740 -60.595  1.00  0.00    -0.084 Cl
HETATM   27  C   UNL     1     -45.948  55.423 -60.668  1.00  0.00     0.024 A 
HETATM   28  C   UNL     1     -44.894  54.591 -60.297  1.00  0.00     0.002 A 
HETATM   29  C   UNL     1     -43.932  55.039 -59.390  1.00  0.00     0.009 A 
ENDBRANCH  16  23
ENDBRANCH   1  16
TORSDOF 6
ENDMDL
MODEL 6
REMARK VINA RESULT:      -7.1      3.267      5.401
REMARK  6 active torsions:
REMARK  status: ('A' for Active; 'I' for Inactive)
REMARK    1  A    between atoms: C_8  and  C_9 
REMARK    2  A    between atoms: C_9  and  C_10 
REMARK       I    between atoms: C_10  and  N_11 
REMARK    3  A    between atoms: N_11  and  C_12 
REMARK    4  A    between atoms: C_12  and  C_13 
REMARK    5  A    between atoms: C_13  and  N_14 
REMARK    6  A    between atoms: C_13  and  C_20 
ROOT
HETATM    1  C   UNL     1     -43.068  54.463 -52.780  1.00  0.00     0.160 C 
ENDROOT
BRANCH   1   2
HETATM    2  N   UNL     1     -43.676  55.754 -52.480  1.00  0.00    -0.358 N 
HETATM    3  C   UNL     1     -43.305  56.442 -51.341  1.00  0.00     0.226 C 
HETATM    4  O   UNL     1     -42.693  55.848 -50.449  1.00  0.00    -0.273 OA
HETATM    5  H   UNL     1     -43.987  56.307 -53.273  1.00  0.00     0.162 HD
BRANCH   3   6
HETATM    6  C   UNL     1     -43.753  57.904 -51.216  1.00  0.00     0.111 C 
HETATM    7  C   UNL     1     -45.266  58.079 -51.082  1.00  0.00     0.025 C 
BRANCH   6   8
HETATM    8  C   UNL     1     -43.164  58.787 -52.279  1.00  0.00     0.004 A 
HETATM    9  C   UNL     1     -41.882  59.318 -52.279  1.00  0.00     0.033 A 
HETATM   10  C   UNL     1     -40.754  59.196 -51.324  1.00  0.00     0.070 C 
HETATM   11  N   UNL     1     -41.779  60.070 -53.415  1.00  0.00    -0.282 N 
HETATM   12  H   UNL     1     -40.982  60.607 -53.746  1.00  0.00     0.189 HD
HETATM   13  N   UNL     1     -42.895  60.081 -54.147  1.00  0.00    -0.179 NA
HETATM   14  C   UNL     1     -43.754  59.317 -53.466  1.00  0.00     0.060 A 
HETATM   15  C   UNL     1     -45.124  59.148 -54.010  1.00  0.00     0.073 C 
ENDBRANCH   6   8
ENDBRANCH   3   6
ENDBRANCH   1   2
BRANCH   1  16
HETATM   16  C   UNL     1     -41.588  54.480 -53.302  1.00  0.00     0.238 C 
BRANCH  16  17
HETATM   17  N   UNL     1     -41.518  54.716 -54.821  1.00  0.00    -0.061 N 
HETATM   18  H   UNL     1     -40.805  54.043 -55.175  1.00  0.00     0.280 HD
HETATM   19  C   UNL     1     -41.150  56.102 -55.305  1.00  0.00     0.236 C 
HETATM   20  C   UNL     1     -42.486  56.755 -55.571  1.00  0.00     0.029 C 
HETATM   21  C   UNL     1     -43.248  55.647 -56.264  1.00  0.00     0.029 C 
HETATM   22  C   UNL     1     -42.824  54.379 -55.543  1.00  0.00     0.236 C 
ENDBRANCH  16  17
BRANCH  16  23
HETATM   23  C   UNL     1     -40.871  53.234 -52.801  1.00  0.00    -0.024 A 
HETATM   24  C   UNL     1     -40.447  52.219 -53.679  1.00  0.00     0.033 A 
HETATM   25  C   UNL     1     -39.785  51.091 -53.188  1.00  0.00     0.034 A 
HETATM   26 CL   UNL     1     -39.254  49.878 -54.284  1.00  0.00    -0.084 Cl
HETATM   27  C   UNL     1     -39.545  50.949 -51.826  1.00  0.00     0.024 A 
HETATM   28  C   UNL     1     -39.964  51.943 -50.944  1.00  0.00     0.002 A 
HETATM   29  C   UNL     1     -40.621  53.077 -51.426  1.00  0.00     0.009 A 
ENDBRANCH  16  23
ENDBRANCH   1  16
TORSDOF 6
ENDMDL
MODEL 7
REMARK VINA RESULT:      -7.0      2.075      2.811
REMARK  6 active torsions:
REMARK  status: ('A' for Active; 'I' for Inactive)
REMARK    1  A    between atoms: C_8  and  C_9 
REMARK    2  A    between atoms: C_9  and  C_10 
REMARK       I    between atoms: C_10  and  N_11 
REMARK    3  A    between atoms: N_11  and  C_12 
REMARK    4  A    between atoms: C_12  and  C_13 
REMARK    5  A    between atoms: C_13  and  N_14 
REMARK    6  A    between atoms: C_13  and  C_20 
ROOT
HETATM    1  C   UNL     1     -43.746  55.082 -54.761  1.00  0.00     0.160 C 
ENDROOT
BRANCH   1   2
HETATM    2  N   UNL     1     -44.113  56.284 -55.503  1.00  0.00    -0.358 N 
HETATM    3  C   UNL     1     -43.200  56.871 -56.358  1.00  0.00     0.226 C 
HETATM    4  O   UNL     1     -42.008  56.560 -56.276  1.00  0.00    -0.273 OA
HETATM    5  H   UNL     1     -45.096  56.398 -55.727  1.00  0.00     0.162 HD
BRANCH   3   6
HETATM    6  C   UNL     1     -43.718  57.950 -57.317  1.00  0.00     0.111 C 
HETATM    7  C   UNL     1     -45.234  57.931 -57.510  1.00  0.00     0.025 C 
BRANCH   6   8
HETATM    8  C   UNL     1     -42.973  57.976 -58.622  1.00  0.00     0.004 A 
HETATM    9  C   UNL     1     -42.882  56.929 -59.529  1.00  0.00     0.033 A 
HETATM   10  C   UNL     1     -43.446  55.558 -59.526  1.00  0.00     0.070 C 
HETATM   11  N   UNL     1     -42.100  57.379 -60.555  1.00  0.00    -0.282 N 
HETATM   12  H   UNL     1     -41.817  56.884 -61.396  1.00  0.00     0.189 HD
HETATM   13  N   UNL     1     -41.664  58.630 -60.382  1.00  0.00    -0.179 NA
HETATM   14  C   UNL     1     -42.174  59.006 -59.205  1.00  0.00     0.060 A 
HETATM   15  C   UNL     1     -41.846  60.362 -58.701  1.00  0.00     0.073 C 
ENDBRANCH   6   8
ENDBRANCH   3   6
ENDBRANCH   1   2
BRANCH   1  16
HETATM   16  C   UNL     1     -42.987  55.292 -53.403  1.00  0.00     0.238 C 
BRANCH  16  17
HETATM   17  N   UNL     1     -42.498  56.742 -53.238  1.00  0.00    -0.061 N 
HETATM   18  H   UNL     1     -42.598  57.178 -54.179  1.00  0.00     0.280 HD
HETATM   19  C   UNL     1     -41.079  56.960 -52.757  1.00  0.00     0.236 C 
HETATM   20  C   UNL     1     -41.233  57.163 -51.268  1.00  0.00     0.029 C 
HETATM   21  C   UNL     1     -42.441  58.070 -51.194  1.00  0.00     0.029 C 
HETATM   22  C   UNL     1     -43.368  57.566 -52.286  1.00  0.00     0.236 C 
ENDBRANCH  16  17
BRANCH  16  23
HETATM   23  C   UNL     1     -41.915  54.222 -53.263  1.00  0.00    -0.024 A 
HETATM   24  C   UNL     1     -41.589  53.656 -52.016  1.00  0.00     0.033 A 
HETATM   25  C   UNL     1     -40.604  52.670 -51.923  1.00  0.00     0.034 A 
HETATM   26 CL   UNL     1     -40.242  51.977 -50.393  1.00  0.00    -0.084 Cl
HETATM   27  C   UNL     1     -39.924  52.240 -53.058  1.00  0.00     0.024 A 
HETATM   28  C   UNL     1     -40.232  52.794 -54.299  1.00  0.00     0.002 A 
HETATM   29  C   UNL     1     -41.220  53.776 -54.402  1.00  0.00     0.009 A 
ENDBRANCH  16  23
ENDBRANCH   1  16
TORSDOF 6
ENDMDL
MODEL 8
REMARK VINA RESULT:      -6.9      1.898      3.125
REMARK  6 active torsions:
REMARK  status: ('A' for Active; 'I' for Inactive)
REMARK    1  A    between atoms: C_8  and  C_9 
REMARK    2  A    between atoms: C_9  and  C_10 
REMARK       I    between atoms: C_10  and  N_11 
REMARK    3  A    between atoms: N_11  and  C_12 
REMARK    4  A    between atoms: C_12  and  C_13 
REMARK    5  A    between atoms: C_13  and  N_14 
REMARK    6  A    between atoms: C_13  and  C_20 
ROOT
HETATM    1  C   UNL     1     -43.259  56.417 -54.589  1.00  0.00     0.160 C 
ENDROOT
BRANCH   1   2
HETATM    2  N   UNL     1     -43.578  56.360 -56.012  1.00  0.00    -0.358 N 
HETATM    3  C   UNL     1     -43.062  57.310 -56.872  1.00  0.00     0.226 C 
HETATM    4  O   UNL     1     -42.583  58.349 -56.408  1.00  0.00    -0.273 OA
HETATM    5  H   UNL     1     -43.770  55.441 -56.399  1.00  0.00     0.162 HD
BRANCH   3   6
HETATM    6  C   UNL     1     -43.189  57.049 -58.378  1.00  0.00     0.111 C 
HETATM    7  C   UNL     1     -42.431  58.052 -59.248  1.00  0.00     0.025 C 
BRANCH   6   8
HETATM    8  C   UNL     1     -44.614  56.867 -58.820  1.00  0.00     0.004 A 
HETATM    9  C   UNL     1     -45.110  55.796 -59.551  1.00  0.00     0.033 A 
HETATM   10  C   UNL     1     -44.465  54.572 -60.084  1.00  0.00     0.070 C 
HETATM   11  N   UNL     1     -46.438  56.049 -59.746  1.00  0.00    -0.282 N 
HETATM   12  H   UNL     1     -47.122  55.482 -60.240  1.00  0.00     0.189 HD
HETATM   13  N   UNL     1     -46.843  57.204 -59.212  1.00  0.00    -0.179 NA
HETATM   14  C   UNL     1     -45.745  57.723 -58.656  1.00  0.00     0.060 A 
HETATM   15  C   UNL     1     -45.854  59.045 -57.992  1.00  0.00     0.073 C 
ENDBRANCH   6   8
ENDBRANCH   3   6
ENDBRANCH   1   2
BRANCH   1  16
HETATM   16  C   UNL     1     -41.945  55.693 -54.128  1.00  0.00     0.238 C 
BRANCH  16  17
HETATM   17  N   UNL     1     -41.552  54.554 -55.085  1.00  0.00    -0.061 N 
HETATM   18  H   UNL     1     -41.780  54.903 -56.041  1.00  0.00     0.280 HD
HETATM   19  C   UNL     1     -42.217  53.208 -54.896  1.00  0.00     0.236 C 
HETATM   20  C   UNL     1     -41.227  52.435 -54.056  1.00  0.00     0.029 C 
HETATM   21  C   UNL     1     -39.910  52.792 -54.709  1.00  0.00     0.029 C 
HETATM   22  C   UNL     1     -40.051  54.257 -55.083  1.00  0.00     0.236 C 
ENDBRANCH  16  17
BRANCH  16  23
HETATM   23  C   UNL     1     -42.085  55.297 -52.666  1.00  0.00    -0.024 A 
HETATM   24  C   UNL     1     -40.962  55.100 -51.839  1.00  0.00     0.033 A 
HETATM   25  C   UNL     1     -41.125  54.743 -50.499  1.00  0.00     0.034 A 
HETATM   26 CL   UNL     1     -39.739  54.533 -49.504  1.00  0.00    -0.084 Cl
HETATM   27  C   UNL     1     -42.396  54.567 -49.963  1.00  0.00     0.024 A 
HETATM   28  C   UNL     1     -43.517  54.753 -50.770  1.00  0.00     0.002 A 
HETATM   29  C   UNL     1     -43.365  55.116 -52.109  1.00  0.00     0.009 A 
ENDBRANCH  16  23
ENDBRANCH   1  16
TORSDOF 6
ENDMDL
MODEL 9
REMARK VINA RESULT:      -6.9      2.932      7.148
REMARK  6 active torsions:
REMARK  status: ('A' for Active; 'I' for Inactive)
REMARK    1  A    between atoms: C_8  and  C_9 
REMARK    2  A    between atoms: C_9  and  C_10 
REMARK       I    between atoms: C_10  and  N_11 
REMARK    3  A    between atoms: N_11  and  C_12 
REMARK    4  A    between atoms: C_12  and  C_13 
REMARK    5  A    between atoms: C_13  and  N_14 
REMARK    6  A    between atoms: C_13  and  C_20 
ROOT
HETATM    1  C   UNL     1     -43.684  56.640 -54.889  1.00  0.00     0.160 C 
ENDROOT
BRANCH   1   2
HETATM    2  N   UNL     1     -43.250  55.449 -54.166  1.00  0.00    -0.358 N 
HETATM    3  C   UNL     1     -43.278  55.434 -52.784  1.00  0.00     0.226 C 
HETATM    4  O   UNL     1     -43.389  56.499 -52.170  1.00  0.00    -0.273 OA
HETATM    5  H   UNL     1     -43.367  54.560 -54.640  1.00  0.00     0.162 HD
BRANCH   3   6
HETATM    6  C   UNL     1     -43.085  54.083 -52.085  1.00  0.00     0.111 C 
HETATM    7  C   UNL     1     -44.060  53.836 -50.933  1.00  0.00     0.025 C 
BRANCH   6   8
HETATM    8  C   UNL     1     -41.657  53.827 -51.694  1.00  0.00     0.004 A 
HETATM    9  C   UNL     1     -40.725  53.113 -52.434  1.00  0.00     0.033 A 
HETATM   10  C   UNL     1     -40.809  52.433 -53.750  1.00  0.00     0.070 C 
HETATM   11  N   UNL     1     -39.573  53.111 -51.700  1.00  0.00    -0.282 N 
HETATM   12  H   UNL     1     -38.680  52.684 -51.929  1.00  0.00     0.189 HD
HETATM   13  N   UNL     1     -39.685  53.755 -50.536  1.00  0.00    -0.179 NA
HETATM   14  C   UNL     1     -40.949  54.186 -50.507  1.00  0.00     0.060 A 
HETATM   15  C   UNL     1     -41.410  54.927 -49.308  1.00  0.00     0.073 C 
ENDBRANCH   6   8
ENDBRANCH   3   6
ENDBRANCH   1   2
BRANCH   1  16
HETATM   16  C   UNL     1     -42.571  57.472 -55.618  1.00  0.00     0.238 C 
BRANCH  16  17
HETATM   17  N   UNL     1     -42.618  58.959 -55.225  1.00  0.00    -0.061 N 
HETATM   18  H   UNL     1     -42.641  59.485 -56.125  1.00  0.00     0.280 HD
HETATM   19  C   UNL     1     -41.486  59.504 -54.381  1.00  0.00     0.236 C 
HETATM   20  C   UNL     1     -42.023  59.428 -52.970  1.00  0.00     0.029 C 
HETATM   21  C   UNL     1     -43.441  59.924 -53.143  1.00  0.00     0.029 C 
HETATM   22  C   UNL     1     -43.893  59.342 -54.471  1.00  0.00     0.236 C 
ENDBRANCH  16  17
BRANCH  16  23
HETATM   23  C   UNL     1     -42.639  57.189 -57.111  1.00  0.00    -0.024 A 
HETATM   24  C   UNL     1     -43.303  56.059 -57.623  1.00  0.00     0.033 A 
HETATM   25  C   UNL     1     -43.353  55.832 -59.001  1.00  0.00     0.034 A 
HETATM   26 CL   UNL     1     -44.192  54.459 -59.603  1.00  0.00    -0.084 Cl
HETATM   27  C   UNL     1     -42.739  56.713 -59.885  1.00  0.00     0.024 A 
HETATM   28  C   UNL     1     -42.073  57.833 -59.393  1.00  0.00     0.002 A 
HETATM   29  C   UNL     1     -42.023  58.072 -58.018  1.00  0.00     0.009 A 
ENDBRANCH  16  23
ENDBRANCH   1  16
TORSDOF 6
ENDMDL
MODEL 10
REMARK VINA RESULT:      -6.8      1.746      2.591
REMARK  6 active torsions:
REMARK  status: ('A' for Active; 'I' for Inactive)
REMARK    1  A    between atoms: C_8  and  C_9 
REMARK    2  A    between atoms: C_9  and  C_10 
REMARK       I    between atoms: C_10  and  N_11 
REMARK    3  A    between atoms: N_11  and  C_12 
REMARK    4  A    between atoms: C_12  and  C_13 
REMARK    5  A    between atoms: C_13  and  N_14 
REMARK    6  A    between atoms: C_13  and  C_20 
ROOT
HETATM    1  C   UNL     1     -43.871  55.978 -54.613  1.00  0.00     0.160 C 
ENDROOT
BRANCH   1   2
HETATM    2  N   UNL     1     -43.689  56.510 -55.959  1.00  0.00    -0.358 N 
HETATM    3  C   UNL     1     -44.353  57.661 -56.340  1.00  0.00     0.226 C 
HETATM    4  O   UNL     1     -45.301  58.065 -55.660  1.00  0.00    -0.273 OA
HETATM    5  H   UNL     1     -42.799  56.320 -56.407  1.00  0.00     0.162 HD
BRANCH   3   6
HETATM    6  C   UNL     1     -43.917  58.332 -57.648  1.00  0.00     0.111 C 
HETATM    7  C   UNL     1     -44.234  59.827 -57.714  1.00  0.00     0.025 C 
BRANCH   6   8
HETATM    8  C   UNL     1     -44.385  57.592 -58.868  1.00  0.00     0.004 A 
HETATM    9  C   UNL     1     -43.575  57.082 -59.874  1.00  0.00     0.033 A 
HETATM   10  C   UNL     1     -42.104  57.083 -60.062  1.00  0.00     0.070 C 
HETATM   11  N   UNL     1     -44.413  56.510 -60.788  1.00  0.00    -0.282 N 
HETATM   12  H   UNL     1     -44.173  56.039 -61.656  1.00  0.00     0.189 HD
HETATM   13  N   UNL     1     -45.704  56.618 -60.465  1.00  0.00    -0.179 NA
HETATM   14  C   UNL     1     -45.709  57.285 -59.307  1.00  0.00     0.060 A 
HETATM   15  C   UNL     1     -47.018  57.599 -58.685  1.00  0.00     0.073 C 
ENDBRANCH   6   8
ENDBRANCH   3   6
ENDBRANCH   1   2
BRANCH   1  16
HETATM   16  C   UNL     1     -42.710  56.230 -53.588  1.00  0.00     0.238 C 
BRANCH  16  17
HETATM   17  N   UNL     1     -42.012  57.579 -53.834  1.00  0.00    -0.061 N 
HETATM   18  H   UNL     1     -42.047  57.727 -54.865  1.00  0.00     0.280 HD
HETATM   19  C   UNL     1     -40.575  57.726 -53.379  1.00  0.00     0.236 C 
HETATM   20  C   UNL     1     -40.695  58.380 -52.023  1.00  0.00     0.029 C 
HETATM   21  C   UNL     1     -41.755  59.431 -52.270  1.00  0.00     0.029 C 
HETATM   22  C   UNL     1     -42.749  58.762 -53.204  1.00  0.00     0.236 C 
ENDBRANCH  16  17
BRANCH  16  23
HETATM   23  C   UNL     1     -41.795  55.015 -53.566  1.00  0.00    -0.024 A 
HETATM   24  C   UNL     1     -41.468  54.353 -52.368  1.00  0.00     0.033 A 
HETATM   25  C   UNL     1     -40.629  53.236 -52.383  1.00  0.00     0.034 A 
HETATM   26 CL   UNL     1     -40.266  52.430 -50.910  1.00  0.00    -0.084 Cl
HETATM   27  C   UNL     1     -40.097  52.767 -53.580  1.00  0.00     0.024 A 
HETATM   28  C   UNL     1     -40.407  53.416 -54.774  1.00  0.00     0.002 A 
HETATM   29  C   UNL     1     -41.249  54.529 -54.769  1.00  0.00     0.009 A 
ENDBRANCH  16  23
ENDBRANCH   1  16
TORSDOF 6
ENDMDL
