MODEL 1
REMARK VINA RESULT:      -9.3      0.000      0.000
REMARK  10 active torsions:
REMARK  status: ('A' for Active; 'I' for Inactive)
REMARK    1  A    between atoms: C_8  and  C_9 
REMARK    2  A    between atoms: N_14  and  C_15 
REMARK    3  A    between atoms: C_15  and  C_16 
REMARK    4  A    between atoms: C_16  and  C_17 
REMARK    5  A    between atoms: C_20  and  O_21 
REMARK    6  A    between atoms: C_27  and  N_28 
REMARK    7  A    between atoms: N_28  and  C_29 
REMARK    8  A    between atoms: C_29  and  C_30 
REMARK    9  A    between atoms: C_30  and  O_31 
REMARK   10  A    between atoms: C_30  and  C_32 
ROOT
HETATM    1  C   UNL     1     -43.374  55.408 -59.541  1.00  0.00     0.052 C 
HETATM    2  C   UNL     1     -42.885  56.799 -59.285  1.00  0.00    -0.015 A 
HETATM    3  C   UNL     1     -42.930  57.305 -57.870  1.00  0.00     0.144 A 
HETATM    4  N   UNL     1     -43.490  56.579 -56.955  1.00  0.00    -0.217 NA
HETATM    5  N   UNL     1     -42.354  58.540 -57.622  1.00  0.00    -0.272 N 
HETATM    6  C   UNL     1     -42.301  59.022 -56.324  1.00  0.00     0.266 C 
HETATM    7  O   UNL     1     -41.849  60.127 -56.013  1.00  0.00    -0.267 OA
HETATM    8  C   UNL     1     -42.834  58.120 -55.262  1.00  0.00     0.074 C 
HETATM    9  C   UNL     1     -43.471  56.992 -55.653  1.00  0.00     0.121 C 
HETATM   10  C   UNL     1     -41.853  59.320 -58.658  1.00  0.00     0.102 A 
HETATM   11  C   UNL     1     -41.866  58.899 -59.927  1.00  0.00     0.018 A 
HETATM   12  C   UNL     1     -42.375  57.591 -60.242  1.00  0.00     0.012 A 
ENDROOT
BRANCH   8  13
HETATM   13  C   UNL     1     -42.623  58.510 -53.871  1.00  0.00     0.045 C 
HETATM   14  C   UNL     1     -43.441  59.291 -53.150  1.00  0.00     0.077 A 
HETATM   15  S   UNL     1     -44.937  59.981 -53.644  1.00  0.00    -0.055 SA
HETATM   16  C   UNL     1     -43.110  59.731 -51.770  1.00  0.00     0.266 A 
HETATM   17  C   UNL     1     -45.050  60.989 -52.212  1.00  0.00     0.148 A 
HETATM   18  S   UNL     1     -46.263  62.120 -52.022  1.00  0.00    -0.052 SA
HETATM   19  N   UNL     1     -44.015  60.690 -51.349  1.00  0.00    -0.298 N 
HETATM   20  O   UNL     1     -42.147  59.317 -51.140  1.00  0.00    -0.266 OA
BRANCH  19  21
HETATM   21  C   UNL     1     -43.832  61.317 -50.038  1.00  0.00     0.138 C 
BRANCH  21  22
HETATM   22  C   UNL     1     -44.836  60.788 -49.005  1.00  0.00     0.059 C 
BRANCH  22  23
HETATM   23  C   UNL     1     -44.934  61.684 -47.796  1.00  0.00    -0.057 A 
HETATM   24  C   UNL     1     -44.993  61.134 -46.509  1.00  0.00     0.010 A 
HETATM   25  C   UNL     1     -45.082  61.963 -45.391  1.00  0.00     0.037 A 
HETATM   26  C   UNL     1     -45.095  63.352 -45.533  1.00  0.00     0.068 A 
HETATM   27  C   UNL     1     -45.039  63.905 -46.812  1.00  0.00     0.037 A 
HETATM   28  C   UNL     1     -44.961  63.076 -47.937  1.00  0.00     0.010 A 
BRANCH  26  29
HETATM   29  O   UNL     1     -45.172  64.047 -44.358  1.00  0.00    -0.356 OA
HETATM   30  C   UNL     1     -44.262  63.667 -43.334  1.00  0.00     0.210 C 
ENDBRANCH  26  29
ENDBRANCH  22  23
ENDBRANCH  21  22
ENDBRANCH  19  21
ENDBRANCH   8  13
BRANCH   9  31
HETATM   31  N   UNL     1     -44.095  56.124 -54.763  1.00  0.00    -0.274 NA
HETATM   32  H   UNL     1     -44.247  56.634 -53.889  1.00  0.00     0.129 HD
BRANCH  31  33
HETATM   33  C   UNL     1     -43.673  54.737 -54.533  1.00  0.00     0.130 C 
BRANCH  33  34
HETATM   34  C   UNL     1     -42.873  54.606 -53.211  1.00  0.00     0.164 C 
BRANCH  34  35
HETATM   35  O   UNL     1     -43.769  54.336 -52.121  1.00  0.00    -0.390 OA
HETATM   36  H   UNL     1     -44.642  54.120 -52.498  1.00  0.00     0.210 HD
ENDBRANCH  34  35
BRANCH  34  37
HETATM   37  C   UNL     1     -41.755  53.582 -53.161  1.00  0.00    -0.029 A 
HETATM   38  C   UNL     1     -41.364  52.803 -54.260  1.00  0.00     0.010 A 
HETATM   39  C   UNL     1     -40.315  51.883 -54.152  1.00  0.00     0.001 A 
HETATM   40  C   UNL     1     -39.641  51.728 -52.943  1.00  0.00     0.000 A 
HETATM   41  C   UNL     1     -40.016  52.488 -51.840  1.00  0.00     0.001 A 
HETATM   42  C   UNL     1     -41.063  53.406 -51.949  1.00  0.00     0.010 A 
ENDBRANCH  34  37
ENDBRANCH  33  34
ENDBRANCH  31  33
ENDBRANCH   9  31
TORSDOF 10
ENDMDL
MODEL 2
REMARK VINA RESULT:      -9.0      2.133      5.463
REMARK  10 active torsions:
REMARK  status: ('A' for Active; 'I' for Inactive)
REMARK    1  A    between atoms: C_8  and  C_9 
REMARK    2  A    between atoms: N_14  and  C_15 
REMARK    3  A    between atoms: C_15  and  C_16 
REMARK    4  A    between atoms: C_16  and  C_17 
REMARK    5  A    between atoms: C_20  and  O_21 
REMARK    6  A    between atoms: C_27  and  N_28 
REMARK    7  A    between atoms: N_28  and  C_29 
REMARK    8  A    between atoms: C_29  and  C_30 
REMARK    9  A    between atoms: C_30  and  O_31 
REMARK   10  A    between atoms: C_30  and  C_32 
ROOT
HETATM    1  C   UNL     1     -40.959  52.026 -54.337  1.00  0.00     0.052 C 
HETATM    2  C   UNL     1     -40.674  52.702 -53.032  1.00  0.00    -0.015 A 
HETATM    3  C   UNL     1     -41.552  53.858 -52.639  1.00  0.00     0.144 A 
HETATM    4  N   UNL     1     -42.433  54.299 -53.479  1.00  0.00    -0.217 NA
HETATM    5  N   UNL     1     -41.366  54.391 -51.374  1.00  0.00    -0.272 N 
HETATM    6  C   UNL     1     -42.196  55.408 -50.931  1.00  0.00     0.266 C 
HETATM    7  O   UNL     1     -42.078  55.973 -49.841  1.00  0.00    -0.267 OA
HETATM    8  C   UNL     1     -43.289  55.820 -51.860  1.00  0.00     0.074 C 
HETATM    9  C   UNL     1     -43.287  55.298 -53.108  1.00  0.00     0.121 C 
HETATM   10  C   UNL     1     -40.340  53.943 -50.550  1.00  0.00     0.102 A 
HETATM   11  C   UNL     1     -39.519  52.955 -50.920  1.00  0.00     0.018 A 
HETATM   12  C   UNL     1     -39.709  52.303 -52.187  1.00  0.00     0.012 A 
ENDROOT
BRANCH   8  13
HETATM   13  C   UNL     1     -44.294  56.750 -51.354  1.00  0.00     0.045 C 
HETATM   14  C   UNL     1     -44.305  58.074 -51.569  1.00  0.00     0.077 A 
HETATM   15  S   UNL     1     -43.197  58.994 -52.508  1.00  0.00    -0.055 SA
HETATM   16  C   UNL     1     -45.304  58.974 -50.936  1.00  0.00     0.266 A 
HETATM   17  C   UNL     1     -43.846  60.524 -51.946  1.00  0.00     0.148 A 
HETATM   18  S   UNL     1     -43.147  61.983 -52.353  1.00  0.00    -0.052 SA
HETATM   19  N   UNL     1     -44.956  60.296 -51.156  1.00  0.00    -0.298 N 
HETATM   20  O   UNL     1     -46.261  58.575 -50.289  1.00  0.00    -0.266 OA
BRANCH  19  21
HETATM   21  C   UNL     1     -45.768  61.357 -50.556  1.00  0.00     0.138 C 
BRANCH  21  22
HETATM   22  C   UNL     1     -44.950  62.230 -49.595  1.00  0.00     0.059 C 
BRANCH  22  23
HETATM   23  C   UNL     1     -45.776  62.730 -48.437  1.00  0.00    -0.057 A 
HETATM   24  C   UNL     1     -45.310  62.595 -47.123  1.00  0.00     0.010 A 
HETATM   25  C   UNL     1     -46.074  63.059 -46.052  1.00  0.00     0.037 A 
HETATM   26  C   UNL     1     -47.304  63.681 -46.271  1.00  0.00     0.068 A 
HETATM   27  C   UNL     1     -47.774  63.817 -47.577  1.00  0.00     0.037 A 
HETATM   28  C   UNL     1     -47.016  63.342 -48.653  1.00  0.00     0.010 A 
BRANCH  26  29
HETATM   29  O   UNL     1     -47.944  64.101 -45.138  1.00  0.00    -0.356 OA
HETATM   30  C   UNL     1     -47.117  64.496 -44.050  1.00  0.00     0.210 C 
ENDBRANCH  26  29
ENDBRANCH  22  23
ENDBRANCH  21  22
ENDBRANCH  19  21
ENDBRANCH   8  13
BRANCH   9  31
HETATM   31  N   UNL     1     -44.193  55.678 -54.092  1.00  0.00    -0.274 NA
HETATM   32  H   UNL     1     -44.703  54.840 -54.384  1.00  0.00     0.129 HD
BRANCH  31  33
HETATM   33  C   UNL     1     -43.862  56.551 -55.225  1.00  0.00     0.130 C 
BRANCH  33  34
HETATM   34  C   UNL     1     -43.050  55.787 -56.303  1.00  0.00     0.164 C 
BRANCH  34  35
HETATM   35  O   UNL     1     -43.544  54.444 -56.428  1.00  0.00    -0.390 OA
HETATM   36  H   UNL     1     -43.627  54.072 -55.531  1.00  0.00     0.210 HD
ENDBRANCH  34  35
BRANCH  34  37
HETATM   37  C   UNL     1     -42.979  56.391 -57.693  1.00  0.00    -0.029 A 
HETATM   38  C   UNL     1     -42.409  57.642 -57.970  1.00  0.00     0.010 A 
HETATM   39  C   UNL     1     -42.365  58.138 -59.278  1.00  0.00     0.001 A 
HETATM   40  C   UNL     1     -42.891  57.390 -60.329  1.00  0.00     0.000 A 
HETATM   41  C   UNL     1     -43.464  56.149 -60.074  1.00  0.00     0.001 A 
HETATM   42  C   UNL     1     -43.509  55.655 -58.769  1.00  0.00     0.010 A 
ENDBRANCH  34  37
ENDBRANCH  33  34
ENDBRANCH  31  33
ENDBRANCH   9  31
TORSDOF 10
ENDMDL
MODEL 3
REMARK VINA RESULT:      -8.9      3.229      9.405
REMARK  10 active torsions:
REMARK  status: ('A' for Active; 'I' for Inactive)
REMARK    1  A    between atoms: C_8  and  C_9 
REMARK    2  A    between atoms: N_14  and  C_15 
REMARK    3  A    between atoms: C_15  and  C_16 
REMARK    4  A    between atoms: C_16  and  C_17 
REMARK    5  A    between atoms: C_20  and  O_21 
REMARK    6  A    between atoms: C_27  and  N_28 
REMARK    7  A    between atoms: N_28  and  C_29 
REMARK    8  A    between atoms: C_29  and  C_30 
REMARK    9  A    between atoms: C_30  and  O_31 
REMARK   10  A    between atoms: C_30  and  C_32 
ROOT
HETATM    1  C   UNL     1     -40.235  52.830 -49.895  1.00  0.00     0.052 C 
HETATM    2  C   UNL     1     -40.252  52.762 -51.390  1.00  0.00    -0.015 A 
HETATM    3  C   UNL     1     -40.654  54.002 -52.140  1.00  0.00     0.144 A 
HETATM    4  N   UNL     1     -41.079  55.032 -51.480  1.00  0.00    -0.217 NA
HETATM    5  N   UNL     1     -40.538  53.970 -53.521  1.00  0.00    -0.272 N 
HETATM    6  C   UNL     1     -40.824  55.109 -54.257  1.00  0.00     0.266 C 
HETATM    7  O   UNL     1     -40.793  55.163 -55.489  1.00  0.00    -0.267 OA
HETATM    8  C   UNL     1     -41.189  56.326 -53.476  1.00  0.00     0.074 C 
HETATM    9  C   UNL     1     -41.376  56.189 -52.142  1.00  0.00     0.121 C 
HETATM   10  C   UNL     1     -40.169  52.806 -54.184  1.00  0.00     0.102 A 
HETATM   11  C   UNL     1     -39.869  51.683 -53.523  1.00  0.00     0.018 A 
HETATM   12  C   UNL     1     -39.888  51.672 -52.085  1.00  0.00     0.012 A 
ENDROOT
BRANCH   8  13
HETATM   13  C   UNL     1     -41.311  57.587 -54.202  1.00  0.00     0.045 C 
HETATM   14  C   UNL     1     -42.429  58.043 -54.785  1.00  0.00     0.077 A 
HETATM   15  S   UNL     1     -43.984  57.308 -54.793  1.00  0.00    -0.055 SA
HETATM   16  C   UNL     1     -42.453  59.288 -55.596  1.00  0.00     0.266 A 
HETATM   17  C   UNL     1     -44.614  58.436 -55.980  1.00  0.00     0.148 A 
HETATM   18  S   UNL     1     -46.140  58.269 -56.634  1.00  0.00    -0.052 SA
HETATM   19  N   UNL     1     -43.668  59.405 -56.249  1.00  0.00    -0.298 N 
HETATM   20  O   UNL     1     -41.505  60.056 -55.686  1.00  0.00    -0.266 OA
BRANCH  19  21
HETATM   21  C   UNL     1     -43.881  60.528 -57.164  1.00  0.00     0.138 C 
BRANCH  21  22
HETATM   22  C   UNL     1     -43.088  60.363 -58.468  1.00  0.00     0.059 C 
BRANCH  22  23
HETATM   23  C   UNL     1     -43.358  59.037 -59.133  1.00  0.00    -0.057 A 
HETATM   24  C   UNL     1     -44.583  58.800 -59.771  1.00  0.00     0.010 A 
HETATM   25  C   UNL     1     -44.832  57.574 -60.388  1.00  0.00     0.037 A 
HETATM   26  C   UNL     1     -43.861  56.572 -60.397  1.00  0.00     0.068 A 
HETATM   27  C   UNL     1     -42.641  56.801 -59.762  1.00  0.00     0.037 A 
HETATM   28  C   UNL     1     -42.392  58.025 -59.132  1.00  0.00     0.010 A 
BRANCH  26  29
HETATM   29  O   UNL     1     -44.228  55.425 -61.047  1.00  0.00    -0.356 OA
HETATM   30  C   UNL     1     -44.992  54.487 -60.299  1.00  0.00     0.210 C 
ENDBRANCH  26  29
ENDBRANCH  22  23
ENDBRANCH  21  22
ENDBRANCH  19  21
ENDBRANCH   8  13
BRANCH   9  31
HETATM   31  N   UNL     1     -41.812  57.226 -51.326  1.00  0.00    -0.274 NA
HETATM   32  H   UNL     1     -42.287  57.911 -51.920  1.00  0.00     0.129 HD
BRANCH  31  33
HETATM   33  C   UNL     1     -40.987  57.864 -50.292  1.00  0.00     0.130 C 
BRANCH  33  34
HETATM   34  C   UNL     1     -40.771  59.369 -50.596  1.00  0.00     0.164 C 
BRANCH  34  35
HETATM   35  O   UNL     1     -39.852  59.520 -51.689  1.00  0.00    -0.390 OA
HETATM   36  H   UNL     1     -39.542  58.632 -51.944  1.00  0.00     0.210 HD
ENDBRANCH  34  35
BRANCH  34  37
HETATM   37  C   UNL     1     -41.998  60.211 -50.896  1.00  0.00    -0.029 A 
HETATM   38  C   UNL     1     -42.883  60.676 -49.913  1.00  0.00     0.010 A 
HETATM   39  C   UNL     1     -43.991  61.459 -50.254  1.00  0.00     0.001 A 
HETATM   40  C   UNL     1     -44.231  61.789 -51.586  1.00  0.00     0.000 A 
HETATM   41  C   UNL     1     -43.367  61.335 -52.577  1.00  0.00     0.001 A 
HETATM   42  C   UNL     1     -42.262  60.553 -52.235  1.00  0.00     0.010 A 
ENDBRANCH  34  37
ENDBRANCH  33  34
ENDBRANCH  31  33
ENDBRANCH   9  31
TORSDOF 10
ENDMDL
MODEL 4
REMARK VINA RESULT:      -8.9      5.260      9.241
REMARK  10 active torsions:
REMARK  status: ('A' for Active; 'I' for Inactive)
REMARK    1  A    between atoms: C_8  and  C_9 
REMARK    2  A    between atoms: N_14  and  C_15 
REMARK    3  A    between atoms: C_15  and  C_16 
REMARK    4  A    between atoms: C_16  and  C_17 
REMARK    5  A    between atoms: C_20  and  O_21 
REMARK    6  A    between atoms: C_27  and  N_28 
REMARK    7  A    between atoms: N_28  and  C_29 
REMARK    8  A    between atoms: C_29  and  C_30 
REMARK    9  A    between atoms: C_30  and  O_31 
REMARK   10  A    between atoms: C_30  and  C_32 
ROOT
HETATM    1  C   UNL     1     -47.544  60.647 -61.224  1.00  0.00     0.052 C 
HETATM    2  C   UNL     1     -47.416  59.156 -61.225  1.00  0.00    -0.015 A 
HETATM    3  C   UNL     1     -46.286  58.552 -60.438  1.00  0.00     0.144 A 
HETATM    4  N   UNL     1     -45.407  59.331 -59.893  1.00  0.00    -0.217 NA
HETATM    5  N   UNL     1     -46.254  57.171 -60.337  1.00  0.00    -0.272 N 
HETATM    6  C   UNL     1     -45.278  56.564 -59.563  1.00  0.00     0.266 C 
HETATM    7  O   UNL     1     -45.144  55.343 -59.450  1.00  0.00    -0.267 OA
HETATM    8  C   UNL     1     -44.349  57.478 -58.836  1.00  0.00     0.074 C 
HETATM    9  C   UNL     1     -44.419  58.801 -59.113  1.00  0.00     0.121 C 
HETATM   10  C   UNL     1     -47.167  56.379 -61.024  1.00  0.00     0.102 A 
HETATM   11  C   UNL     1     -48.138  56.911 -61.773  1.00  0.00     0.018 A 
HETATM   12  C   UNL     1     -48.278  58.340 -61.855  1.00  0.00     0.012 A 
ENDROOT
BRANCH   8  13
HETATM   13  C   UNL     1     -43.434  56.883 -57.867  1.00  0.00     0.045 C 
HETATM   14  C   UNL     1     -43.552  56.966 -56.533  1.00  0.00     0.077 A 
HETATM   15  S   UNL     1     -44.803  57.734 -55.637  1.00  0.00    -0.055 SA
HETATM   16  C   UNL     1     -42.524  56.423 -55.608  1.00  0.00     0.266 A 
HETATM   17  C   UNL     1     -43.944  57.565 -54.116  1.00  0.00     0.148 A 
HETATM   18  S   UNL     1     -44.515  58.239 -52.700  1.00  0.00    -0.052 SA
HETATM   19  N   UNL     1     -42.790  56.831 -54.312  1.00  0.00    -0.298 N 
HETATM   20  O   UNL     1     -41.572  55.749 -55.973  1.00  0.00    -0.266 OA
BRANCH  19  21
HETATM   21  C   UNL     1     -41.858  56.467 -53.243  1.00  0.00     0.138 C 
BRANCH  21  22
HETATM   22  C   UNL     1     -42.360  55.267 -52.430  1.00  0.00     0.059 C 
BRANCH  22  23
HETATM   23  C   UNL     1     -41.507  54.041 -52.639  1.00  0.00    -0.057 A 
HETATM   24  C   UNL     1     -41.562  53.338 -53.850  1.00  0.00     0.010 A 
HETATM   25  C   UNL     1     -40.772  52.205 -54.045  1.00  0.00     0.037 A 
HETATM   26  C   UNL     1     -39.902  51.764 -53.046  1.00  0.00     0.068 A 
HETATM   27  C   UNL     1     -39.846  52.457 -51.838  1.00  0.00     0.037 A 
HETATM   28  C   UNL     1     -40.645  53.588 -51.635  1.00  0.00     0.010 A 
BRANCH  26  29
HETATM   29  O   UNL     1     -39.177  50.650 -53.369  1.00  0.00    -0.356 OA
HETATM   30  C   UNL     1     -39.652  49.878 -54.465  1.00  0.00     0.210 C 
ENDBRANCH  26  29
ENDBRANCH  22  23
ENDBRANCH  21  22
ENDBRANCH  19  21
ENDBRANCH   8  13
BRANCH   9  31
HETATM   31  N   UNL     1     -43.543  59.736 -58.575  1.00  0.00    -0.274 NA
HETATM   32  H   UNL     1     -44.089  60.566 -58.328  1.00  0.00     0.129 HD
BRANCH  31  33
HETATM   33  C   UNL     1     -42.242  60.081 -59.162  1.00  0.00     0.130 C 
BRANCH  33  34
HETATM   34  C   UNL     1     -41.684  61.396 -58.558  1.00  0.00     0.164 C 
BRANCH  34  35
HETATM   35  O   UNL     1     -41.013  61.118 -57.319  1.00  0.00    -0.390 OA
HETATM   36  H   UNL     1     -41.492  61.583 -56.609  1.00  0.00     0.210 HD
ENDBRANCH  34  35
BRANCH  34  37
HETATM   37  C   UNL     1     -40.752  62.228 -59.418  1.00  0.00    -0.029 A 
HETATM   38  C   UNL     1     -39.752  63.064 -58.900  1.00  0.00     0.010 A 
HETATM   39  C   UNL     1     -38.917  63.798 -59.749  1.00  0.00     0.001 A 
HETATM   40  C   UNL     1     -39.068  63.707 -61.130  1.00  0.00     0.000 A 
HETATM   41  C   UNL     1     -40.056  62.887 -61.665  1.00  0.00     0.001 A 
HETATM   42  C   UNL     1     -40.890  62.156 -60.817  1.00  0.00     0.010 A 
ENDBRANCH  34  37
ENDBRANCH  33  34
ENDBRANCH  31  33
ENDBRANCH   9  31
TORSDOF 10
ENDMDL
MODEL 5
REMARK VINA RESULT:      -8.6      4.216      9.585
REMARK  10 active torsions:
REMARK  status: ('A' for Active; 'I' for Inactive)
REMARK    1  A    between atoms: C_8  and  C_9 
REMARK    2  A    between atoms: N_14  and  C_15 
REMARK    3  A    between atoms: C_15  and  C_16 
REMARK    4  A    between atoms: C_16  and  C_17 
REMARK    5  A    between atoms: C_20  and  O_21 
REMARK    6  A    between atoms: C_27  and  N_28 
REMARK    7  A    between atoms: N_28  and  C_29 
REMARK    8  A    between atoms: C_29  and  C_30 
REMARK    9  A    between atoms: C_30  and  O_31 
REMARK   10  A    between atoms: C_30  and  C_32 
ROOT
HETATM    1  C   UNL     1     -40.889  56.195 -49.928  1.00  0.00     0.052 C 
HETATM    2  C   UNL     1     -41.169  57.559 -50.478  1.00  0.00    -0.015 A 
HETATM    3  C   UNL     1     -41.920  57.645 -51.778  1.00  0.00     0.144 A 
HETATM    4  N   UNL     1     -42.191  56.557 -52.427  1.00  0.00    -0.217 NA
HETATM    5  N   UNL     1     -42.290  58.908 -52.211  1.00  0.00    -0.272 N 
HETATM    6  C   UNL     1     -43.047  59.041 -53.364  1.00  0.00     0.266 C 
HETATM    7  O   UNL     1     -43.384  60.124 -53.850  1.00  0.00    -0.267 OA
HETATM    8  C   UNL     1     -43.461  57.773 -54.033  1.00  0.00     0.074 C 
HETATM    9  C   UNL     1     -42.937  56.614 -53.570  1.00  0.00     0.121 C 
HETATM   10  C   UNL     1     -41.889  60.048 -51.526  1.00  0.00     0.102 A 
HETATM   11  C   UNL     1     -41.170  59.978 -50.401  1.00  0.00     0.018 A 
HETATM   12  C   UNL     1     -40.823  58.695 -49.852  1.00  0.00     0.012 A 
ENDROOT
BRANCH   8  13
HETATM   13  C   UNL     1     -44.413  57.867 -55.135  1.00  0.00     0.045 C 
HETATM   14  C   UNL     1     -44.102  57.808 -56.438  1.00  0.00     0.077 A 
HETATM   15  S   UNL     1     -42.549  57.565 -57.136  1.00  0.00    -0.055 SA
HETATM   16  C   UNL     1     -45.112  58.014 -57.508  1.00  0.00     0.266 A 
HETATM   17  C   UNL     1     -43.117  57.930 -58.755  1.00  0.00     0.148 A 
HETATM   18  S   UNL     1     -42.075  58.032 -60.055  1.00  0.00    -0.052 SA
HETATM   19  N   UNL     1     -44.486  58.111 -58.739  1.00  0.00    -0.298 N 
HETATM   20  O   UNL     1     -46.312  58.119 -57.296  1.00  0.00    -0.266 OA
BRANCH  19  21
HETATM   21  C   UNL     1     -45.291  58.389 -59.930  1.00  0.00     0.138 C 
BRANCH  21  22
HETATM   22  C   UNL     1     -46.182  57.199 -60.310  1.00  0.00     0.059 C 
BRANCH  22  23
HETATM   23  C   UNL     1     -47.402  57.626 -61.085  1.00  0.00    -0.057 A 
HETATM   24  C   UNL     1     -48.109  56.698 -61.862  1.00  0.00     0.010 A 
HETATM   25  C   UNL     1     -49.239  57.093 -62.578  1.00  0.00     0.037 A 
HETATM   26  C   UNL     1     -49.695  58.411 -62.518  1.00  0.00     0.068 A 
HETATM   27  C   UNL     1     -48.995  59.339 -61.749  1.00  0.00     0.037 A 
HETATM   28  C   UNL     1     -47.854  58.949 -61.038  1.00  0.00     0.010 A 
BRANCH  26  29
HETATM   29  O   UNL     1     -50.820  58.661 -63.256  1.00  0.00    -0.356 OA
HETATM   30  C   UNL     1     -51.930  59.208 -62.556  1.00  0.00     0.210 C 
ENDBRANCH  26  29
ENDBRANCH  22  23
ENDBRANCH  21  22
ENDBRANCH  19  21
ENDBRANCH   8  13
BRANCH   9  31
HETATM   31  N   UNL     1     -43.169  55.382 -54.170  1.00  0.00    -0.274 NA
HETATM   32  H   UNL     1     -44.152  55.356 -54.455  1.00  0.00     0.129 HD
BRANCH  31  33
HETATM   33  C   UNL     1     -42.715  54.099 -53.620  1.00  0.00     0.130 C 
BRANCH  33  34
HETATM   34  C   UNL     1     -41.400  53.632 -54.296  1.00  0.00     0.164 C 
BRANCH  34  35
HETATM   35  O   UNL     1     -40.467  54.722 -54.356  1.00  0.00    -0.390 OA
HETATM   36  H   UNL     1     -40.977  55.553 -54.351  1.00  0.00     0.210 HD
ENDBRANCH  34  35
BRANCH  34  37
HETATM   37  C   UNL     1     -40.684  52.437 -53.696  1.00  0.00    -0.029 A 
HETATM   38  C   UNL     1     -40.156  52.417 -52.397  1.00  0.00     0.010 A 
HETATM   39  C   UNL     1     -39.516  51.278 -51.898  1.00  0.00     0.001 A 
HETATM   40  C   UNL     1     -39.394  50.139 -52.690  1.00  0.00     0.000 A 
HETATM   41  C   UNL     1     -39.908  50.139 -53.983  1.00  0.00     0.001 A 
HETATM   42  C   UNL     1     -40.545  51.277 -54.481  1.00  0.00     0.010 A 
ENDBRANCH  34  37
ENDBRANCH  33  34
ENDBRANCH  31  33
ENDBRANCH   9  31
TORSDOF 10
ENDMDL
MODEL 6
REMARK VINA RESULT:      -8.5      3.782      8.827
REMARK  10 active torsions:
REMARK  status: ('A' for Active; 'I' for Inactive)
REMARK    1  A    between atoms: C_8  and  C_9 
REMARK    2  A    between atoms: N_14  and  C_15 
REMARK    3  A    between atoms: C_15  and  C_16 
REMARK    4  A    between atoms: C_16  and  C_17 
REMARK    5  A    between atoms: C_20  and  O_21 
REMARK    6  A    between atoms: C_27  and  N_28 
REMARK    7  A    between atoms: N_28  and  C_29 
REMARK    8  A    between atoms: C_29  and  C_30 
REMARK    9  A    between atoms: C_30  and  O_31 
REMARK   10  A    between atoms: C_30  and  C_32 
ROOT
HETATM    1  C   UNL     1     -40.981  56.092 -50.295  1.00  0.00     0.052 C 
HETATM    2  C   UNL     1     -41.213  57.537 -50.612  1.00  0.00    -0.015 A 
HETATM    3  C   UNL     1     -41.963  57.862 -51.874  1.00  0.00     0.144 A 
HETATM    4  N   UNL     1     -42.275  56.906 -52.690  1.00  0.00    -0.217 NA
HETATM    5  N   UNL     1     -42.288  59.191 -52.091  1.00  0.00    -0.272 N 
HETATM    6  C   UNL     1     -43.043  59.539 -53.199  1.00  0.00     0.266 C 
HETATM    7  O   UNL     1     -43.341  60.698 -53.498  1.00  0.00    -0.267 OA
HETATM    8  C   UNL     1     -43.505  58.413 -54.063  1.00  0.00     0.074 C 
HETATM    9  C   UNL     1     -43.022  57.176 -53.802  1.00  0.00     0.121 C 
HETATM   10  C   UNL     1     -41.844  60.188 -51.231  1.00  0.00     0.102 A 
HETATM   11  C   UNL     1     -41.125  59.909 -50.139  1.00  0.00     0.018 A 
HETATM   12  C   UNL     1     -40.823  58.542 -49.811  1.00  0.00     0.012 A 
ENDROOT
BRANCH   8  13
HETATM   13  C   UNL     1     -44.455  58.721 -55.127  1.00  0.00     0.045 C 
HETATM   14  C   UNL     1     -44.144  59.254 -56.318  1.00  0.00     0.077 A 
HETATM   15  S   UNL     1     -42.581  59.662 -56.908  1.00  0.00    -0.055 SA
HETATM   16  C   UNL     1     -45.178  59.636 -57.314  1.00  0.00     0.266 A 
HETATM   17  C   UNL     1     -43.227  60.503 -58.306  1.00  0.00     0.148 A 
HETATM   18  S   UNL     1     -42.246  61.341 -59.364  1.00  0.00    -0.052 SA
HETATM   19  N   UNL     1     -44.599  60.351 -58.349  1.00  0.00    -0.298 N 
HETATM   20  O   UNL     1     -46.367  59.377 -57.190  1.00  0.00    -0.266 OA
BRANCH  19  21
HETATM   21  C   UNL     1     -45.453  60.890 -59.409  1.00  0.00     0.138 C 
BRANCH  21  22
HETATM   22  C   UNL     1     -45.272  60.132 -60.731  1.00  0.00     0.059 C 
BRANCH  22  23
HETATM   23  C   UNL     1     -45.359  58.638 -60.547  1.00  0.00    -0.057 A 
HETATM   24  C   UNL     1     -44.195  57.859 -60.508  1.00  0.00     0.010 A 
HETATM   25  C   UNL     1     -44.277  56.477 -60.337  1.00  0.00     0.037 A 
HETATM   26  C   UNL     1     -45.514  55.850 -60.182  1.00  0.00     0.068 A 
HETATM   27  C   UNL     1     -46.676  56.620 -60.222  1.00  0.00     0.037 A 
HETATM   28  C   UNL     1     -46.599  58.005 -60.406  1.00  0.00     0.010 A 
BRANCH  26  29
HETATM   29  O   UNL     1     -45.452  54.495 -60.009  1.00  0.00    -0.356 OA
HETATM   30  C   UNL     1     -44.325  53.995 -59.301  1.00  0.00     0.210 C 
ENDBRANCH  26  29
ENDBRANCH  22  23
ENDBRANCH  21  22
ENDBRANCH  19  21
ENDBRANCH   8  13
BRANCH   9  31
HETATM   31  N   UNL     1     -43.300  56.069 -54.594  1.00  0.00    -0.274 NA
HETATM   32  H   UNL     1     -44.174  56.256 -55.093  1.00  0.00     0.129 HD
BRANCH  31  33
HETATM   33  C   UNL     1     -43.213  54.679 -54.127  1.00  0.00     0.130 C 
BRANCH  33  34
HETATM   34  C   UNL     1     -42.023  53.938 -54.790  1.00  0.00     0.164 C 
BRANCH  34  35
HETATM   35  O   UNL     1     -41.212  54.872 -55.520  1.00  0.00    -0.390 OA
HETATM   36  H   UNL     1     -41.793  55.360 -56.130  1.00  0.00     0.210 HD
ENDBRANCH  34  35
BRANCH  34  37
HETATM   37  C   UNL     1     -41.109  53.127 -53.891  1.00  0.00    -0.029 A 
HETATM   38  C   UNL     1     -40.834  53.459 -52.556  1.00  0.00     0.010 A 
HETATM   39  C   UNL     1     -39.990  52.662 -51.776  1.00  0.00     0.001 A 
HETATM   40  C   UNL     1     -39.408  51.519 -52.318  1.00  0.00     0.000 A 
HETATM   41  C   UNL     1     -39.665  51.173 -53.641  1.00  0.00     0.001 A 
HETATM   42  C   UNL     1     -40.507  51.970 -54.419  1.00  0.00     0.010 A 
ENDBRANCH  34  37
ENDBRANCH  33  34
ENDBRANCH  31  33
ENDBRANCH   9  31
TORSDOF 10
ENDMDL
MODEL 7
REMARK VINA RESULT:      -8.5      4.619      8.315
REMARK  10 active torsions:
REMARK  status: ('A' for Active; 'I' for Inactive)
REMARK    1  A    between atoms: C_8  and  C_9 
REMARK    2  A    between atoms: N_14  and  C_15 
REMARK    3  A    between atoms: C_15  and  C_16 
REMARK    4  A    between atoms: C_16  and  C_17 
REMARK    5  A    between atoms: C_20  and  O_21 
REMARK    6  A    between atoms: C_27  and  N_28 
REMARK    7  A    between atoms: N_28  and  C_29 
REMARK    8  A    between atoms: C_29  and  C_30 
REMARK    9  A    between atoms: C_30  and  O_31 
REMARK   10  A    between atoms: C_30  and  C_32 
ROOT
HETATM    1  C   UNL     1     -45.651  63.141 -59.648  1.00  0.00     0.052 C 
HETATM    2  C   UNL     1     -46.625  62.049 -59.333  1.00  0.00    -0.015 A 
HETATM    3  C   UNL     1     -46.090  60.803 -58.684  1.00  0.00     0.144 A 
HETATM    4  N   UNL     1     -44.811  60.668 -58.529  1.00  0.00    -0.217 NA
HETATM    5  N   UNL     1     -47.015  59.856 -58.277  1.00  0.00    -0.272 N 
HETATM    6  C   UNL     1     -46.584  58.722 -57.607  1.00  0.00     0.266 C 
HETATM    7  O   UNL     1     -47.327  57.806 -57.247  1.00  0.00    -0.267 OA
HETATM    8  C   UNL     1     -45.122  58.640 -57.321  1.00  0.00     0.074 C 
HETATM    9  C   UNL     1     -44.316  59.577 -57.874  1.00  0.00     0.121 C 
HETATM   10  C   UNL     1     -48.368  60.008 -58.555  1.00  0.00     0.102 A 
HETATM   11  C   UNL     1     -48.842  61.087 -59.186  1.00  0.00     0.018 A 
HETATM   12  C   UNL     1     -47.945  62.147 -59.562  1.00  0.00     0.012 A 
ENDROOT
BRANCH   8  13
HETATM   13  C   UNL     1     -44.659  57.559 -56.456  1.00  0.00     0.045 C 
HETATM   14  C   UNL     1     -44.405  57.669 -55.144  1.00  0.00     0.077 A 
HETATM   15  S   UNL     1     -44.596  59.060 -54.150  1.00  0.00    -0.055 SA
HETATM   16  C   UNL     1     -43.838  56.550 -54.347  1.00  0.00     0.266 A 
HETATM   17  C   UNL     1     -43.773  58.316 -52.791  1.00  0.00     0.148 A 
HETATM   18  S   UNL     1     -43.431  59.164 -51.395  1.00  0.00    -0.052 SA
HETATM   19  N   UNL     1     -43.481  56.999 -53.087  1.00  0.00    -0.298 N 
HETATM   20  O   UNL     1     -43.685  55.418 -54.782  1.00  0.00    -0.266 OA
BRANCH  19  21
HETATM   21  C   UNL     1     -42.832  56.074 -52.157  1.00  0.00     0.138 C 
BRANCH  21  22
HETATM   22  C   UNL     1     -41.315  56.006 -52.381  1.00  0.00     0.059 C 
BRANCH  22  23
HETATM   23  C   UNL     1     -40.843  54.599 -52.650  1.00  0.00    -0.057 A 
HETATM   24  C   UNL     1     -40.535  53.740 -51.586  1.00  0.00     0.010 A 
HETATM   25  C   UNL     1     -40.099  52.438 -51.835  1.00  0.00     0.037 A 
HETATM   26  C   UNL     1     -39.980  51.964 -53.142  1.00  0.00     0.068 A 
HETATM   27  C   UNL     1     -40.282  52.816 -54.204  1.00  0.00     0.037 A 
HETATM   28  C   UNL     1     -40.709  54.126 -53.959  1.00  0.00     0.010 A 
BRANCH  26  29
HETATM   29  O   UNL     1     -39.555  50.668 -53.246  1.00  0.00    -0.356 OA
HETATM   30  C   UNL     1     -39.818  50.010 -54.478  1.00  0.00     0.210 C 
ENDBRANCH  26  29
ENDBRANCH  22  23
ENDBRANCH  21  22
ENDBRANCH  19  21
ENDBRANCH   8  13
BRANCH   9  31
HETATM   31  N   UNL     1     -42.931  59.549 -57.762  1.00  0.00    -0.274 NA
HETATM   32  H   UNL     1     -42.594  60.513 -57.844  1.00  0.00     0.129 HD
BRANCH  31  33
HETATM   33  C   UNL     1     -42.065  58.596 -58.468  1.00  0.00     0.130 C 
BRANCH  33  34
HETATM   34  C   UNL     1     -42.647  58.233 -59.859  1.00  0.00     0.164 C 
BRANCH  34  35
HETATM   35  O   UNL     1     -41.580  58.053 -60.803  1.00  0.00    -0.390 OA
HETATM   36  H   UNL     1     -41.433  57.096 -60.909  1.00  0.00     0.210 HD
ENDBRANCH  34  35
BRANCH  34  37
HETATM   37  C   UNL     1     -43.560  57.025 -59.948  1.00  0.00    -0.029 A 
HETATM   38  C   UNL     1     -44.793  57.028 -60.616  1.00  0.00     0.010 A 
HETATM   39  C   UNL     1     -45.584  55.876 -60.672  1.00  0.00     0.001 A 
HETATM   40  C   UNL     1     -45.153  54.700 -60.061  1.00  0.00     0.000 A 
HETATM   41  C   UNL     1     -43.934  54.676 -59.391  1.00  0.00     0.001 A 
HETATM   42  C   UNL     1     -43.147  55.828 -59.334  1.00  0.00     0.010 A 
ENDBRANCH  34  37
ENDBRANCH  33  34
ENDBRANCH  31  33
ENDBRANCH   9  31
TORSDOF 10
ENDMDL
MODEL 8
REMARK VINA RESULT:      -8.5      3.442      9.284
REMARK  10 active torsions:
REMARK  status: ('A' for Active; 'I' for Inactive)
REMARK    1  A    between atoms: C_8  and  C_9 
REMARK    2  A    between atoms: N_14  and  C_15 
REMARK    3  A    between atoms: C_15  and  C_16 
REMARK    4  A    between atoms: C_16  and  C_17 
REMARK    5  A    between atoms: C_20  and  O_21 
REMARK    6  A    between atoms: C_27  and  N_28 
REMARK    7  A    between atoms: N_28  and  C_29 
REMARK    8  A    between atoms: C_29  and  C_30 
REMARK    9  A    between atoms: C_30  and  O_31 
REMARK   10  A    between atoms: C_30  and  C_32 
ROOT
HETATM    1  C   UNL     1     -40.262  52.703 -50.135  1.00  0.00     0.052 C 
HETATM    2  C   UNL     1     -40.280  52.662 -51.632  1.00  0.00    -0.015 A 
HETATM    3  C   UNL     1     -40.679  53.917 -52.358  1.00  0.00     0.144 A 
HETATM    4  N   UNL     1     -41.101  54.936 -51.679  1.00  0.00    -0.217 NA
HETATM    5  N   UNL     1     -40.565  53.911 -53.739  1.00  0.00    -0.272 N 
HETATM    6  C   UNL     1     -40.849  55.063 -54.454  1.00  0.00     0.266 C 
HETATM    7  O   UNL     1     -40.819  55.140 -55.685  1.00  0.00    -0.267 OA
HETATM    8  C   UNL     1     -41.210  56.267 -53.650  1.00  0.00     0.074 C 
HETATM    9  C   UNL     1     -41.395  56.106 -52.319  1.00  0.00     0.121 C 
HETATM   10  C   UNL     1     -40.200  52.758 -54.424  1.00  0.00     0.102 A 
HETATM   11  C   UNL     1     -39.902  51.623 -53.785  1.00  0.00     0.018 A 
HETATM   12  C   UNL     1     -39.920  51.585 -52.347  1.00  0.00     0.012 A 
ENDROOT
BRANCH   8  13
HETATM   13  C   UNL     1     -41.329  57.541 -54.353  1.00  0.00     0.045 C 
HETATM   14  C   UNL     1     -42.438  57.996 -54.955  1.00  0.00     0.077 A 
HETATM   15  S   UNL     1     -43.982  57.242 -55.019  1.00  0.00    -0.055 SA
HETATM   16  C   UNL     1     -42.457  59.257 -55.740  1.00  0.00     0.266 A 
HETATM   17  C   UNL     1     -44.596  58.387 -56.198  1.00  0.00     0.148 A 
HETATM   18  S   UNL     1     -46.103  58.215 -56.894  1.00  0.00    -0.052 SA
HETATM   19  N   UNL     1     -43.656  59.374 -56.422  1.00  0.00    -0.298 N 
HETATM   20  O   UNL     1     -41.517  60.039 -55.789  1.00  0.00    -0.266 OA
BRANCH  19  21
HETATM   21  C   UNL     1     -43.860  60.513 -57.319  1.00  0.00     0.138 C 
BRANCH  21  22
HETATM   22  C   UNL     1     -43.566  60.150 -58.780  1.00  0.00     0.059 C 
BRANCH  22  23
HETATM   23  C   UNL     1     -42.452  60.985 -59.361  1.00  0.00    -0.057 A 
HETATM   24  C   UNL     1     -42.155  60.918 -60.728  1.00  0.00     0.010 A 
HETATM   25  C   UNL     1     -41.125  61.691 -61.266  1.00  0.00     0.037 A 
HETATM   26  C   UNL     1     -40.388  62.556 -60.456  1.00  0.00     0.068 A 
HETATM   27  C   UNL     1     -40.678  62.625 -59.094  1.00  0.00     0.037 A 
HETATM   28  C   UNL     1     -41.702  61.843 -58.549  1.00  0.00     0.010 A 
BRANCH  26  29
HETATM   29  O   UNL     1     -39.418  63.265 -61.109  1.00  0.00    -0.356 OA
HETATM   30  C   UNL     1     -39.316  63.058 -62.513  1.00  0.00     0.210 C 
ENDBRANCH  26  29
ENDBRANCH  22  23
ENDBRANCH  21  22
ENDBRANCH  19  21
ENDBRANCH   8  13
BRANCH   9  31
HETATM   31  N   UNL     1     -41.828  57.128 -51.483  1.00  0.00    -0.274 NA
HETATM   32  H   UNL     1     -42.312  57.819 -52.063  1.00  0.00     0.129 HD
BRANCH  31  33
HETATM   33  C   UNL     1     -40.996  57.756 -50.448  1.00  0.00     0.130 C 
BRANCH  33  34
HETATM   34  C   UNL     1     -40.745  59.253 -50.762  1.00  0.00     0.164 C 
BRANCH  34  35
HETATM   35  O   UNL     1     -39.879  59.377 -51.900  1.00  0.00    -0.390 OA
HETATM   36  H   UNL     1     -40.386  59.796 -52.619  1.00  0.00     0.210 HD
ENDBRANCH  34  35
BRANCH  34  37
HETATM   37  C   UNL     1     -41.956  60.137 -50.999  1.00  0.00    -0.029 A 
HETATM   38  C   UNL     1     -42.753  60.658 -49.969  1.00  0.00     0.010 A 
HETATM   39  C   UNL     1     -43.851  61.477 -50.253  1.00  0.00     0.001 A 
HETATM   40  C   UNL     1     -44.170  61.787 -51.573  1.00  0.00     0.000 A 
HETATM   41  C   UNL     1     -43.395  61.278 -52.610  1.00  0.00     0.001 A 
HETATM   42  C   UNL     1     -42.300  60.460 -52.324  1.00  0.00     0.010 A 
ENDBRANCH  34  37
ENDBRANCH  33  34
ENDBRANCH  31  33
ENDBRANCH   9  31
TORSDOF 10
ENDMDL
MODEL 9
REMARK VINA RESULT:      -8.4      3.962      8.807
REMARK  10 active torsions:
REMARK  status: ('A' for Active; 'I' for Inactive)
REMARK    1  A    between atoms: C_8  and  C_9 
REMARK    2  A    between atoms: N_14  and  C_15 
REMARK    3  A    between atoms: C_15  and  C_16 
REMARK    4  A    between atoms: C_16  and  C_17 
REMARK    5  A    between atoms: C_20  and  O_21 
REMARK    6  A    between atoms: C_27  and  N_28 
REMARK    7  A    between atoms: N_28  and  C_29 
REMARK    8  A    between atoms: C_29  and  C_30 
REMARK    9  A    between atoms: C_30  and  O_31 
REMARK   10  A    between atoms: C_30  and  C_32 
ROOT
HETATM    1  C   UNL     1     -41.331  56.136 -50.068  1.00  0.00     0.052 C 
HETATM    2  C   UNL     1     -41.400  57.531 -50.604  1.00  0.00    -0.015 A 
HETATM    3  C   UNL     1     -42.066  57.734 -51.937  1.00  0.00     0.144 A 
HETATM    4  N   UNL     1     -42.446  56.701 -52.620  1.00  0.00    -0.217 NA
HETATM    5  N   UNL     1     -42.243  59.041 -52.362  1.00  0.00    -0.272 N 
HETATM    6  C   UNL     1     -42.917  59.289 -53.547  1.00  0.00     0.266 C 
HETATM    7  O   UNL     1     -43.083  60.413 -54.027  1.00  0.00    -0.267 OA
HETATM    8  C   UNL     1     -43.461  58.097 -54.260  1.00  0.00     0.074 C 
HETATM    9  C   UNL     1     -43.119  56.873 -53.796  1.00  0.00     0.121 C 
HETATM   10  C   UNL     1     -41.729  60.108 -51.635  1.00  0.00     0.102 A 
HETATM   11  C   UNL     1     -41.083  59.928 -50.479  1.00  0.00     0.018 A 
HETATM   12  C   UNL     1     -40.938  58.603 -49.939  1.00  0.00     0.012 A 
ENDROOT
BRANCH   8  13
HETATM   13  C   UNL     1     -44.336  58.332 -55.405  1.00  0.00     0.045 C 
HETATM   14  C   UNL     1     -44.004  58.137 -56.689  1.00  0.00     0.077 A 
HETATM   15  S   UNL     1     -42.518  57.531 -57.309  1.00  0.00    -0.055 SA
HETATM   16  C   UNL     1     -44.912  58.496 -57.810  1.00  0.00     0.266 A 
HETATM   17  C   UNL     1     -42.943  57.921 -58.966  1.00  0.00     0.148 A 
HETATM   18  S   UNL     1     -41.863  57.727 -60.223  1.00  0.00    -0.052 SA
HETATM   19  N   UNL     1     -44.241  58.390 -59.016  1.00  0.00    -0.298 N 
HETATM   20  O   UNL     1     -46.067  58.865 -57.653  1.00  0.00    -0.266 OA
BRANCH  19  21
HETATM   21  C   UNL     1     -44.930  58.768 -60.251  1.00  0.00     0.138 C 
BRANCH  21  22
HETATM   22  C   UNL     1     -45.042  60.291 -60.401  1.00  0.00     0.059 C 
BRANCH  22  23
HETATM   23  C   UNL     1     -43.692  60.953 -60.521  1.00  0.00    -0.057 A 
HETATM   24  C   UNL     1     -42.981  60.897 -61.726  1.00  0.00     0.010 A 
HETATM   25  C   UNL     1     -41.732  61.510 -61.837  1.00  0.00     0.037 A 
HETATM   26  C   UNL     1     -41.181  62.204 -60.759  1.00  0.00     0.068 A 
HETATM   27  C   UNL     1     -41.884  62.260 -59.556  1.00  0.00     0.037 A 
HETATM   28  C   UNL     1     -43.131  61.636 -59.437  1.00  0.00     0.010 A 
BRANCH  26  29
HETATM   29  O   UNL     1     -39.960  62.768 -61.005  1.00  0.00    -0.356 OA
HETATM   30  C   UNL     1     -39.618  62.974 -62.370  1.00  0.00     0.210 C 
ENDBRANCH  26  29
ENDBRANCH  22  23
ENDBRANCH  21  22
ENDBRANCH  19  21
ENDBRANCH   8  13
BRANCH   9  31
HETATM   31  N   UNL     1     -43.482  55.691 -54.431  1.00  0.00    -0.274 NA
HETATM   32  H   UNL     1     -44.430  55.814 -54.797  1.00  0.00     0.129 HD
BRANCH  31  33
HETATM   33  C   UNL     1     -43.275  54.352 -53.863  1.00  0.00     0.130 C 
BRANCH  33  34
HETATM   34  C   UNL     1     -42.177  53.578 -54.638  1.00  0.00     0.164 C 
BRANCH  34  35
HETATM   35  O   UNL     1     -41.460  54.477 -55.499  1.00  0.00    -0.390 OA
HETATM   36  H   UNL     1     -41.225  55.266 -54.978  1.00  0.00     0.210 HD
ENDBRANCH  34  35
BRANCH  34  37
HETATM   37  C   UNL     1     -41.160  52.796 -53.827  1.00  0.00    -0.029 A 
HETATM   38  C   UNL     1     -40.477  51.672 -54.313  1.00  0.00     0.010 A 
HETATM   39  C   UNL     1     -39.542  51.001 -53.518  1.00  0.00     0.001 A 
HETATM   40  C   UNL     1     -39.274  51.444 -52.225  1.00  0.00     0.000 A 
HETATM   41  C   UNL     1     -39.944  52.555 -51.723  1.00  0.00     0.001 A 
HETATM   42  C   UNL     1     -40.878  53.224 -52.517  1.00  0.00     0.010 A 
ENDBRANCH  34  37
ENDBRANCH  33  34
ENDBRANCH  31  33
ENDBRANCH   9  31
TORSDOF 10
ENDMDL
MODEL 10
REMARK VINA RESULT:      -8.3      3.735     10.516
REMARK  10 active torsions:
REMARK  status: ('A' for Active; 'I' for Inactive)
REMARK    1  A    between atoms: C_8  and  C_9 
REMARK    2  A    between atoms: N_14  and  C_15 
REMARK    3  A    between atoms: C_15  and  C_16 
REMARK    4  A    between atoms: C_16  and  C_17 
REMARK    5  A    between atoms: C_20  and  O_21 
REMARK    6  A    between atoms: C_27  and  N_28 
REMARK    7  A    between atoms: N_28  and  C_29 
REMARK    8  A    between atoms: C_29  and  C_30 
REMARK    9  A    between atoms: C_30  and  O_31 
REMARK   10  A    between atoms: C_30  and  C_32 
ROOT
HETATM    1  C   UNL     1     -48.464  64.757 -50.440  1.00  0.00     0.052 C 
HETATM    2  C   UNL     1     -47.940  64.185 -51.720  1.00  0.00    -0.015 A 
HETATM    3  C   UNL     1     -47.107  62.935 -51.637  1.00  0.00     0.144 A 
HETATM    4  N   UNL     1     -46.777  62.471 -50.474  1.00  0.00    -0.217 NA
HETATM    5  N   UNL     1     -46.740  62.341 -52.833  1.00  0.00    -0.272 N 
HETATM    6  C   UNL     1     -46.035  61.148 -52.815  1.00  0.00     0.266 C 
HETATM    7  O   UNL     1     -45.627  60.569 -53.825  1.00  0.00    -0.267 OA
HETATM    8  C   UNL     1     -45.772  60.556 -51.471  1.00  0.00     0.074 C 
HETATM    9  C   UNL     1     -46.085  61.296 -50.382  1.00  0.00     0.121 C 
HETATM   10  C   UNL     1     -47.039  62.936 -54.052  1.00  0.00     0.102 A 
HETATM   11  C   UNL     1     -47.728  64.079 -54.129  1.00  0.00     0.018 A 
HETATM   12  C   UNL     1     -48.211  64.705 -52.928  1.00  0.00     0.012 A 
ENDROOT
BRANCH   8  13
HETATM   13  C   UNL     1     -45.203  59.212 -51.421  1.00  0.00     0.045 C 
HETATM   14  C   UNL     1     -43.907  58.924 -51.233  1.00  0.00     0.077 A 
HETATM   15  S   UNL     1     -42.615  60.026 -50.963  1.00  0.00    -0.055 SA
HETATM   16  C   UNL     1     -43.384  57.534 -51.297  1.00  0.00     0.266 A 
HETATM   17  C   UNL     1     -41.392  58.780 -51.139  1.00  0.00     0.148 A 
HETATM   18  S   UNL     1     -39.762  59.136 -51.133  1.00  0.00    -0.052 SA
HETATM   19  N   UNL     1     -42.000  57.548 -51.281  1.00  0.00    -0.298 N 
HETATM   20  O   UNL     1     -44.097  56.545 -51.389  1.00  0.00    -0.266 OA
BRANCH  19  21
HETATM   21  C   UNL     1     -41.272  56.284 -51.409  1.00  0.00     0.138 C 
BRANCH  21  22
HETATM   22  C   UNL     1     -41.297  55.751 -52.847  1.00  0.00     0.059 C 
BRANCH  22  23
HETATM   23  C   UNL     1     -40.793  54.333 -52.938  1.00  0.00    -0.057 A 
HETATM   24  C   UNL     1     -40.616  53.722 -54.186  1.00  0.00     0.010 A 
HETATM   25  C   UNL     1     -40.148  52.411 -54.270  1.00  0.00     0.037 A 
HETATM   26  C   UNL     1     -39.831  51.693 -53.116  1.00  0.00     0.068 A 
HETATM   27  C   UNL     1     -40.008  52.294 -51.871  1.00  0.00     0.037 A 
HETATM   28  C   UNL     1     -40.488  53.606 -51.782  1.00  0.00     0.010 A 
BRANCH  26  29
HETATM   29  O   UNL     1     -39.371  50.424 -53.339  1.00  0.00    -0.356 OA
HETATM   30  C   UNL     1     -39.793  49.797 -54.543  1.00  0.00     0.210 C 
ENDBRANCH  26  29
ENDBRANCH  22  23
ENDBRANCH  21  22
ENDBRANCH  19  21
ENDBRANCH   8  13
BRANCH   9  31
HETATM   31  N   UNL     1     -45.798  60.896 -49.082  1.00  0.00    -0.274 NA
HETATM   32  H   UNL     1     -46.674  60.589 -48.651  1.00  0.00     0.129 HD
BRANCH  31  33
HETATM   33  C   UNL     1     -44.957  61.659 -48.151  1.00  0.00     0.130 C 
BRANCH  33  34
HETATM   34  C   UNL     1     -45.292  61.309 -46.678  1.00  0.00     0.164 C 
BRANCH  34  35
HETATM   35  O   UNL     1     -44.196  60.596 -46.084  1.00  0.00    -0.390 OA
HETATM   36  H   UNL     1     -43.745  61.201 -45.467  1.00  0.00     0.210 HD
ENDBRANCH  34  35
BRANCH  34  37
HETATM   37  C   UNL     1     -45.666  62.450 -45.750  1.00  0.00    -0.029 A 
HETATM   38  C   UNL     1     -46.854  63.187 -45.862  1.00  0.00     0.010 A 
HETATM   39  C   UNL     1     -47.146  64.220 -44.966  1.00  0.00     0.001 A 
HETATM   40  C   UNL     1     -46.254  64.534 -43.943  1.00  0.00     0.000 A 
HETATM   41  C   UNL     1     -45.068  63.817 -43.817  1.00  0.00     0.001 A 
HETATM   42  C   UNL     1     -44.777  62.786 -44.712  1.00  0.00     0.010 A 
ENDBRANCH  34  37
ENDBRANCH  33  34
ENDBRANCH  31  33
ENDBRANCH   9  31
TORSDOF 10
ENDMDL
