MODEL 1
REMARK VINA RESULT:      -9.0      0.000      0.000
REMARK  3 active torsions:
REMARK  status: ('A' for Active; 'I' for Inactive)
REMARK    1  A    between atoms: C_9  and  C_10 
REMARK       I    between atoms: C_10  and  N_11 
REMARK    2  A    between atoms: N_11  and  C_12 
REMARK    3  A    between atoms: C_14  and  C_15 
ROOT
HETATM    1  C   UNL     1     -41.594  56.446 -54.694  1.00  0.00     0.252 C 
HETATM    2  N   UNL     1     -41.693  56.543 -56.074  1.00  0.00    -0.325 N 
HETATM    3  O   UNL     1     -42.216  57.117 -53.876  1.00  0.00    -0.270 OA
HETATM    4  H   UNL     1     -40.985  56.037 -56.598  1.00  0.00     0.169 HD
ENDROOT
BRANCH   2   5
HETATM    5  C   UNL     1     -42.612  57.321 -56.810  1.00  0.00     0.035 A 
HETATM    6  C   UNL     1     -43.510  56.780 -57.736  1.00  0.00     0.042 A 
HETATM    7  C   UNL     1     -44.386  57.594 -58.475  1.00  0.00    -0.021 A 
HETATM    8  C   UNL     1     -44.348  58.977 -58.262  1.00  0.00     0.012 A 
HETATM    9  C   UNL     1     -43.452  59.529 -57.344  1.00  0.00     0.003 A 
HETATM   10  C   UNL     1     -42.585  58.705 -56.624  1.00  0.00     0.029 A 
BRANCH   7  11
HETATM   11  C   UNL     1     -45.299  56.989 -59.439  1.00  0.00     0.010 A 
HETATM   12  C   UNL     1     -46.716  56.959 -59.475  1.00  0.00     0.152 A 
HETATM   13  N   UNL     1     -47.198  56.280 -60.519  1.00  0.00    -0.187 NA
HETATM   14  N   UNL     1     -46.093  55.868 -61.158  1.00  0.00    -0.289 N 
HETATM   15  H   UNL     1     -46.206  55.315 -62.001  1.00  0.00     0.188 HD
HETATM   16  C   UNL     1     -44.934  56.263 -60.554  1.00  0.00     0.123 A 
ENDBRANCH   7  11
ENDBRANCH   2   5
BRANCH   1  17
HETATM   17  C   UNL     1     -40.683  55.296 -54.253  1.00  0.00     0.225 C 
HETATM   18  C   UNL     1     -40.783  54.103 -55.209  1.00  0.00     0.083 C 
HETATM   19  C   UNL     1     -40.415  53.037 -54.253  1.00  0.00    -0.021 A 
HETATM   20  C   UNL     1     -40.553  53.514 -52.962  1.00  0.00     0.076 A 
HETATM   21  C   UNL     1     -40.031  51.732 -54.496  1.00  0.00     0.017 A 
HETATM   22  C   UNL     1     -40.314  52.716 -51.865  1.00  0.00     0.044 A 
HETATM   23  O   UNL     1     -40.942  54.833 -52.907  1.00  0.00    -0.336 OA
HETATM   24  C   UNL     1     -39.892  51.391 -52.077  1.00  0.00    -0.053 A 
HETATM   25  C   UNL     1     -39.762  50.891 -53.401  1.00  0.00    -0.055 A 
HETATM   26  C   UNL     1     -39.602  50.516 -50.887  1.00  0.00     0.049 C 
HETATM   27  C   UNL     1     -39.305  49.482 -53.667  1.00  0.00     0.049 C 
ENDBRANCH   1  17
TORSDOF 3
ENDMDL
MODEL 2
REMARK VINA RESULT:      -8.9      2.971      8.778
REMARK  3 active torsions:
REMARK  status: ('A' for Active; 'I' for Inactive)
REMARK    1  A    between atoms: C_9  and  C_10 
REMARK       I    between atoms: C_10  and  N_11 
REMARK    2  A    between atoms: N_11  and  C_12 
REMARK    3  A    between atoms: C_14  and  C_15 
ROOT
HETATM    1  C   UNL     1     -43.030  55.360 -54.765  1.00  0.00     0.252 C 
HETATM    2  N   UNL     1     -41.702  55.286 -54.370  1.00  0.00    -0.325 N 
HETATM    3  O   UNL     1     -43.958  54.701 -54.305  1.00  0.00    -0.270 OA
HETATM    4  H   UNL     1     -41.042  55.773 -54.969  1.00  0.00     0.169 HD
ENDROOT
BRANCH   2   5
HETATM    5  C   UNL     1     -41.175  54.555 -53.285  1.00  0.00     0.035 A 
HETATM    6  C   UNL     1     -40.758  53.223 -53.383  1.00  0.00     0.042 A 
HETATM    7  C   UNL     1     -40.271  52.519 -52.268  1.00  0.00    -0.021 A 
HETATM    8  C   UNL     1     -40.202  53.185 -51.038  1.00  0.00     0.012 A 
HETATM    9  C   UNL     1     -40.619  54.514 -50.927  1.00  0.00     0.003 A 
HETATM   10  C   UNL     1     -41.107  55.194 -52.044  1.00  0.00     0.029 A 
BRANCH   7  11
HETATM   11  C   UNL     1     -39.858  51.128 -52.413  1.00  0.00     0.010 A 
HETATM   12  C   UNL     1     -39.695  50.329 -53.573  1.00  0.00     0.152 A 
HETATM   13  N   UNL     1     -39.319  49.077 -53.296  1.00  0.00    -0.187 NA
HETATM   14  N   UNL     1     -39.241  49.065 -51.958  1.00  0.00    -0.289 N 
HETATM   15  H   UNL     1     -38.971  48.200 -51.503  1.00  0.00     0.188 HD
HETATM   16  C   UNL     1     -39.554  50.262 -51.382  1.00  0.00     0.123 A 
ENDBRANCH   7  11
ENDBRANCH   2   5
BRANCH   1  17
HETATM   17  C   UNL     1     -43.273  56.468 -55.793  1.00  0.00     0.225 C 
HETATM   18  C   UNL     1     -42.930  56.002 -57.212  1.00  0.00     0.083 C 
HETATM   19  C   UNL     1     -42.606  57.322 -57.794  1.00  0.00    -0.021 A 
HETATM   20  C   UNL     1     -42.373  58.225 -56.773  1.00  0.00     0.076 A 
HETATM   21  C   UNL     1     -42.480  57.692 -59.119  1.00  0.00     0.017 A 
HETATM   22  C   UNL     1     -42.008  59.530 -57.028  1.00  0.00     0.044 A 
HETATM   23  O   UNL     1     -42.543  57.687 -55.518  1.00  0.00    -0.336 OA
HETATM   24  C   UNL     1     -41.901  59.948 -58.367  1.00  0.00    -0.053 A 
HETATM   25  C   UNL     1     -42.126  59.019 -59.420  1.00  0.00    -0.055 A 
HETATM   26  C   UNL     1     -41.530  61.377 -58.661  1.00  0.00     0.049 C 
HETATM   27  C   UNL     1     -42.029  59.432 -60.865  1.00  0.00     0.049 C 
ENDBRANCH   1  17
TORSDOF 3
ENDMDL
MODEL 3
REMARK VINA RESULT:      -8.9      3.062      9.051
REMARK  3 active torsions:
REMARK  status: ('A' for Active; 'I' for Inactive)
REMARK    1  A    between atoms: C_9  and  C_10 
REMARK       I    between atoms: C_10  and  N_11 
REMARK    2  A    between atoms: N_11  and  C_12 
REMARK    3  A    between atoms: C_14  and  C_15 
ROOT
HETATM    1  C   UNL     1     -42.737  54.898 -55.832  1.00  0.00     0.252 C 
HETATM    2  N   UNL     1     -41.534  55.000 -55.149  1.00  0.00    -0.325 N 
HETATM    3  O   UNL     1     -43.533  53.966 -55.758  1.00  0.00    -0.270 OA
HETATM    4  H   UNL     1     -40.922  55.750 -55.456  1.00  0.00     0.169 HD
ENDROOT
BRANCH   2   5
HETATM    5  C   UNL     1     -41.049  54.138 -54.143  1.00  0.00     0.035 A 
HETATM    6  C   UNL     1     -41.136  54.424 -52.776  1.00  0.00     0.042 A 
HETATM    7  C   UNL     1     -40.608  53.555 -51.807  1.00  0.00    -0.021 A 
HETATM    8  C   UNL     1     -39.989  52.374 -52.237  1.00  0.00     0.012 A 
HETATM    9  C   UNL     1     -39.892  52.080 -53.599  1.00  0.00     0.003 A 
HETATM   10  C   UNL     1     -40.417  52.961 -54.548  1.00  0.00     0.029 A 
BRANCH   7  11
HETATM   11  C   UNL     1     -40.710  53.897 -50.392  1.00  0.00     0.010 A 
HETATM   12  C   UNL     1     -41.150  55.087 -49.760  1.00  0.00     0.152 A 
HETATM   13  N   UNL     1     -41.078  55.028 -48.428  1.00  0.00    -0.187 NA
HETATM   14  N   UNL     1     -40.587  53.802 -48.197  1.00  0.00    -0.289 N 
HETATM   15  H   UNL     1     -40.436  53.520 -47.235  1.00  0.00     0.188 HD
HETATM   16  C   UNL     1     -40.349  53.087 -49.335  1.00  0.00     0.123 A 
ENDBRANCH   7  11
ENDBRANCH   2   5
BRANCH   1  17
HETATM   17  C   UNL     1     -43.061  56.159 -56.638  1.00  0.00     0.225 C 
HETATM   18  C   UNL     1     -42.833  55.942 -58.137  1.00  0.00     0.083 C 
HETATM   19  C   UNL     1     -42.555  57.344 -58.513  1.00  0.00    -0.021 A 
HETATM   20  C   UNL     1     -42.240  58.067 -57.376  1.00  0.00     0.076 A 
HETATM   21  C   UNL     1     -42.536  57.933 -59.763  1.00  0.00     0.017 A 
HETATM   22  C   UNL     1     -41.896  59.400 -57.437  1.00  0.00     0.044 A 
HETATM   23  O   UNL     1     -42.310  57.324 -56.221  1.00  0.00    -0.336 OA
HETATM   24  C   UNL     1     -41.896  60.038 -58.691  1.00  0.00    -0.053 A 
HETATM   25  C   UNL     1     -42.206  59.296 -59.864  1.00  0.00    -0.055 A 
HETATM   26  C   UNL     1     -41.548  61.500 -58.769  1.00  0.00     0.049 C 
HETATM   27  C   UNL     1     -42.224  59.946 -61.222  1.00  0.00     0.049 C 
ENDBRANCH   1  17
TORSDOF 3
ENDMDL
MODEL 4
REMARK VINA RESULT:      -8.4      4.502      6.216
REMARK  3 active torsions:
REMARK  status: ('A' for Active; 'I' for Inactive)
REMARK    1  A    between atoms: C_9  and  C_10 
REMARK       I    between atoms: C_10  and  N_11 
REMARK    2  A    between atoms: N_11  and  C_12 
REMARK    3  A    between atoms: C_14  and  C_15 
ROOT
HETATM    1  C   UNL     1     -41.922  57.079 -53.292  1.00  0.00     0.252 C 
HETATM    2  N   UNL     1     -42.740  57.130 -52.173  1.00  0.00    -0.325 N 
HETATM    3  O   UNL     1     -41.866  57.918 -54.186  1.00  0.00    -0.270 OA
HETATM    4  H   UNL     1     -42.784  56.275 -51.626  1.00  0.00     0.169 HD
ENDROOT
BRANCH   2   5
HETATM    5  C   UNL     1     -43.561  58.202 -51.766  1.00  0.00     0.035 A 
HETATM    6  C   UNL     1     -43.147  59.539 -51.781  1.00  0.00     0.042 A 
HETATM    7  C   UNL     1     -43.984  60.575 -51.333  1.00  0.00    -0.021 A 
HETATM    8  C   UNL     1     -45.264  60.244 -50.870  1.00  0.00     0.012 A 
HETATM    9  C   UNL     1     -45.686  58.912 -50.846  1.00  0.00     0.003 A 
HETATM   10  C   UNL     1     -44.837  57.897 -51.288  1.00  0.00     0.029 A 
BRANCH   7  11
HETATM   11  C   UNL     1     -43.508  61.953 -51.356  1.00  0.00     0.010 A 
HETATM   12  C   UNL     1     -42.968  62.761 -50.323  1.00  0.00     0.152 A 
HETATM   13  N   UNL     1     -42.663  63.996 -50.731  1.00  0.00    -0.187 NA
HETATM   14  N   UNL     1     -43.008  63.989 -52.027  1.00  0.00    -0.289 N 
HETATM   15  H   UNL     1     -42.870  64.839 -52.563  1.00  0.00     0.188 HD
HETATM   16  C   UNL     1     -43.519  62.795 -52.449  1.00  0.00     0.123 A 
ENDBRANCH   7  11
ENDBRANCH   2   5
BRANCH   1  17
HETATM   17  C   UNL     1     -40.963  55.885 -53.261  1.00  0.00     0.225 C 
HETATM   18  C   UNL     1     -41.176  54.960 -54.464  1.00  0.00     0.083 C 
HETATM   19  C   UNL     1     -40.693  53.704 -53.852  1.00  0.00    -0.021 A 
HETATM   20  C   UNL     1     -40.673  53.846 -52.476  1.00  0.00     0.076 A 
HETATM   21  C   UNL     1     -40.339  52.512 -54.453  1.00  0.00     0.017 A 
HETATM   22  C   UNL     1     -40.301  52.810 -51.646  1.00  0.00     0.044 A 
HETATM   23  O   UNL     1     -41.055  55.097 -52.050  1.00  0.00    -0.336 OA
HETATM   24  C   UNL     1     -39.906  51.592 -52.228  1.00  0.00    -0.053 A 
HETATM   25  C   UNL     1     -39.938  51.438 -53.641  1.00  0.00    -0.055 A 
HETATM   26  C   UNL     1     -39.471  50.461 -51.335  1.00  0.00     0.049 C 
HETATM   27  C   UNL     1     -39.514  50.152 -54.300  1.00  0.00     0.049 C 
ENDBRANCH   1  17
TORSDOF 3
ENDMDL
MODEL 5
REMARK VINA RESULT:      -8.3      4.469      6.160
REMARK  3 active torsions:
REMARK  status: ('A' for Active; 'I' for Inactive)
REMARK    1  A    between atoms: C_9  and  C_10 
REMARK       I    between atoms: C_10  and  N_11 
REMARK    2  A    between atoms: N_11  and  C_12 
REMARK    3  A    between atoms: C_14  and  C_15 
ROOT
HETATM    1  C   UNL     1     -41.778  56.791 -53.766  1.00  0.00     0.252 C 
HETATM    2  N   UNL     1     -41.689  57.637 -52.670  1.00  0.00    -0.325 N 
HETATM    3  O   UNL     1     -42.448  56.985 -54.775  1.00  0.00    -0.270 OA
HETATM    4  H   UNL     1     -41.228  57.245 -51.853  1.00  0.00     0.169 HD
ENDROOT
BRANCH   2   5
HETATM    5  C   UNL     1     -42.230  58.934 -52.548  1.00  0.00     0.035 A 
HETATM    6  C   UNL     1     -43.009  59.345 -51.460  1.00  0.00     0.042 A 
HETATM    7  C   UNL     1     -43.559  60.636 -51.394  1.00  0.00    -0.021 A 
HETATM    8  C   UNL     1     -43.307  61.523 -52.448  1.00  0.00     0.012 A 
HETATM    9  C   UNL     1     -42.534  61.122 -53.542  1.00  0.00     0.003 A 
HETATM   10  C   UNL     1     -42.002  59.833 -53.593  1.00  0.00     0.029 A 
BRANCH   7  11
HETATM   11  C   UNL     1     -44.375  61.019 -50.247  1.00  0.00     0.010 A 
HETATM   12  C   UNL     1     -45.568  60.453 -49.732  1.00  0.00     0.152 A 
HETATM   13  N   UNL     1     -46.037  61.105 -48.665  1.00  0.00    -0.187 NA
HETATM   14  N   UNL     1     -45.150  62.095 -48.490  1.00  0.00    -0.289 N 
HETATM   15  H   UNL     1     -45.299  62.742 -47.724  1.00  0.00     0.188 HD
HETATM   16  C   UNL     1     -44.140  62.089 -49.409  1.00  0.00     0.123 A 
ENDBRANCH   7  11
ENDBRANCH   2   5
BRANCH   1  17
HETATM   17  C   UNL     1     -40.833  55.591 -53.655  1.00  0.00     0.225 C 
HETATM   18  C   UNL     1     -41.085  54.573 -54.772  1.00  0.00     0.083 C 
HETATM   19  C   UNL     1     -40.603  53.366 -54.068  1.00  0.00    -0.021 A 
HETATM   20  C   UNL     1     -40.550  53.620 -52.710  1.00  0.00     0.076 A 
HETATM   21  C   UNL     1     -40.278  52.122 -54.576  1.00  0.00     0.017 A 
HETATM   22  C   UNL     1     -40.171  52.652 -51.805  1.00  0.00     0.044 A 
HETATM   23  O   UNL     1     -40.906  54.908 -52.382  1.00  0.00    -0.336 OA
HETATM   24  C   UNL     1     -39.805  51.384 -52.292  1.00  0.00    -0.053 A 
HETATM   25  C   UNL     1     -39.871  51.114 -53.686  1.00  0.00    -0.055 A 
HETATM   26  C   UNL     1     -39.363  50.326 -51.317  1.00  0.00     0.049 C 
HETATM   27  C   UNL     1     -39.478  49.771 -54.244  1.00  0.00     0.049 C 
ENDBRANCH   1  17
TORSDOF 3
ENDMDL
MODEL 6
REMARK VINA RESULT:      -8.3      2.949      8.844
REMARK  3 active torsions:
REMARK  status: ('A' for Active; 'I' for Inactive)
REMARK    1  A    between atoms: C_9  and  C_10 
REMARK       I    between atoms: C_10  and  N_11 
REMARK    2  A    between atoms: N_11  and  C_12 
REMARK    3  A    between atoms: C_14  and  C_15 
ROOT
HETATM    1  C   UNL     1     -41.610  56.217 -54.201  1.00  0.00     0.252 C 
HETATM    2  N   UNL     1     -42.105  55.279 -53.308  1.00  0.00    -0.325 N 
HETATM    3  O   UNL     1     -40.477  56.691 -54.198  1.00  0.00    -0.270 OA
HETATM    4  H   UNL     1     -43.109  55.126 -53.349  1.00  0.00     0.169 HD
ENDROOT
BRANCH   2   5
HETATM    5  C   UNL     1     -41.385  54.585 -52.314  1.00  0.00     0.035 A 
HETATM    6  C   UNL     1     -40.993  53.247 -52.439  1.00  0.00     0.042 A 
HETATM    7  C   UNL     1     -40.306  52.582 -51.409  1.00  0.00    -0.021 A 
HETATM    8  C   UNL     1     -40.010  53.291 -50.239  1.00  0.00     0.012 A 
HETATM    9  C   UNL     1     -40.400  54.626 -50.100  1.00  0.00     0.003 A 
HETATM   10  C   UNL     1     -41.088  55.268 -51.132  1.00  0.00     0.029 A 
BRANCH   7  11
HETATM   11  C   UNL     1     -39.926  51.183 -51.577  1.00  0.00     0.010 A 
HETATM   12  C   UNL     1     -39.639  50.439 -52.749  1.00  0.00     0.152 A 
HETATM   13  N   UNL     1     -39.346  49.160 -52.496  1.00  0.00    -0.187 NA
HETATM   14  N   UNL     1     -39.447  49.076 -51.162  1.00  0.00    -0.289 N 
HETATM   15  H   UNL     1     -39.269  48.178 -50.725  1.00  0.00     0.188 HD
HETATM   16  C   UNL     1     -39.792  50.254 -50.566  1.00  0.00     0.123 A 
ENDBRANCH   7  11
ENDBRANCH   2   5
BRANCH   1  17
HETATM   17  C   UNL     1     -42.606  56.544 -55.318  1.00  0.00     0.225 C 
HETATM   18  C   UNL     1     -42.816  55.346 -56.251  1.00  0.00     0.083 C 
HETATM   19  C   UNL     1     -43.196  56.093 -57.469  1.00  0.00    -0.021 A 
HETATM   20  C   UNL     1     -42.809  57.414 -57.333  1.00  0.00     0.076 A 
HETATM   21  C   UNL     1     -43.795  55.639 -58.628  1.00  0.00     0.017 A 
HETATM   22  C   UNL     1     -43.004  58.334 -58.340  1.00  0.00     0.044 A 
HETATM   23  O   UNL     1     -42.229  57.690 -56.116  1.00  0.00    -0.336 OA
HETATM   24  C   UNL     1     -43.639  57.911 -59.522  1.00  0.00    -0.053 A 
HETATM   25  C   UNL     1     -44.026  56.552 -59.672  1.00  0.00    -0.055 A 
HETATM   26  C   UNL     1     -43.882  58.911 -60.621  1.00  0.00     0.049 C 
HETATM   27  C   UNL     1     -44.716  56.064 -60.919  1.00  0.00     0.049 C 
ENDBRANCH   1  17
TORSDOF 3
ENDMDL
MODEL 7
REMARK VINA RESULT:      -8.3      5.018      6.077
REMARK  3 active torsions:
REMARK  status: ('A' for Active; 'I' for Inactive)
REMARK    1  A    between atoms: C_9  and  C_10 
REMARK       I    between atoms: C_10  and  N_11 
REMARK    2  A    between atoms: N_11  and  C_12 
REMARK    3  A    between atoms: C_14  and  C_15 
ROOT
HETATM    1  C   UNL     1     -41.720  56.570 -52.688  1.00  0.00     0.252 C 
HETATM    2  N   UNL     1     -42.554  57.119 -51.725  1.00  0.00    -0.325 N 
HETATM    3  O   UNL     1     -40.990  57.194 -53.452  1.00  0.00    -0.270 OA
HETATM    4  H   UNL     1     -43.213  56.473 -51.300  1.00  0.00     0.169 HD
ENDROOT
BRANCH   2   5
HETATM    5  C   UNL     1     -42.632  58.472 -51.335  1.00  0.00     0.035 A 
HETATM    6  C   UNL     1     -43.762  59.271 -51.545  1.00  0.00     0.042 A 
HETATM    7  C   UNL     1     -43.786  60.626 -51.173  1.00  0.00    -0.021 A 
HETATM    8  C   UNL     1     -42.644  61.173 -50.575  1.00  0.00     0.012 A 
HETATM    9  C   UNL     1     -41.508  60.387 -50.366  1.00  0.00     0.003 A 
HETATM   10  C   UNL     1     -41.501  59.044 -50.748  1.00  0.00     0.029 A 
BRANCH   7  11
HETATM   11  C   UNL     1     -44.981  61.424 -51.419  1.00  0.00     0.010 A 
HETATM   12  C   UNL     1     -45.166  62.830 -51.432  1.00  0.00     0.152 A 
HETATM   13  N   UNL     1     -46.429  63.188 -51.679  1.00  0.00    -0.187 NA
HETATM   14  N   UNL     1     -47.063  62.015 -51.823  1.00  0.00    -0.289 N 
HETATM   15  H   UNL     1     -48.058  62.030 -52.017  1.00  0.00     0.188 HD
HETATM   16  C   UNL     1     -46.244  60.932 -51.676  1.00  0.00     0.123 A 
ENDBRANCH   7  11
ENDBRANCH   2   5
BRANCH   1  17
HETATM   17  C   UNL     1     -41.699  55.040 -52.640  1.00  0.00     0.225 C 
HETATM   18  C   UNL     1     -40.976  54.527 -51.390  1.00  0.00     0.083 C 
HETATM   19  C   UNL     1     -40.534  53.221 -51.923  1.00  0.00    -0.021 A 
HETATM   20  C   UNL     1     -40.605  53.246 -53.305  1.00  0.00     0.076 A 
HETATM   21  C   UNL     1     -40.063  52.110 -51.251  1.00  0.00     0.017 A 
HETATM   22  C   UNL     1     -40.213  52.169 -54.070  1.00  0.00     0.044 A 
HETATM   23  O   UNL     1     -41.097  54.429 -53.805  1.00  0.00    -0.336 OA
HETATM   24  C   UNL     1     -39.756  51.010 -53.415  1.00  0.00    -0.053 A 
HETATM   25  C   UNL     1     -39.668  50.985 -51.997  1.00  0.00    -0.055 A 
HETATM   26  C   UNL     1     -39.349  49.817 -54.238  1.00  0.00     0.049 C 
HETATM   27  C   UNL     1     -39.193  49.761 -51.261  1.00  0.00     0.049 C 
ENDBRANCH   1  17
TORSDOF 3
ENDMDL
MODEL 8
REMARK VINA RESULT:      -8.2      2.174      2.649
REMARK  3 active torsions:
REMARK  status: ('A' for Active; 'I' for Inactive)
REMARK    1  A    between atoms: C_9  and  C_10 
REMARK       I    between atoms: C_10  and  N_11 
REMARK    2  A    between atoms: N_11  and  C_12 
REMARK    3  A    between atoms: C_14  and  C_15 
ROOT
HETATM    1  C   UNL     1     -41.506  56.625 -54.838  1.00  0.00     0.252 C 
HETATM    2  N   UNL     1     -41.725  56.604 -56.207  1.00  0.00    -0.325 N 
HETATM    3  O   UNL     1     -42.005  57.411 -54.038  1.00  0.00    -0.270 OA
HETATM    4  H   UNL     1     -41.103  56.002 -56.739  1.00  0.00     0.169 HD
ENDROOT
BRANCH   2   5
HETATM    5  C   UNL     1     -42.654  57.377 -56.934  1.00  0.00     0.035 A 
HETATM    6  C   UNL     1     -42.298  58.202 -58.007  1.00  0.00     0.042 A 
HETATM    7  C   UNL     1     -43.251  58.984 -58.683  1.00  0.00    -0.021 A 
HETATM    8  C   UNL     1     -44.585  58.919 -58.262  1.00  0.00     0.012 A 
HETATM    9  C   UNL     1     -44.951  58.103 -57.189  1.00  0.00     0.003 A 
HETATM   10  C   UNL     1     -43.989  57.339 -56.526  1.00  0.00     0.029 A 
BRANCH   7  11
HETATM   11  C   UNL     1     -42.835  59.838 -59.790  1.00  0.00     0.010 A 
HETATM   12  C   UNL     1     -43.324  59.933 -61.117  1.00  0.00     0.152 A 
HETATM   13  N   UNL     1     -42.663  60.830 -61.854  1.00  0.00    -0.187 NA
HETATM   14  N   UNL     1     -41.745  61.314 -61.005  1.00  0.00    -0.289 N 
HETATM   15  H   UNL     1     -41.106  62.024 -61.346  1.00  0.00     0.188 HD
HETATM   16  C   UNL     1     -41.804  60.754 -59.761  1.00  0.00     0.123 A 
ENDBRANCH   7  11
ENDBRANCH   2   5
BRANCH   1  17
HETATM   17  C   UNL     1     -40.636  55.455 -54.367  1.00  0.00     0.225 C 
HETATM   18  C   UNL     1     -40.788  54.238 -55.285  1.00  0.00     0.083 C 
HETATM   19  C   UNL     1     -40.453  53.189 -54.298  1.00  0.00    -0.021 A 
HETATM   20  C   UNL     1     -40.564  53.711 -53.022  1.00  0.00     0.076 A 
HETATM   21  C   UNL     1     -40.121  51.863 -54.502  1.00  0.00     0.017 A 
HETATM   22  C   UNL     1     -40.347  52.939 -51.901  1.00  0.00     0.044 A 
HETATM   23  O   UNL     1     -40.903  55.044 -53.006  1.00  0.00    -0.336 OA
HETATM   24  C   UNL     1     -39.977  51.592 -52.075  1.00  0.00    -0.053 A 
HETATM   25  C   UNL     1     -39.876  51.048 -53.384  1.00  0.00    -0.055 A 
HETATM   26  C   UNL     1     -39.711  50.744 -50.860  1.00  0.00     0.049 C 
HETATM   27  C   UNL     1     -39.474  49.614 -53.608  1.00  0.00     0.049 C 
ENDBRANCH   1  17
TORSDOF 3
ENDMDL
MODEL 9
REMARK VINA RESULT:      -8.2     15.244     18.892
REMARK  3 active torsions:
REMARK  status: ('A' for Active; 'I' for Inactive)
REMARK    1  A    between atoms: C_9  and  C_10 
REMARK       I    between atoms: C_10  and  N_11 
REMARK    2  A    between atoms: N_11  and  C_12 
REMARK    3  A    between atoms: C_14  and  C_15 
ROOT
HETATM    1  C   UNL     1     -35.633  41.702 -52.950  1.00  0.00     0.252 C 
HETATM    2  N   UNL     1     -35.099  40.449 -52.689  1.00  0.00    -0.325 N 
HETATM    3  O   UNL     1     -35.360  42.742 -52.358  1.00  0.00    -0.270 OA
HETATM    4  H   UNL     1     -35.560  39.673 -53.154  1.00  0.00     0.169 HD
ENDROOT
BRANCH   2   5
HETATM    5  C   UNL     1     -34.049  40.139 -51.799  1.00  0.00     0.035 A 
HETATM    6  C   UNL     1     -34.245  39.502 -50.568  1.00  0.00     0.042 A 
HETATM    7  C   UNL     1     -33.175  39.243 -49.694  1.00  0.00    -0.021 A 
HETATM    8  C   UNL     1     -31.887  39.632 -50.084  1.00  0.00     0.012 A 
HETATM    9  C   UNL     1     -31.680  40.273 -51.308  1.00  0.00     0.003 A 
HETATM   10  C   UNL     1     -32.757  40.528 -52.159  1.00  0.00     0.029 A 
BRANCH   7  11
HETATM   11  C   UNL     1     -33.425  38.587 -48.416  1.00  0.00     0.010 A 
HETATM   12  C   UNL     1     -32.534  38.219 -47.377  1.00  0.00     0.152 A 
HETATM   13  N   UNL     1     -33.144  37.609 -46.357  1.00  0.00    -0.187 NA
HETATM   14  N   UNL     1     -34.430  37.579 -46.737  1.00  0.00    -0.289 N 
HETATM   15  H   UNL     1     -35.103  37.150 -46.112  1.00  0.00     0.188 HD
HETATM   16  C   UNL     1     -34.650  38.148 -47.958  1.00  0.00     0.123 A 
ENDBRANCH   7  11
ENDBRANCH   2   5
BRANCH   1  17
HETATM   17  C   UNL     1     -36.553  41.701 -54.175  1.00  0.00     0.225 C 
HETATM   18  C   UNL     1     -36.899  40.275 -54.617  1.00  0.00     0.083 C 
HETATM   19  C   UNL     1     -37.150  40.553 -56.047  1.00  0.00    -0.021 A 
HETATM   20  C   UNL     1     -36.595  41.776 -56.378  1.00  0.00     0.076 A 
HETATM   21  C   UNL     1     -37.778  39.772 -56.998  1.00  0.00     0.017 A 
HETATM   22  C   UNL     1     -36.644  42.270 -57.663  1.00  0.00     0.044 A 
HETATM   23  O   UNL     1     -36.010  42.417 -55.310  1.00  0.00    -0.336 OA
HETATM   24  C   UNL     1     -37.304  41.514 -58.649  1.00  0.00    -0.053 A 
HETATM   25  C   UNL     1     -37.863  40.250 -58.317  1.00  0.00    -0.055 A 
HETATM   26  C   UNL     1     -37.388  42.054 -60.052  1.00  0.00     0.049 C 
HETATM   27  C   UNL     1     -38.583  39.416 -59.343  1.00  0.00     0.049 C 
ENDBRANCH   1  17
TORSDOF 3
ENDMDL
MODEL 10
REMARK VINA RESULT:      -8.2      2.880      4.256
REMARK  3 active torsions:
REMARK  status: ('A' for Active; 'I' for Inactive)
REMARK    1  A    between atoms: C_9  and  C_10 
REMARK       I    between atoms: C_10  and  N_11 
REMARK    2  A    between atoms: N_11  and  C_12 
REMARK    3  A    between atoms: C_14  and  C_15 
ROOT
HETATM    1  C   UNL     1     -42.808  56.886 -55.914  1.00  0.00     0.252 C 
HETATM    2  N   UNL     1     -42.274  56.793 -57.190  1.00  0.00    -0.325 N 
HETATM    3  O   UNL     1     -43.438  57.837 -55.462  1.00  0.00    -0.270 OA
HETATM    4  H   UNL     1     -41.638  56.015 -57.341  1.00  0.00     0.169 HD
ENDROOT
BRANCH   2   5
HETATM    5  C   UNL     1     -42.459  57.694 -58.260  1.00  0.00     0.035 A 
HETATM    6  C   UNL     1     -41.844  58.949 -58.325  1.00  0.00     0.042 A 
HETATM    7  C   UNL     1     -42.083  59.832 -59.391  1.00  0.00    -0.021 A 
HETATM    8  C   UNL     1     -42.955  59.427 -60.409  1.00  0.00     0.012 A 
HETATM    9  C   UNL     1     -43.579  58.178 -60.353  1.00  0.00     0.003 A 
HETATM   10  C   UNL     1     -43.335  57.317 -59.281  1.00  0.00     0.029 A 
BRANCH   7  11
HETATM   11  C   UNL     1     -41.429  61.136 -59.414  1.00  0.00     0.010 A 
HETATM   12  C   UNL     1     -40.778  61.860 -58.383  1.00  0.00     0.152 A 
HETATM   13  N   UNL     1     -40.316  63.046 -58.790  1.00  0.00    -0.187 NA
HETATM   14  N   UNL     1     -40.671  63.091 -60.082  1.00  0.00    -0.289 N 
HETATM   15  H   UNL     1     -40.427  63.918 -60.617  1.00  0.00     0.188 HD
HETATM   16  C   UNL     1     -41.339  61.977 -60.504  1.00  0.00     0.123 A 
ENDBRANCH   7  11
ENDBRANCH   2   5
BRANCH   1  17
HETATM   17  C   UNL     1     -42.636  55.592 -55.112  1.00  0.00     0.225 C 
HETATM   18  C   UNL     1     -42.135  55.873 -53.692  1.00  0.00     0.083 C 
HETATM   19  C   UNL     1     -41.458  54.582 -53.449  1.00  0.00    -0.021 A 
HETATM   20  C   UNL     1     -41.246  53.943 -54.658  1.00  0.00     0.076 A 
HETATM   21  C   UNL     1     -41.020  54.028 -52.261  1.00  0.00     0.017 A 
HETATM   22  C   UNL     1     -40.594  52.732 -54.733  1.00  0.00     0.044 A 
HETATM   23  O   UNL     1     -41.747  54.636 -55.736  1.00  0.00    -0.336 OA
HETATM   24  C   UNL     1     -40.162  52.126 -53.539  1.00  0.00    -0.053 A 
HETATM   25  C   UNL     1     -40.365  52.785 -52.296  1.00  0.00    -0.055 A 
HETATM   26  C   UNL     1     -39.472  50.790 -53.604  1.00  0.00     0.049 C 
HETATM   27  C   UNL     1     -39.924  52.163 -50.997  1.00  0.00     0.049 C 
ENDBRANCH   1  17
TORSDOF 3
ENDMDL
