MODEL 1
REMARK VINA RESULT:      -9.2      0.000      0.000
REMARK  7 active torsions:
REMARK  status: ('A' for Active; 'I' for Inactive)
REMARK    1  A    between atoms: S_2  and  C_3 
REMARK    2  A    between atoms: C_3  and  C_4 
REMARK    3  A    between atoms: C_4  and  C_5 
REMARK    4  A    between atoms: C_5  and  N_6 
REMARK    5  A    between atoms: C_5  and  C_26 
REMARK       I    between atoms: N_6  and  C_7 
REMARK    6  A    between atoms: C_7  and  C_8 
REMARK    7  A    between atoms: C_8  and  N_9 
ROOT
HETATM    1  N   UNL     1     -44.237  56.931 -56.762  1.00  0.00    -0.348 N 
HETATM    2  C   UNL     1     -42.869  56.772 -56.688  1.00  0.00     0.236 C 
HETATM    3  O   UNL     1     -42.098  57.703 -56.937  1.00  0.00    -0.272 OA
HETATM    4  H   UNL     1     -44.784  56.118 -57.035  1.00  0.00     0.163 HD
ENDROOT
BRANCH   2   5
HETATM    5  C   UNL     1     -42.340  55.352 -56.505  1.00  0.00     0.239 C 
BRANCH   5   6
HETATM    6  N   UNL     1     -42.153  54.912 -55.139  1.00  0.00    -0.259 N 
HETATM    7  C   UNL     1     -43.155  54.468 -54.341  1.00  0.00     0.326 A 
HETATM    8  O   UNL     1     -44.350  54.542 -54.577  1.00  0.00    -0.247 OA
HETATM    9  N   UNL     1     -42.616  53.925 -53.205  1.00  0.00    -0.320 N 
HETATM   10  C   UNL     1     -41.167  53.965 -53.199  1.00  0.00     0.144 A 
HETATM   11  H   UNL     1     -43.187  53.444 -52.524  1.00  0.00     0.165 HD
HETATM   12  C   UNL     1     -40.595  52.552 -53.144  1.00  0.00    -0.014 A 
HETATM   13  C   UNL     1     -40.658  54.865 -52.063  1.00  0.00     0.047 C 
HETATM   14  C   UNL     1     -40.935  54.677 -54.556  1.00  0.00     0.261 A 
HETATM   15  C   UNL     1     -40.014  52.054 -51.957  1.00  0.00    -0.049 A 
HETATM   16  C   UNL     1     -40.664  51.698 -54.263  1.00  0.00     0.011 A 
HETATM   17  C   UNL     1     -39.489  50.751 -51.929  1.00  0.00     0.007 A 
HETATM   18  C   UNL     1     -39.868  52.904 -50.718  1.00  0.00     0.039 C 
HETATM   19  C   UNL     1     -39.551  49.933 -53.054  1.00  0.00     0.001 A 
HETATM   20  C   UNL     1     -40.141  50.405 -54.220  1.00  0.00     0.001 A 
HETATM   21  C   UNL     1     -40.753  54.145 -50.721  1.00  0.00     0.008 C 
HETATM   22  O   UNL     1     -39.847  54.951 -55.046  1.00  0.00    -0.270 OA
ENDBRANCH   5   6
ENDBRANCH   2   5
BRANCH   1  23
HETATM   23  C   UNL     1     -44.810  58.243 -57.062  1.00  0.00     0.155 C 
BRANCH  23  24
HETATM   24  C   UNL     1     -45.531  58.844 -55.845  1.00  0.00     0.043 C 
BRANCH  24  25
HETATM   25  C   UNL     1     -44.604  59.365 -54.747  1.00  0.00     0.076 C 
BRANCH  25  26
HETATM   26  S   UNL     1     -44.484  58.329 -53.247  1.00  0.00    -0.173 SA
HETATM   27  C   UNL     1     -42.706  57.981 -53.239  1.00  0.00     0.089 C 
ENDBRANCH  25  26
ENDBRANCH  24  25
ENDBRANCH  23  24
BRANCH  23  28
HETATM   28  C   UNL     1     -45.751  58.115 -58.234  1.00  0.00     0.128 A 
HETATM   29  N   UNL     1     -46.386  59.080 -58.873  1.00  0.00    -0.231 NA
HETATM   30  C   UNL     1     -47.010  58.472 -59.936  1.00  0.00     0.085 A 
HETATM   31  C   UNL     1     -46.786  57.099 -59.926  1.00  0.00     0.062 A 
HETATM   32  C   UNL     1     -47.780  59.032 -60.965  1.00  0.00     0.034 A 
HETATM   33  N   UNL     1     -45.984  56.898 -58.834  1.00  0.00    -0.341 N 
HETATM   34  C   UNL     1     -47.308  56.230 -60.887  1.00  0.00     0.032 A 
HETATM   35  H   UNL     1     -45.595  56.017 -58.516  1.00  0.00     0.167 HD
HETATM   36  C   UNL     1     -48.076  56.807 -61.906  1.00  0.00     0.002 A 
HETATM   37  C   UNL     1     -48.306  58.185 -61.950  1.00  0.00     0.002 A 
ENDBRANCH  23  28
ENDBRANCH   1  23
TORSDOF 7
ENDMDL
MODEL 2
REMARK VINA RESULT:      -8.7      3.521      4.839
REMARK  7 active torsions:
REMARK  status: ('A' for Active; 'I' for Inactive)
REMARK    1  A    between atoms: S_2  and  C_3 
REMARK    2  A    between atoms: C_3  and  C_4 
REMARK    3  A    between atoms: C_4  and  C_5 
REMARK    4  A    between atoms: C_5  and  N_6 
REMARK    5  A    between atoms: C_5  and  C_26 
REMARK       I    between atoms: N_6  and  C_7 
REMARK    6  A    between atoms: C_7  and  C_8 
REMARK    7  A    between atoms: C_8  and  N_9 
ROOT
HETATM    1  N   UNL     1     -42.699  58.596 -55.398  1.00  0.00    -0.348 N 
HETATM    2  C   UNL     1     -43.705  58.550 -54.456  1.00  0.00     0.236 C 
HETATM    3  O   UNL     1     -44.887  58.416 -54.782  1.00  0.00    -0.272 OA
HETATM    4  H   UNL     1     -41.884  59.164 -55.179  1.00  0.00     0.163 HD
ENDROOT
BRANCH   2   5
HETATM    5  C   UNL     1     -43.329  58.893 -53.016  1.00  0.00     0.239 C 
BRANCH   5   6
HETATM    6  N   UNL     1     -42.870  57.791 -52.197  1.00  0.00    -0.259 N 
HETATM    7  C   UNL     1     -43.691  56.989 -51.475  1.00  0.00     0.326 A 
HETATM    8  O   UNL     1     -44.877  57.178 -51.262  1.00  0.00    -0.247 OA
HETATM    9  N   UNL     1     -42.973  55.923 -51.002  1.00  0.00    -0.320 N 
HETATM   10  C   UNL     1     -41.585  55.954 -51.419  1.00  0.00     0.144 A 
HETATM   11  H   UNL     1     -43.419  55.152 -50.525  1.00  0.00     0.165 HD
HETATM   12  C   UNL     1     -41.256  54.731 -52.269  1.00  0.00    -0.014 A 
HETATM   13  C   UNL     1     -40.660  56.108 -50.202  1.00  0.00     0.047 C 
HETATM   14  C   UNL     1     -41.598  57.281 -52.220  1.00  0.00     0.261 A 
HETATM   15  C   UNL     1     -40.478  53.675 -51.744  1.00  0.00    -0.049 A 
HETATM   16  C   UNL     1     -41.750  54.608 -53.583  1.00  0.00     0.011 A 
HETATM   17  C   UNL     1     -40.183  52.559 -52.546  1.00  0.00     0.007 A 
HETATM   18  C   UNL     1     -39.880  53.731 -50.359  1.00  0.00     0.039 C 
HETATM   19  C   UNL     1     -40.666  52.469 -53.849  1.00  0.00     0.001 A 
HETATM   20  C   UNL     1     -41.452  53.491 -54.367  1.00  0.00     0.001 A 
HETATM   21  C   UNL     1     -40.521  54.781 -49.460  1.00  0.00     0.008 C 
HETATM   22  O   UNL     1     -40.644  57.776 -52.806  1.00  0.00    -0.270 OA
ENDBRANCH   5   6
ENDBRANCH   2   5
BRANCH   1  23
HETATM   23  C   UNL     1     -43.009  58.403 -56.815  1.00  0.00     0.155 C 
BRANCH  23  24
HETATM   24  C   UNL     1     -42.515  57.041 -57.328  1.00  0.00     0.043 C 
BRANCH  24  25
HETATM   25  C   UNL     1     -43.595  56.168 -57.965  1.00  0.00     0.076 C 
BRANCH  25  26
HETATM   26  S   UNL     1     -43.442  55.896 -59.765  1.00  0.00    -0.173 SA
HETATM   27  C   UNL     1     -44.517  54.451 -59.964  1.00  0.00     0.089 C 
ENDBRANCH  25  26
ENDBRANCH  24  25
ENDBRANCH  23  24
BRANCH  23  28
HETATM   28  C   UNL     1     -42.400  59.529 -57.611  1.00  0.00     0.128 A 
HETATM   29  N   UNL     1     -41.558  60.456 -57.193  1.00  0.00    -0.231 NA
HETATM   30  C   UNL     1     -41.201  61.166 -58.315  1.00  0.00     0.085 A 
HETATM   31  C   UNL     1     -41.869  60.690 -59.438  1.00  0.00     0.062 A 
HETATM   32  C   UNL     1     -40.297  62.228 -58.454  1.00  0.00     0.034 A 
HETATM   33  N   UNL     1     -42.625  59.652 -58.964  1.00  0.00    -0.341 N 
HETATM   34  C   UNL     1     -41.703  61.232 -60.715  1.00  0.00     0.032 A 
HETATM   35  H   UNL     1     -43.236  59.046 -59.501  1.00  0.00     0.167 HD
HETATM   36  C   UNL     1     -40.797  62.293 -60.835  1.00  0.00     0.002 A 
HETATM   37  C   UNL     1     -40.101  62.782 -59.726  1.00  0.00     0.002 A 
ENDBRANCH  23  28
ENDBRANCH   1  23
TORSDOF 7
ENDMDL
MODEL 3
REMARK VINA RESULT:      -8.6      2.791      3.792
REMARK  7 active torsions:
REMARK  status: ('A' for Active; 'I' for Inactive)
REMARK    1  A    between atoms: S_2  and  C_3 
REMARK    2  A    between atoms: C_3  and  C_4 
REMARK    3  A    between atoms: C_4  and  C_5 
REMARK    4  A    between atoms: C_5  and  N_6 
REMARK    5  A    between atoms: C_5  and  C_26 
REMARK       I    between atoms: N_6  and  C_7 
REMARK    6  A    between atoms: C_7  and  C_8 
REMARK    7  A    between atoms: C_8  and  N_9 
ROOT
HETATM    1  N   UNL     1     -43.022  59.169 -55.346  1.00  0.00    -0.348 N 
HETATM    2  C   UNL     1     -42.219  59.577 -54.302  1.00  0.00     0.236 C 
HETATM    3  O   UNL     1     -41.038  59.885 -54.480  1.00  0.00    -0.272 OA
HETATM    4  H   UNL     1     -43.755  58.497 -55.133  1.00  0.00     0.163 HD
ENDROOT
BRANCH   2   5
HETATM    5  C   UNL     1     -42.777  59.420 -52.889  1.00  0.00     0.239 C 
BRANCH   5   6
HETATM    6  N   UNL     1     -42.720  58.088 -52.326  1.00  0.00    -0.259 N 
HETATM    7  C   UNL     1     -43.783  57.250 -52.249  1.00  0.00     0.326 A 
HETATM    8  O   UNL     1     -44.948  57.543 -52.463  1.00  0.00    -0.247 OA
HETATM    9  N   UNL     1     -43.347  56.006 -51.878  1.00  0.00    -0.320 N 
HETATM   10  C   UNL     1     -41.909  55.947 -51.700  1.00  0.00     0.144 A 
HETATM   11  H   UNL     1     -43.967  55.208 -51.862  1.00  0.00     0.165 HD
HETATM   12  C   UNL     1     -41.291  54.956 -52.681  1.00  0.00    -0.014 A 
HETATM   13  C   UNL     1     -41.560  55.642 -50.235  1.00  0.00     0.047 C 
HETATM   14  C   UNL     1     -41.562  57.426 -52.009  1.00  0.00     0.261 A 
HETATM   15  C   UNL     1     -40.820  53.700 -52.238  1.00  0.00    -0.049 A 
HETATM   16  C   UNL     1     -41.206  55.255 -54.056  1.00  0.00     0.011 A 
HETATM   17  C   UNL     1     -40.250  52.804 -53.159  1.00  0.00     0.007 A 
HETATM   18  C   UNL     1     -40.840  53.304 -50.782  1.00  0.00     0.039 C 
HETATM   19  C   UNL     1     -40.159  53.129 -54.509  1.00  0.00     0.001 A 
HETATM   20  C   UNL     1     -40.641  54.353 -54.959  1.00  0.00     0.001 A 
HETATM   21  C   UNL     1     -41.768  54.161 -49.929  1.00  0.00     0.008 C 
HETATM   22  O   UNL     1     -40.440  57.915 -52.008  1.00  0.00    -0.270 OA
ENDBRANCH   5   6
ENDBRANCH   2   5
BRANCH   1  23
HETATM   23  C   UNL     1     -42.507  59.173 -56.715  1.00  0.00     0.155 C 
BRANCH  23  24
HETATM   24  C   UNL     1     -42.560  60.575 -57.343  1.00  0.00     0.043 C 
BRANCH  24  25
HETATM   25  C   UNL     1     -41.370  60.920 -58.237  1.00  0.00     0.076 C 
BRANCH  25  26
HETATM   26  S   UNL     1     -41.768  61.326 -59.974  1.00  0.00    -0.173 SA
HETATM   27  C   UNL     1     -42.020  59.661 -60.643  1.00  0.00     0.089 C 
ENDBRANCH  25  26
ENDBRANCH  24  25
ENDBRANCH  23  24
BRANCH  23  28
HETATM   28  C   UNL     1     -43.291  58.184 -57.541  1.00  0.00     0.128 A 
HETATM   29  N   UNL     1     -44.540  58.286 -57.957  1.00  0.00    -0.231 NA
HETATM   30  C   UNL     1     -44.747  57.200 -58.774  1.00  0.00     0.085 A 
HETATM   31  C   UNL     1     -43.615  56.395 -58.830  1.00  0.00     0.062 A 
HETATM   32  C   UNL     1     -45.880  56.840 -59.519  1.00  0.00     0.034 A 
HETATM   33  N   UNL     1     -42.705  57.042 -58.036  1.00  0.00    -0.341 N 
HETATM   34  C   UNL     1     -43.546  55.219 -59.580  1.00  0.00     0.032 A 
HETATM   35  H   UNL     1     -41.748  56.760 -57.850  1.00  0.00     0.167 HD
HETATM   36  C   UNL     1     -44.687  54.875 -60.316  1.00  0.00     0.002 A 
HETATM   37  C   UNL     1     -45.834  55.673 -60.292  1.00  0.00     0.002 A 
ENDBRANCH  23  28
ENDBRANCH   1  23
TORSDOF 7
ENDMDL
MODEL 4
REMARK VINA RESULT:      -8.1      3.377      5.469
REMARK  7 active torsions:
REMARK  status: ('A' for Active; 'I' for Inactive)
REMARK    1  A    between atoms: S_2  and  C_3 
REMARK    2  A    between atoms: C_3  and  C_4 
REMARK    3  A    between atoms: C_4  and  C_5 
REMARK    4  A    between atoms: C_5  and  N_6 
REMARK    5  A    between atoms: C_5  and  C_26 
REMARK       I    between atoms: N_6  and  C_7 
REMARK    6  A    between atoms: C_7  and  C_8 
REMARK    7  A    between atoms: C_8  and  N_9 
ROOT
HETATM    1  N   UNL     1     -42.436  57.964 -55.473  1.00  0.00    -0.348 N 
HETATM    2  C   UNL     1     -42.977  57.033 -56.335  1.00  0.00     0.236 C 
HETATM    3  O   UNL     1     -43.979  57.285 -57.009  1.00  0.00    -0.272 OA
HETATM    4  H   UNL     1     -41.980  57.610 -54.635  1.00  0.00     0.163 HD
ENDROOT
BRANCH   2   5
HETATM    5  C   UNL     1     -42.428  55.610 -56.261  1.00  0.00     0.239 C 
BRANCH   5   6
HETATM    6  N   UNL     1     -42.225  55.074 -54.931  1.00  0.00    -0.259 N 
HETATM    7  C   UNL     1     -43.214  54.555 -54.163  1.00  0.00     0.326 A 
HETATM    8  O   UNL     1     -44.412  54.626 -54.387  1.00  0.00    -0.247 OA
HETATM    9  N   UNL     1     -42.659  53.940 -53.073  1.00  0.00    -0.320 N 
HETATM   10  C   UNL     1     -41.210  54.005 -53.071  1.00  0.00     0.144 A 
HETATM   11  H   UNL     1     -43.217  53.400 -52.426  1.00  0.00     0.165 HD
HETATM   12  C   UNL     1     -40.614  52.602 -53.123  1.00  0.00    -0.014 A 
HETATM   13  C   UNL     1     -40.710  54.828 -51.875  1.00  0.00     0.047 C 
HETATM   14  C   UNL     1     -40.999  54.818 -54.374  1.00  0.00     0.261 A 
HETATM   15  C   UNL     1     -40.017  52.028 -51.979  1.00  0.00    -0.049 A 
HETATM   16  C   UNL     1     -40.676  51.832 -54.302  1.00  0.00     0.011 A 
HETATM   17  C   UNL     1     -39.470  50.736 -52.050  1.00  0.00     0.007 A 
HETATM   18  C   UNL     1     -39.877  52.788 -50.681  1.00  0.00     0.039 C 
HETATM   19  C   UNL     1     -39.525  50.002 -53.232  1.00  0.00     0.001 A 
HETATM   20  C   UNL     1     -40.131  50.548 -54.357  1.00  0.00     0.001 A 
HETATM   21  C   UNL     1     -40.783  54.010 -50.589  1.00  0.00     0.008 C 
HETATM   22  O   UNL     1     -39.920  55.147 -54.848  1.00  0.00    -0.270 OA
ENDBRANCH   5   6
ENDBRANCH   2   5
BRANCH   1  23
HETATM   23  C   UNL     1     -42.997  59.313 -55.400  1.00  0.00     0.155 C 
BRANCH  23  24
HETATM   24  C   UNL     1     -42.074  60.352 -56.056  1.00  0.00     0.043 C 
BRANCH  24  25
HETATM   25  C   UNL     1     -41.827  60.135 -57.549  1.00  0.00     0.076 C 
BRANCH  25  26
HETATM   26  S   UNL     1     -41.199  61.582 -58.472  1.00  0.00    -0.173 SA
HETATM   27  C   UNL     1     -42.429  61.673 -59.800  1.00  0.00     0.089 C 
ENDBRANCH  25  26
ENDBRANCH  24  25
ENDBRANCH  23  24
BRANCH  23  28
HETATM   28  C   UNL     1     -43.258  59.661 -53.957  1.00  0.00     0.128 A 
HETATM   29  N   UNL     1     -42.464  60.306 -53.121  1.00  0.00    -0.231 NA
HETATM   30  C   UNL     1     -43.201  60.487 -51.975  1.00  0.00     0.085 A 
HETATM   31  C   UNL     1     -44.459  59.907 -52.095  1.00  0.00     0.062 A 
HETATM   32  C   UNL     1     -42.864  61.152 -50.788  1.00  0.00     0.034 A 
HETATM   33  N   UNL     1     -44.470  59.388 -53.363  1.00  0.00    -0.341 N 
HETATM   34  C   UNL     1     -45.416  59.932 -51.078  1.00  0.00     0.032 A 
HETATM   35  H   UNL     1     -45.236  58.903 -53.818  1.00  0.00     0.167 HD
HETATM   36  C   UNL     1     -45.061  60.600 -49.898  1.00  0.00     0.002 A 
HETATM   37  C   UNL     1     -43.810  61.205 -49.755  1.00  0.00     0.002 A 
ENDBRANCH  23  28
ENDBRANCH   1  23
TORSDOF 7
ENDMDL
MODEL 5
REMARK VINA RESULT:      -8.1      3.915      9.514
REMARK  7 active torsions:
REMARK  status: ('A' for Active; 'I' for Inactive)
REMARK    1  A    between atoms: S_2  and  C_3 
REMARK    2  A    between atoms: C_3  and  C_4 
REMARK    3  A    between atoms: C_4  and  C_5 
REMARK    4  A    between atoms: C_5  and  N_6 
REMARK    5  A    between atoms: C_5  and  C_26 
REMARK       I    between atoms: N_6  and  C_7 
REMARK    6  A    between atoms: C_7  and  C_8 
REMARK    7  A    between atoms: C_8  and  N_9 
ROOT
HETATM    1  N   UNL     1     -42.096  55.933 -52.811  1.00  0.00    -0.348 N 
HETATM    2  C   UNL     1     -41.808  57.264 -52.594  1.00  0.00     0.236 C 
HETATM    3  O   UNL     1     -41.022  57.880 -53.319  1.00  0.00    -0.272 OA
HETATM    4  H   UNL     1     -42.311  55.366 -51.994  1.00  0.00     0.163 HD
ENDROOT
BRANCH   2   5
HETATM    5  C   UNL     1     -42.320  57.887 -51.296  1.00  0.00     0.239 C 
BRANCH   5   6
HETATM    6  N   UNL     1     -43.587  58.581 -51.380  1.00  0.00    -0.259 N 
HETATM    7  C   UNL     1     -44.776  58.033 -51.026  1.00  0.00     0.326 A 
HETATM    8  O   UNL     1     -44.980  56.857 -50.771  1.00  0.00    -0.247 OA
HETATM    9  N   UNL     1     -45.734  59.012 -51.011  1.00  0.00    -0.320 N 
HETATM   10  C   UNL     1     -45.204  60.319 -51.349  1.00  0.00     0.144 A 
HETATM   11  H   UNL     1     -46.670  58.834 -50.674  1.00  0.00     0.165 HD
HETATM   12  C   UNL     1     -45.385  61.285 -50.184  1.00  0.00    -0.014 A 
HETATM   13  C   UNL     1     -45.825  60.829 -52.658  1.00  0.00     0.047 C 
HETATM   14  C   UNL     1     -43.727  59.925 -51.606  1.00  0.00     0.261 A 
HETATM   15  C   UNL     1     -46.363  62.303 -50.235  1.00  0.00    -0.049 A 
HETATM   16  C   UNL     1     -44.607  61.164 -49.014  1.00  0.00     0.011 A 
HETATM   17  C   UNL     1     -46.510  63.186 -49.152  1.00  0.00     0.007 A 
HETATM   18  C   UNL     1     -47.221  62.530 -51.457  1.00  0.00     0.039 C 
HETATM   19  C   UNL     1     -45.716  63.059 -48.015  1.00  0.00     0.001 A 
HETATM   20  C   UNL     1     -44.767  62.046 -47.944  1.00  0.00     0.001 A 
HETATM   21  C   UNL     1     -47.241  61.346 -52.416  1.00  0.00     0.008 C 
HETATM   22  O   UNL     1     -42.825  60.690 -51.923  1.00  0.00    -0.270 OA
ENDBRANCH   5   6
ENDBRANCH   2   5
BRANCH   1  23
HETATM   23  C   UNL     1     -41.532  55.238 -53.968  1.00  0.00     0.155 C 
BRANCH  23  24
HETATM   24  C   UNL     1     -42.586  55.000 -55.061  1.00  0.00     0.043 C 
BRANCH  24  25
HETATM   25  C   UNL     1     -42.358  55.786 -56.351  1.00  0.00     0.076 C 
BRANCH  25  26
HETATM   26  S   UNL     1     -42.949  57.515 -56.347  1.00  0.00    -0.173 SA
HETATM   27  C   UNL     1     -44.349  57.373 -55.205  1.00  0.00     0.089 C 
ENDBRANCH  25  26
ENDBRANCH  24  25
ENDBRANCH  23  24
BRANCH  23  28
HETATM   28  C   UNL     1     -40.926  53.935 -53.514  1.00  0.00     0.128 A 
HETATM   29  N   UNL     1     -40.543  53.599 -52.295  1.00  0.00    -0.231 NA
HETATM   30  C   UNL     1     -40.182  52.275 -52.373  1.00  0.00     0.085 A 
HETATM   31  C   UNL     1     -40.308  51.799 -53.673  1.00  0.00     0.062 A 
HETATM   32  C   UNL     1     -39.746  51.403 -51.364  1.00  0.00     0.034 A 
HETATM   33  N   UNL     1     -40.781  52.873 -54.379  1.00  0.00    -0.341 N 
HETATM   34  C   UNL     1     -40.001  50.488 -54.043  1.00  0.00     0.032 A 
HETATM   35  H   UNL     1     -41.014  52.901 -55.365  1.00  0.00     0.167 HD
HETATM   36  C   UNL     1     -39.565  49.632 -53.023  1.00  0.00     0.002 A 
HETATM   37  C   UNL     1     -39.444  50.078 -51.704  1.00  0.00     0.002 A 
ENDBRANCH  23  28
ENDBRANCH   1  23
TORSDOF 7
ENDMDL
MODEL 6
REMARK VINA RESULT:      -8.1      2.866      8.380
REMARK  7 active torsions:
REMARK  status: ('A' for Active; 'I' for Inactive)
REMARK    1  A    between atoms: S_2  and  C_3 
REMARK    2  A    between atoms: C_3  and  C_4 
REMARK    3  A    between atoms: C_4  and  C_5 
REMARK    4  A    between atoms: C_5  and  N_6 
REMARK    5  A    between atoms: C_5  and  C_26 
REMARK       I    between atoms: N_6  and  C_7 
REMARK    6  A    between atoms: C_7  and  C_8 
REMARK    7  A    between atoms: C_8  and  N_9 
ROOT
HETATM    1  N   UNL     1     -42.450  57.670 -52.391  1.00  0.00    -0.348 N 
HETATM    2  C   UNL     1     -43.754  57.978 -52.714  1.00  0.00     0.236 C 
HETATM    3  O   UNL     1     -44.705  57.429 -52.151  1.00  0.00    -0.272 OA
HETATM    4  H   UNL     1     -41.759  57.734 -53.135  1.00  0.00     0.163 HD
ENDROOT
BRANCH   2   5
HETATM    5  C   UNL     1     -43.981  58.854 -53.945  1.00  0.00     0.239 C 
BRANCH   5   6
HETATM    6  N   UNL     1     -43.989  58.170 -55.220  1.00  0.00    -0.259 N 
HETATM    7  C   UNL     1     -45.103  57.976 -55.970  1.00  0.00     0.326 A 
HETATM    8  O   UNL     1     -46.253  58.173 -55.615  1.00  0.00    -0.247 OA
HETATM    9  N   UNL     1     -44.736  57.505 -57.202  1.00  0.00    -0.320 N 
HETATM   10  C   UNL     1     -43.299  57.375 -57.348  1.00  0.00     0.144 A 
HETATM   11  H   UNL     1     -45.408  57.391 -57.949  1.00  0.00     0.165 HD
HETATM   12  C   UNL     1     -42.793  58.280 -58.466  1.00  0.00    -0.014 A 
HETATM   13  C   UNL     1     -42.909  55.902 -57.541  1.00  0.00     0.047 C 
HETATM   14  C   UNL     1     -42.867  57.834 -55.932  1.00  0.00     0.261 A 
HETATM   15  C   UNL     1     -42.390  57.738 -59.707  1.00  0.00    -0.049 A 
HETATM   16  C   UNL     1     -42.748  59.679 -58.301  1.00  0.00     0.011 A 
HETATM   17  C   UNL     1     -41.922  58.590 -60.722  1.00  0.00     0.007 A 
HETATM   18  C   UNL     1     -42.374  56.251 -59.965  1.00  0.00     0.039 C 
HETATM   19  C   UNL     1     -41.868  59.967 -60.529  1.00  0.00     0.001 A 
HETATM   20  C   UNL     1     -42.284  60.513 -59.320  1.00  0.00     0.001 A 
HETATM   21  C   UNL     1     -43.204  55.449 -58.969  1.00  0.00     0.008 C 
HETATM   22  O   UNL     1     -41.716  57.920 -55.526  1.00  0.00    -0.270 OA
ENDBRANCH   5   6
ENDBRANCH   2   5
BRANCH   1  23
HETATM   23  C   UNL     1     -42.163  56.735 -51.303  1.00  0.00     0.155 C 
BRANCH  23  24
HETATM   24  C   UNL     1     -41.292  57.378 -50.211  1.00  0.00     0.043 C 
BRANCH  24  25
HETATM   25  C   UNL     1     -40.946  58.847 -50.452  1.00  0.00     0.076 C 
BRANCH  25  26
HETATM   26  S   UNL     1     -39.362  59.163 -51.306  1.00  0.00    -0.173 SA
HETATM   27  C   UNL     1     -38.424  59.940 -49.964  1.00  0.00     0.089 C 
ENDBRANCH  25  26
ENDBRANCH  24  25
ENDBRANCH  23  24
BRANCH  23  28
HETATM   28  C   UNL     1     -41.494  55.508 -51.869  1.00  0.00     0.128 A 
HETATM   29  N   UNL     1     -40.857  54.555 -51.214  1.00  0.00    -0.231 NA
HETATM   30  C   UNL     1     -40.546  53.603 -52.154  1.00  0.00     0.085 A 
HETATM   31  C   UNL     1     -40.966  53.997 -53.420  1.00  0.00     0.062 A 
HETATM   32  C   UNL     1     -39.913  52.361 -51.998  1.00  0.00     0.034 A 
HETATM   33  N   UNL     1     -41.564  55.211 -53.212  1.00  0.00    -0.341 N 
HETATM   34  C   UNL     1     -40.774  53.223 -54.567  1.00  0.00     0.032 A 
HETATM   35  H   UNL     1     -42.011  55.799 -53.907  1.00  0.00     0.167 HD
HETATM   36  C   UNL     1     -40.138  51.987 -54.393  1.00  0.00     0.002 A 
HETATM   37  C   UNL     1     -39.719  51.559 -53.130  1.00  0.00     0.002 A 
ENDBRANCH  23  28
ENDBRANCH   1  23
TORSDOF 7
ENDMDL
MODEL 7
REMARK VINA RESULT:      -8.0      3.581      5.147
REMARK  7 active torsions:
REMARK  status: ('A' for Active; 'I' for Inactive)
REMARK    1  A    between atoms: S_2  and  C_3 
REMARK    2  A    between atoms: C_3  and  C_4 
REMARK    3  A    between atoms: C_4  and  C_5 
REMARK    4  A    between atoms: C_5  and  N_6 
REMARK    5  A    between atoms: C_5  and  C_26 
REMARK       I    between atoms: N_6  and  C_7 
REMARK    6  A    between atoms: C_7  and  C_8 
REMARK    7  A    between atoms: C_8  and  N_9 
ROOT
HETATM    1  N   UNL     1     -43.667  59.224 -56.196  1.00  0.00    -0.348 N 
HETATM    2  C   UNL     1     -44.378  59.269 -55.016  1.00  0.00     0.236 C 
HETATM    3  O   UNL     1     -45.465  59.848 -54.940  1.00  0.00    -0.272 OA
HETATM    4  H   UNL     1     -42.652  59.201 -56.126  1.00  0.00     0.163 HD
ENDROOT
BRANCH   2   5
HETATM    5  C   UNL     1     -43.673  58.772 -53.756  1.00  0.00     0.239 C 
BRANCH   5   6
HETATM    6  N   UNL     1     -42.659  57.758 -53.951  1.00  0.00    -0.259 N 
HETATM    7  C   UNL     1     -41.326  58.004 -53.923  1.00  0.00     0.326 A 
HETATM    8  O   UNL     1     -40.796  59.103 -53.916  1.00  0.00    -0.247 OA
HETATM    9  N   UNL     1     -40.650  56.812 -53.917  1.00  0.00    -0.320 N 
HETATM   10  C   UNL     1     -41.538  55.666 -53.921  1.00  0.00     0.144 A 
HETATM   11  H   UNL     1     -39.648  56.770 -53.794  1.00  0.00     0.165 HD
HETATM   12  C   UNL     1     -41.338  54.832 -52.660  1.00  0.00    -0.014 A 
HETATM   13  C   UNL     1     -41.365  54.855 -55.214  1.00  0.00     0.047 C 
HETATM   14  C   UNL     1     -42.898  56.409 -53.964  1.00  0.00     0.261 A 
HETATM   15  C   UNL     1     -40.668  53.590 -52.715  1.00  0.00    -0.049 A 
HETATM   16  C   UNL     1     -41.783  55.296 -51.406  1.00  0.00     0.011 A 
HETATM   17  C   UNL     1     -40.498  52.835 -51.542  1.00  0.00     0.007 A 
HETATM   18  C   UNL     1     -40.183  52.997 -54.017  1.00  0.00     0.039 C 
HETATM   19  C   UNL     1     -40.964  53.305 -50.317  1.00  0.00     0.001 A 
HETATM   20  C   UNL     1     -41.603  54.537 -50.248  1.00  0.00     0.001 A 
HETATM   21  C   UNL     1     -40.096  54.009 -55.153  1.00  0.00     0.008 C 
HETATM   22  O   UNL     1     -44.004  55.883 -53.972  1.00  0.00    -0.270 OA
ENDBRANCH   5   6
ENDBRANCH   2   5
BRANCH   1  23
HETATM   23  C   UNL     1     -44.231  59.799 -57.418  1.00  0.00     0.155 C 
BRANCH  23  24
HETATM   24  C   UNL     1     -44.766  58.713 -58.366  1.00  0.00     0.043 C 
BRANCH  24  25
HETATM   25  C   UNL     1     -44.009  57.387 -58.311  1.00  0.00     0.076 C 
BRANCH  25  26
HETATM   26  S   UNL     1     -43.438  56.728 -59.917  1.00  0.00    -0.173 SA
HETATM   27  C   UNL     1     -41.855  57.595 -60.075  1.00  0.00     0.089 C 
ENDBRANCH  25  26
ENDBRANCH  24  25
ENDBRANCH  23  24
BRANCH  23  28
HETATM   28  C   UNL     1     -43.181  60.638 -58.100  1.00  0.00     0.128 A 
HETATM   29  N   UNL     1     -42.135  61.230 -57.554  1.00  0.00    -0.231 NA
HETATM   30  C   UNL     1     -41.419  61.757 -58.602  1.00  0.00     0.085 A 
HETATM   31  C   UNL     1     -42.059  61.518 -59.813  1.00  0.00     0.062 A 
HETATM   32  C   UNL     1     -40.198  62.447 -58.597  1.00  0.00     0.034 A 
HETATM   33  N   UNL     1     -43.176  60.806 -59.466  1.00  0.00    -0.341 N 
HETATM   34  C   UNL     1     -41.557  61.948 -61.043  1.00  0.00     0.032 A 
HETATM   35  H   UNL     1     -43.882  60.434 -60.093  1.00  0.00     0.167 HD
HETATM   36  C   UNL     1     -40.338  62.637 -61.019  1.00  0.00     0.002 A 
HETATM   37  C   UNL     1     -39.665  62.879 -59.819  1.00  0.00     0.002 A 
ENDBRANCH  23  28
ENDBRANCH   1  23
TORSDOF 7
ENDMDL
MODEL 8
REMARK VINA RESULT:      -8.0      2.950      4.092
REMARK  7 active torsions:
REMARK  status: ('A' for Active; 'I' for Inactive)
REMARK    1  A    between atoms: S_2  and  C_3 
REMARK    2  A    between atoms: C_3  and  C_4 
REMARK    3  A    between atoms: C_4  and  C_5 
REMARK    4  A    between atoms: C_5  and  N_6 
REMARK    5  A    between atoms: C_5  and  C_26 
REMARK       I    between atoms: N_6  and  C_7 
REMARK    6  A    between atoms: C_7  and  C_8 
REMARK    7  A    between atoms: C_8  and  N_9 
ROOT
HETATM    1  N   UNL     1     -43.492  57.308 -57.797  1.00  0.00    -0.348 N 
HETATM    2  C   UNL     1     -43.215  56.895 -56.511  1.00  0.00     0.236 C 
HETATM    3  O   UNL     1     -43.513  57.587 -55.534  1.00  0.00    -0.272 OA
HETATM    4  H   UNL     1     -42.849  57.012 -58.528  1.00  0.00     0.163 HD
ENDROOT
BRANCH   2   5
HETATM    5  C   UNL     1     -42.330  55.661 -56.348  1.00  0.00     0.239 C 
BRANCH   5   6
HETATM    6  N   UNL     1     -42.191  55.150 -55.002  1.00  0.00    -0.259 N 
HETATM    7  C   UNL     1     -43.208  54.612 -54.285  1.00  0.00     0.326 A 
HETATM    8  O   UNL     1     -44.392  54.644 -54.579  1.00  0.00    -0.247 OA
HETATM    9  N   UNL     1     -42.701  54.028 -53.155  1.00  0.00    -0.320 N 
HETATM   10  C   UNL     1     -41.258  54.136 -53.069  1.00  0.00     0.144 A 
HETATM   11  H   UNL     1     -43.281  53.481 -52.534  1.00  0.00     0.165 HD
HETATM   12  C   UNL     1     -40.619  52.751 -53.064  1.00  0.00    -0.014 A 
HETATM   13  C   UNL     1     -40.853  54.990 -51.858  1.00  0.00     0.047 C 
HETATM   14  C   UNL     1     -40.993  54.938 -54.369  1.00  0.00     0.261 A 
HETATM   15  C   UNL     1     -40.075  52.211 -51.878  1.00  0.00    -0.049 A 
HETATM   16  C   UNL     1     -40.588  51.963 -54.233  1.00  0.00     0.011 A 
HETATM   17  C   UNL     1     -39.487  50.934 -51.898  1.00  0.00     0.007 A 
HETATM   18  C   UNL     1     -40.034  52.991 -50.587  1.00  0.00     0.039 C 
HETATM   19  C   UNL     1     -39.451  50.183 -53.069  1.00  0.00     0.001 A 
HETATM   20  C   UNL     1     -40.005  50.695 -54.236  1.00  0.00     0.001 A 
HETATM   21  C   UNL     1     -40.979  54.187 -50.566  1.00  0.00     0.008 C 
HETATM   22  O   UNL     1     -39.898  55.292 -54.784  1.00  0.00    -0.270 OA
ENDBRANCH   5   6
ENDBRANCH   2   5
BRANCH   1  23
HETATM   23  C   UNL     1     -44.226  58.552 -58.028  1.00  0.00     0.155 C 
BRANCH  23  24
HETATM   24  C   UNL     1     -45.349  58.369 -59.062  1.00  0.00     0.043 C 
BRANCH  24  25
HETATM   25  C   UNL     1     -46.738  58.152 -58.464  1.00  0.00     0.076 C 
BRANCH  25  26
HETATM   26  S   UNL     1     -47.705  59.664 -58.123  1.00  0.00    -0.173 SA
HETATM   27  C   UNL     1     -46.934  60.810 -59.296  1.00  0.00     0.089 C 
ENDBRANCH  25  26
ENDBRANCH  24  25
ENDBRANCH  23  24
BRANCH  23  28
HETATM   28  C   UNL     1     -43.259  59.622 -58.468  1.00  0.00     0.128 A 
HETATM   29  N   UNL     1     -42.359  60.253 -57.736  1.00  0.00    -0.231 NA
HETATM   30  C   UNL     1     -41.646  61.032 -58.617  1.00  0.00     0.085 A 
HETATM   31  C   UNL     1     -42.145  60.907 -59.909  1.00  0.00     0.062 A 
HETATM   32  C   UNL     1     -40.545  61.868 -58.386  1.00  0.00     0.034 A 
HETATM   33  N   UNL     1     -43.170  60.006 -59.787  1.00  0.00    -0.341 N 
HETATM   34  C   UNL     1     -41.615  61.592 -61.004  1.00  0.00     0.032 A 
HETATM   35  H   UNL     1     -43.760  59.650 -60.530  1.00  0.00     0.167 HD
HETATM   36  C   UNL     1     -40.516  62.424 -60.755  1.00  0.00     0.002 A 
HETATM   37  C   UNL     1     -39.985  62.558 -59.469  1.00  0.00     0.002 A 
ENDBRANCH  23  28
ENDBRANCH   1  23
TORSDOF 7
ENDMDL
MODEL 9
REMARK VINA RESULT:      -7.8      2.278      8.593
REMARK  7 active torsions:
REMARK  status: ('A' for Active; 'I' for Inactive)
REMARK    1  A    between atoms: S_2  and  C_3 
REMARK    2  A    between atoms: C_3  and  C_4 
REMARK    3  A    between atoms: C_4  and  C_5 
REMARK    4  A    between atoms: C_5  and  N_6 
REMARK    5  A    between atoms: C_5  and  C_26 
REMARK       I    between atoms: N_6  and  C_7 
REMARK    6  A    between atoms: C_7  and  C_8 
REMARK    7  A    between atoms: C_8  and  N_9 
ROOT
HETATM    1  N   UNL     1     -42.429  57.084 -52.191  1.00  0.00    -0.348 N 
HETATM    2  C   UNL     1     -43.714  57.583 -52.152  1.00  0.00     0.236 C 
HETATM    3  O   UNL     1     -44.515  57.232 -51.281  1.00  0.00    -0.272 OA
HETATM    4  H   UNL     1     -41.996  56.990 -53.107  1.00  0.00     0.163 HD
ENDROOT
BRANCH   2   5
HETATM    5  C   UNL     1     -44.179  58.410 -53.349  1.00  0.00     0.239 C 
BRANCH   5   6
HETATM    6  N   UNL     1     -43.924  57.840 -54.654  1.00  0.00    -0.259 N 
HETATM    7  C   UNL     1     -44.058  56.523 -54.947  1.00  0.00     0.326 A 
HETATM    8  O   UNL     1     -44.227  55.621 -54.143  1.00  0.00    -0.247 OA
HETATM    9  N   UNL     1     -43.962  56.353 -56.302  1.00  0.00    -0.320 N 
HETATM   10  C   UNL     1     -43.770  57.604 -57.011  1.00  0.00     0.144 A 
HETATM   11  H   UNL     1     -44.136  55.459 -56.739  1.00  0.00     0.165 HD
HETATM   12  C   UNL     1     -44.931  57.859 -57.965  1.00  0.00    -0.014 A 
HETATM   13  C   UNL     1     -42.401  57.622 -57.709  1.00  0.00     0.047 C 
HETATM   14  C   UNL     1     -43.736  58.570 -55.799  1.00  0.00     0.261 A 
HETATM   15  C   UNL     1     -44.768  57.707 -59.360  1.00  0.00    -0.049 A 
HETATM   16  C   UNL     1     -46.204  58.219 -57.477  1.00  0.00     0.011 A 
HETATM   17  C   UNL     1     -45.850  57.953 -60.221  1.00  0.00     0.007 A 
HETATM   18  C   UNL     1     -43.435  57.356 -59.977  1.00  0.00     0.039 C 
HETATM   19  C   UNL     1     -47.093  58.326 -59.717  1.00  0.00     0.001 A 
HETATM   20  C   UNL     1     -47.272  58.456 -58.345  1.00  0.00     0.001 A 
HETATM   21  C   UNL     1     -42.435  56.780 -58.982  1.00  0.00     0.008 C 
HETATM   22  O   UNL     1     -43.602  59.785 -55.854  1.00  0.00    -0.270 OA
ENDBRANCH   5   6
ENDBRANCH   2   5
BRANCH   1  23
HETATM   23  C   UNL     1     -41.959  56.181 -51.141  1.00  0.00     0.155 C 
BRANCH  23  24
HETATM   24  C   UNL     1     -40.946  56.866 -50.209  1.00  0.00     0.043 C 
BRANCH  24  25
HETATM   25  C   UNL     1     -41.003  58.393 -50.215  1.00  0.00     0.076 C 
BRANCH  25  26
HETATM   26  S   UNL     1     -39.822  59.231 -51.329  1.00  0.00    -0.173 SA
HETATM   27  C   UNL     1     -38.437  59.493 -50.190  1.00  0.00     0.089 C 
ENDBRANCH  25  26
ENDBRANCH  24  25
ENDBRANCH  23  24
BRANCH  23  28
HETATM   28  C   UNL     1     -41.358  54.954 -51.778  1.00  0.00     0.128 A 
HETATM   29  N   UNL     1     -40.495  54.105 -51.250  1.00  0.00    -0.231 NA
HETATM   30  C   UNL     1     -40.358  53.095 -52.172  1.00  0.00     0.085 A 
HETATM   31  C   UNL     1     -41.122  53.348 -53.305  1.00  0.00     0.062 A 
HETATM   32  C   UNL     1     -39.603  51.915 -52.103  1.00  0.00     0.034 A 
HETATM   33  N   UNL     1     -41.747  54.535 -53.031  1.00  0.00    -0.341 N 
HETATM   34  C   UNL     1     -41.167  52.490 -54.407  1.00  0.00     0.032 A 
HETATM   35  H   UNL     1     -42.406  55.030 -53.622  1.00  0.00     0.167 HD
HETATM   36  C   UNL     1     -40.406  51.317 -54.322  1.00  0.00     0.002 A 
HETATM   37  C   UNL     1     -39.640  51.029 -53.189  1.00  0.00     0.002 A 
ENDBRANCH  23  28
ENDBRANCH   1  23
TORSDOF 7
ENDMDL
MODEL 10
REMARK VINA RESULT:      -7.6      2.209      3.575
REMARK  7 active torsions:
REMARK  status: ('A' for Active; 'I' for Inactive)
REMARK    1  A    between atoms: S_2  and  C_3 
REMARK    2  A    between atoms: C_3  and  C_4 
REMARK    3  A    between atoms: C_4  and  C_5 
REMARK    4  A    between atoms: C_5  and  N_6 
REMARK    5  A    between atoms: C_5  and  C_26 
REMARK       I    between atoms: N_6  and  C_7 
REMARK    6  A    between atoms: C_7  and  C_8 
REMARK    7  A    between atoms: C_8  and  N_9 
ROOT
HETATM    1  N   UNL     1     -43.646  59.042 -55.608  1.00  0.00    -0.348 N 
HETATM    2  C   UNL     1     -44.377  58.073 -54.954  1.00  0.00     0.236 C 
HETATM    3  O   UNL     1     -45.520  57.777 -55.312  1.00  0.00    -0.272 OA
HETATM    4  H   UNL     1     -42.989  59.583 -55.050  1.00  0.00     0.163 HD
ENDROOT
BRANCH   2   5
HETATM    5  C   UNL     1     -43.813  57.541 -53.638  1.00  0.00     0.239 C 
BRANCH   5   6
HETATM    6  N   UNL     1     -42.751  56.564 -53.750  1.00  0.00    -0.259 N 
HETATM    7  C   UNL     1     -41.442  56.880 -53.903  1.00  0.00     0.326 A 
HETATM    8  O   UNL     1     -40.992  57.988 -54.148  1.00  0.00    -0.247 OA
HETATM    9  N   UNL     1     -40.686  55.748 -53.750  1.00  0.00    -0.320 N 
HETATM   10  C   UNL     1     -41.488  54.576 -53.456  1.00  0.00     0.144 A 
HETATM   11  H   UNL     1     -39.677  55.783 -53.725  1.00  0.00     0.165 HD
HETATM   12  C   UNL     1     -41.116  54.004 -52.093  1.00  0.00    -0.014 A 
HETATM   13  C   UNL     1     -41.375  53.548 -54.592  1.00  0.00     0.047 C 
HETATM   14  C   UNL     1     -42.895  55.225 -53.494  1.00  0.00     0.261 A 
HETATM   15  C   UNL     1     -40.367  52.810 -51.991  1.00  0.00    -0.049 A 
HETATM   16  C   UNL     1     -41.477  54.669 -50.904  1.00  0.00     0.011 A 
HETATM   17  C   UNL     1     -40.039  52.298 -50.724  1.00  0.00     0.007 A 
HETATM   18  C   UNL     1     -39.962  52.011 -53.206  1.00  0.00     0.039 C 
HETATM   19  C   UNL     1     -40.425  52.962 -49.563  1.00  0.00     0.001 A 
HETATM   20  C   UNL     1     -41.140  54.150 -49.653  1.00  0.00     0.001 A 
HETATM   21  C   UNL     1     -40.049  52.796 -54.509  1.00  0.00     0.008 C 
HETATM   22  O   UNL     1     -43.957  54.649 -53.294  1.00  0.00    -0.270 OA
ENDBRANCH   5   6
ENDBRANCH   2   5
BRANCH   1  23
HETATM   23  C   UNL     1     -44.184  59.688 -56.805  1.00  0.00     0.155 C 
BRANCH  23  24
HETATM   24  C   UNL     1     -45.482  60.456 -56.506  1.00  0.00     0.043 C 
BRANCH  24  25
HETATM   25  C   UNL     1     -45.595  61.813 -57.199  1.00  0.00     0.076 C 
BRANCH  25  26
HETATM   26  S   UNL     1     -44.023  62.554 -57.764  1.00  0.00    -0.173 SA
HETATM   27  C   UNL     1     -44.143  62.241 -59.545  1.00  0.00     0.089 C 
ENDBRANCH  25  26
ENDBRANCH  24  25
ENDBRANCH  23  24
BRANCH  23  28
HETATM   28  C   UNL     1     -44.411  58.644 -57.869  1.00  0.00     0.128 A 
HETATM   29  N   UNL     1     -43.523  57.831 -58.411  1.00  0.00    -0.231 NA
HETATM   30  C   UNL     1     -44.240  56.989 -59.227  1.00  0.00     0.085 A 
HETATM   31  C   UNL     1     -45.591  57.318 -59.217  1.00  0.00     0.062 A 
HETATM   32  C   UNL     1     -43.805  55.905 -60.003  1.00  0.00     0.034 A 
HETATM   33  N   UNL     1     -45.673  58.373 -58.348  1.00  0.00    -0.341 N 
HETATM   34  C   UNL     1     -46.553  56.632 -59.963  1.00  0.00     0.032 A 
HETATM   35  H   UNL     1     -46.512  58.871 -58.069  1.00  0.00     0.167 HD
HETATM   36  C   UNL     1     -46.099  55.553 -60.733  1.00  0.00     0.002 A 
HETATM   37  C   UNL     1     -44.750  55.191 -60.751  1.00  0.00     0.002 A 
ENDBRANCH  23  28
ENDBRANCH   1  23
TORSDOF 7
ENDMDL
