MODEL 1
REMARK VINA RESULT:      -7.9      0.000      0.000
REMARK  4 active torsions:
REMARK  status: ('A' for Active; 'I' for Inactive)
REMARK    1  A    between atoms: C_2  and  N_3 
REMARK    2  A    between atoms: C_11  and  N_12 
REMARK    3  A    between atoms: N_12  and  C_15 
REMARK    4  A    between atoms: C_15  and  C_16 
ROOT
HETATM    1  N   UNL     1     -42.643  58.344 -51.419  1.00  0.00    -0.067 N 
HETATM    2  H   UNL     1     -42.241  58.698 -50.537  1.00  0.00     0.280 HD
HETATM    3  C   UNL     1     -43.509  57.167 -51.007  1.00  0.00     0.238 C 
HETATM    4  C   UNL     1     -44.009  56.416 -52.238  1.00  0.00     0.066 C 
HETATM    5  C   UNL     1     -42.859  55.917 -53.149  1.00  0.00     0.073 C 
HETATM    6  O   UNL     1     -42.109  54.988 -52.359  1.00  0.00    -0.339 OA
HETATM    7  C   UNL     1     -41.439  53.975 -52.977  1.00  0.00     0.078 A 
HETATM    8  C   UNL     1     -41.602  53.613 -54.318  1.00  0.00     0.006 A 
HETATM    9  C   UNL     1     -42.526  54.376 -55.217  1.00  0.00     0.224 C 
HETATM   10  C   UNL     1     -43.489  55.237 -54.386  1.00  0.00     0.076 C 
HETATM   11  C   UNL     1     -40.579  53.253 -52.146  1.00  0.00     0.037 A 
HETATM   12  C   UNL     1     -39.872  52.160 -52.643  1.00  0.00     0.003 A 
HETATM   13  C   UNL     1     -40.040  51.773 -53.966  1.00  0.00     0.001 A 
HETATM   14  C   UNL     1     -40.907  52.487 -54.796  1.00  0.00     0.012 A 
HETATM   15  C   UNL     1     -41.932  57.105 -53.476  1.00  0.00     0.066 C 
HETATM   16  C   UNL     1     -41.463  57.830 -52.212  1.00  0.00     0.238 C 
ENDROOT
BRANCH   9  17
HETATM   17  N   UNL     1     -41.811  55.246 -56.211  1.00  0.00    -0.063 N 
HETATM   18  H   UNL     1     -40.940  55.609 -55.806  1.00  0.00     0.278 HD
HETATM   19  H   UNL     1     -41.557  54.708 -57.044  1.00  0.00     0.278 HD
BRANCH  17  20
HETATM   20  C   UNL     1     -42.537  56.460 -56.713  1.00  0.00     0.274 C 
BRANCH  20  21
HETATM   21  C   UNL     1     -42.965  56.197 -58.105  1.00  0.00     0.004 A 
HETATM   22  C   UNL     1     -43.953  55.342 -58.558  1.00  0.00     0.122 A 
HETATM   23  N   UNL     1     -43.983  55.477 -59.919  1.00  0.00    -0.285 N 
HETATM   24  C   UNL     1     -44.815  54.759 -60.859  1.00  0.00     0.179 C 
HETATM   25  N   UNL     1     -43.139  56.423 -60.364  1.00  0.00    -0.185 NA
HETATM   26  C   UNL     1     -42.468  56.803 -59.281  1.00  0.00     0.149 A 
ENDBRANCH  20  21
ENDBRANCH  17  20
ENDBRANCH   9  17
BRANCH   1  27
HETATM   27  C   UNL     1     -43.394  59.553 -52.006  1.00  0.00     0.180 C 
HETATM   28  C   UNL     1     -42.406  60.591 -52.540  1.00  0.00     0.039 C 
HETATM   29  C   UNL     1     -44.267  60.199 -50.929  1.00  0.00     0.039 C 
ENDBRANCH   1  27
TORSDOF 4
ENDMDL
MODEL 2
REMARK VINA RESULT:      -7.7      1.434      2.034
REMARK  4 active torsions:
REMARK  status: ('A' for Active; 'I' for Inactive)
REMARK    1  A    between atoms: C_2  and  N_3 
REMARK    2  A    between atoms: C_11  and  N_12 
REMARK    3  A    between atoms: N_12  and  C_15 
REMARK    4  A    between atoms: C_15  and  C_16 
ROOT
HETATM    1  N   UNL     1     -42.171  58.211 -51.305  1.00  0.00    -0.067 N 
HETATM    2  H   UNL     1     -41.661  58.591 -50.492  1.00  0.00     0.280 HD
HETATM    3  C   UNL     1     -43.000  57.069 -50.745  1.00  0.00     0.238 C 
HETATM    4  C   UNL     1     -43.654  56.280 -51.876  1.00  0.00     0.066 C 
HETATM    5  C   UNL     1     -42.630  55.722 -52.895  1.00  0.00     0.073 C 
HETATM    6  O   UNL     1     -41.805  54.811 -52.162  1.00  0.00    -0.339 OA
HETATM    7  C   UNL     1     -41.229  53.761 -52.813  1.00  0.00     0.078 A 
HETATM    8  C   UNL     1     -41.556  53.350 -54.109  1.00  0.00     0.006 A 
HETATM    9  C   UNL     1     -42.570  54.096 -54.923  1.00  0.00     0.224 C 
HETATM   10  C   UNL     1     -43.412  55.008 -54.020  1.00  0.00     0.076 C 
HETATM   11  C   UNL     1     -40.286  53.054 -52.061  1.00  0.00     0.037 A 
HETATM   12  C   UNL     1     -39.661  51.929 -52.593  1.00  0.00     0.003 A 
HETATM   13  C   UNL     1     -39.992  51.494 -53.870  1.00  0.00     0.001 A 
HETATM   14  C   UNL     1     -40.940  52.192 -54.620  1.00  0.00     0.012 A 
HETATM   15  C   UNL     1     -41.730  56.878 -53.379  1.00  0.00     0.066 C 
HETATM   16  C   UNL     1     -41.102  57.643 -52.210  1.00  0.00     0.238 C 
ENDROOT
BRANCH   9  17
HETATM   17  N   UNL     1     -41.965  54.911 -56.030  1.00  0.00    -0.063 N 
HETATM   18  H   UNL     1     -41.560  55.778 -55.655  1.00  0.00     0.278 HD
HETATM   19  H   UNL     1     -41.207  54.395 -56.486  1.00  0.00     0.278 HD
BRANCH  17  20
HETATM   20  C   UNL     1     -42.877  55.359 -57.134  1.00  0.00     0.274 C 
BRANCH  20  21
HETATM   21  C   UNL     1     -42.632  56.798 -57.378  1.00  0.00     0.004 A 
HETATM   22  C   UNL     1     -42.556  57.829 -56.459  1.00  0.00     0.122 A 
HETATM   23  N   UNL     1     -42.286  58.963 -57.176  1.00  0.00    -0.285 N 
HETATM   24  C   UNL     1     -42.158  60.314 -56.677  1.00  0.00     0.179 C 
HETATM   25  N   UNL     1     -42.099  58.716 -58.483  1.00  0.00    -0.185 NA
HETATM   26  C   UNL     1     -42.385  57.425 -58.620  1.00  0.00     0.149 A 
ENDBRANCH  20  21
ENDBRANCH  17  20
ENDBRANCH   9  17
BRANCH   1  27
HETATM   27  C   UNL     1     -42.969  59.411 -51.848  1.00  0.00     0.180 C 
HETATM   28  C   UNL     1     -42.100  60.252 -52.786  1.00  0.00     0.039 C 
HETATM   29  C   UNL     1     -43.449  60.286 -50.690  1.00  0.00     0.039 C 
ENDBRANCH   1  27
TORSDOF 4
ENDMDL
MODEL 3
REMARK VINA RESULT:      -7.7      2.406      5.831
REMARK  4 active torsions:
REMARK  status: ('A' for Active; 'I' for Inactive)
REMARK    1  A    between atoms: C_2  and  N_3 
REMARK    2  A    between atoms: C_11  and  N_12 
REMARK    3  A    between atoms: N_12  and  C_15 
REMARK    4  A    between atoms: C_15  and  C_16 
ROOT
HETATM    1  N   UNL     1     -42.929  55.419 -55.740  1.00  0.00    -0.067 N 
HETATM    2  H   UNL     1     -43.385  55.250 -56.651  1.00  0.00     0.280 HD
HETATM    3  C   UNL     1     -41.440  55.370 -56.037  1.00  0.00     0.238 C 
HETATM    4  C   UNL     1     -40.637  55.402 -54.740  1.00  0.00     0.066 C 
HETATM    5  C   UNL     1     -41.008  54.251 -53.771  1.00  0.00     0.073 C 
HETATM    6  O   UNL     1     -40.667  53.039 -54.454  1.00  0.00    -0.339 OA
HETATM    7  C   UNL     1     -40.319  51.940 -53.728  1.00  0.00     0.078 A 
HETATM    8  C   UNL     1     -40.036  51.946 -52.358  1.00  0.00     0.006 A 
HETATM    9  C   UNL     1     -40.149  53.203 -51.552  1.00  0.00     0.224 C 
HETATM   10  C   UNL     1     -40.184  54.429 -52.476  1.00  0.00     0.076 C 
HETATM   11  C   UNL     1     -40.205  50.762 -54.471  1.00  0.00     0.037 A 
HETATM   12  C   UNL     1     -39.807  49.577 -53.858  1.00  0.00     0.003 A 
HETATM   13  C   UNL     1     -39.499  49.571 -52.503  1.00  0.00     0.001 A 
HETATM   14  C   UNL     1     -39.602  50.748 -51.759  1.00  0.00     0.012 A 
HETATM   15  C   UNL     1     -42.536  54.251 -53.559  1.00  0.00     0.066 C 
HETATM   16  C   UNL     1     -43.298  54.226 -54.888  1.00  0.00     0.238 C 
ENDROOT
BRANCH   9  17
HETATM   17  N   UNL     1     -41.347  53.228 -50.646  1.00  0.00    -0.063 N 
HETATM   18  H   UNL     1     -42.211  53.301 -51.198  1.00  0.00     0.278 HD
HETATM   19  H   UNL     1     -41.407  52.361 -50.104  1.00  0.00     0.278 HD
BRANCH  17  20
HETATM   20  C   UNL     1     -41.433  54.344 -49.646  1.00  0.00     0.274 C 
BRANCH  20  21
HETATM   21  C   UNL     1     -42.385  55.352 -50.163  1.00  0.00     0.004 A 
HETATM   22  C   UNL     1     -42.123  56.626 -50.633  1.00  0.00     0.122 A 
HETATM   23  N   UNL     1     -43.327  57.148 -51.021  1.00  0.00    -0.285 N 
HETATM   24  C   UNL     1     -43.591  58.472 -51.538  1.00  0.00     0.179 C 
HETATM   25  N   UNL     1     -44.333  56.264 -50.910  1.00  0.00    -0.185 NA
HETATM   26  C   UNL     1     -43.782  55.208 -50.320  1.00  0.00     0.149 A 
ENDBRANCH  20  21
ENDBRANCH  17  20
ENDBRANCH   9  17
BRANCH   1  27
HETATM   27  C   UNL     1     -43.475  56.786 -55.289  1.00  0.00     0.180 C 
HETATM   28  C   UNL     1     -44.806  56.614 -54.554  1.00  0.00     0.039 C 
HETATM   29  C   UNL     1     -43.686  57.691 -56.503  1.00  0.00     0.039 C 
ENDBRANCH   1  27
TORSDOF 4
ENDMDL
MODEL 4
REMARK VINA RESULT:      -7.5      2.357      6.253
REMARK  4 active torsions:
REMARK  status: ('A' for Active; 'I' for Inactive)
REMARK    1  A    between atoms: C_2  and  N_3 
REMARK    2  A    between atoms: C_11  and  N_12 
REMARK    3  A    between atoms: N_12  and  C_15 
REMARK    4  A    between atoms: C_15  and  C_16 
ROOT
HETATM    1  N   UNL     1     -43.337  57.716 -57.894  1.00  0.00    -0.067 N 
HETATM    2  H   UNL     1     -42.929  58.369 -58.582  1.00  0.00     0.280 HD
HETATM    3  C   UNL     1     -44.175  58.590 -56.978  1.00  0.00     0.238 C 
HETATM    4  C   UNL     1     -44.677  57.782 -55.784  1.00  0.00     0.066 C 
HETATM    5  C   UNL     1     -43.531  57.131 -54.970  1.00  0.00     0.073 C 
HETATM    6  O   UNL     1     -42.752  58.215 -54.453  1.00  0.00    -0.339 OA
HETATM    7  C   UNL     1     -42.072  58.050 -53.284  1.00  0.00     0.078 A 
HETATM    8  C   UNL     1     -42.246  56.977 -52.405  1.00  0.00     0.006 A 
HETATM    9  C   UNL     1     -43.197  55.863 -52.724  1.00  0.00     0.224 C 
HETATM   10  C   UNL     1     -44.164  56.290 -53.838  1.00  0.00     0.076 C 
HETATM   11  C   UNL     1     -41.186  59.086 -52.973  1.00  0.00     0.037 A 
HETATM   12  C   UNL     1     -40.466  59.063 -51.782  1.00  0.00     0.003 A 
HETATM   13  C   UNL     1     -40.645  58.016 -50.887  1.00  0.00     0.001 A 
HETATM   14  C   UNL     1     -41.536  56.985 -51.190  1.00  0.00     0.012 A 
HETATM   15  C   UNL     1     -42.630  56.329 -55.932  1.00  0.00     0.066 C 
HETATM   16  C   UNL     1     -42.158  57.178 -57.116  1.00  0.00     0.238 C 
ENDROOT
BRANCH   9  17
HETATM   17  N   UNL     1     -42.511  54.587 -53.121  1.00  0.00    -0.063 N 
HETATM   18  H   UNL     1     -42.739  53.838 -52.457  1.00  0.00     0.278 HD
HETATM   19  H   UNL     1     -42.828  54.280 -54.045  1.00  0.00     0.278 HD
BRANCH  17  20
HETATM   20  C   UNL     1     -41.012  54.602 -53.186  1.00  0.00     0.274 C 
BRANCH  20  21
HETATM   21  C   UNL     1     -40.539  53.200 -53.203  1.00  0.00     0.004 A 
HETATM   22  C   UNL     1     -40.498  52.315 -54.266  1.00  0.00     0.122 A 
HETATM   23  N   UNL     1     -39.953  51.157 -53.781  1.00  0.00    -0.285 N 
HETATM   24  C   UNL     1     -39.742  49.916 -54.491  1.00  0.00     0.179 C 
HETATM   25  N   UNL     1     -39.563  51.267 -52.500  1.00  0.00    -0.185 NA
HETATM   26  C   UNL     1     -39.986  52.470 -52.127  1.00  0.00     0.149 A 
ENDBRANCH  20  21
ENDBRANCH  17  20
ENDBRANCH   9  17
BRANCH   1  27
HETATM   27  C   UNL     1     -44.119  56.702 -58.750  1.00  0.00     0.180 C 
HETATM   28  C   UNL     1     -43.158  55.835 -59.566  1.00  0.00     0.039 C 
HETATM   29  C   UNL     1     -45.061  57.440 -59.702  1.00  0.00     0.039 C 
ENDBRANCH   1  27
TORSDOF 4
ENDMDL
MODEL 5
REMARK VINA RESULT:      -7.1      2.082      5.696
REMARK  4 active torsions:
REMARK  status: ('A' for Active; 'I' for Inactive)
REMARK    1  A    between atoms: C_2  and  N_3 
REMARK    2  A    between atoms: C_11  and  N_12 
REMARK    3  A    between atoms: N_12  and  C_15 
REMARK    4  A    between atoms: C_15  and  C_16 
ROOT
HETATM    1  N   UNL     1     -41.593  53.531 -51.886  1.00  0.00    -0.067 N 
HETATM    2  H   UNL     1     -42.199  52.695 -51.878  1.00  0.00     0.280 HD
HETATM    3  C   UNL     1     -41.684  54.092 -50.478  1.00  0.00     0.238 C 
HETATM    4  C   UNL     1     -40.995  55.451 -50.401  1.00  0.00     0.066 C 
HETATM    5  C   UNL     1     -41.573  56.480 -51.405  1.00  0.00     0.073 C 
HETATM    6  O   UNL     1     -42.939  56.673 -51.024  1.00  0.00    -0.339 OA
HETATM    7  C   UNL     1     -43.542  57.868 -51.286  1.00  0.00     0.078 A 
HETATM    8  C   UNL     1     -42.873  59.026 -51.694  1.00  0.00     0.006 A 
HETATM    9  C   UNL     1     -41.394  59.021 -51.929  1.00  0.00     0.224 C 
HETATM   10  C   UNL     1     -40.754  57.785 -51.279  1.00  0.00     0.076 C 
HETATM   11  C   UNL     1     -44.922  57.885 -51.064  1.00  0.00     0.037 A 
HETATM   12  C   UNL     1     -45.650  59.058 -51.246  1.00  0.00     0.003 A 
HETATM   13  C   UNL     1     -44.997  60.223 -51.628  1.00  0.00     0.001 A 
HETATM   14  C   UNL     1     -43.618  60.211 -51.841  1.00  0.00     0.012 A 
HETATM   15  C   UNL     1     -41.567  55.857 -52.816  1.00  0.00     0.066 C 
HETATM   16  C   UNL     1     -42.262  54.493 -52.842  1.00  0.00     0.238 C 
ENDROOT
BRANCH   9  17
HETATM   17  N   UNL     1     -41.019  59.070 -53.383  1.00  0.00    -0.063 N 
HETATM   18  H   UNL     1     -40.056  59.411 -53.493  1.00  0.00     0.278 HD
HETATM   19  H   UNL     1     -41.059  58.135 -53.797  1.00  0.00     0.278 HD
BRANCH  17  20
HETATM   20  C   UNL     1     -41.843  59.950 -54.277  1.00  0.00     0.274 C 
BRANCH  20  21
HETATM   21  C   UNL     1     -42.126  59.203 -55.523  1.00  0.00     0.004 A 
HETATM   22  C   UNL     1     -42.481  57.874 -55.671  1.00  0.00     0.122 A 
HETATM   23  N   UNL     1     -42.661  57.672 -57.013  1.00  0.00    -0.285 N 
HETATM   24  C   UNL     1     -42.993  56.434 -57.682  1.00  0.00     0.179 C 
HETATM   25  N   UNL     1     -42.529  58.801 -57.727  1.00  0.00    -0.185 NA
HETATM   26  C   UNL     1     -42.130  59.709 -56.842  1.00  0.00     0.149 A 
ENDBRANCH  20  21
ENDBRANCH  17  20
ENDBRANCH   9  17
BRANCH   1  27
HETATM   27  C   UNL     1     -40.211  52.994 -52.303  1.00  0.00     0.180 C 
HETATM   28  C   UNL     1     -40.251  52.472 -53.741  1.00  0.00     0.039 C 
HETATM   29  C   UNL     1     -39.789  51.859 -51.369  1.00  0.00     0.039 C 
ENDBRANCH   1  27
TORSDOF 4
ENDMDL
MODEL 6
REMARK VINA RESULT:      -7.0      2.877      5.561
REMARK  4 active torsions:
REMARK  status: ('A' for Active; 'I' for Inactive)
REMARK    1  A    between atoms: C_2  and  N_3 
REMARK    2  A    between atoms: C_11  and  N_12 
REMARK    3  A    between atoms: N_12  and  C_15 
REMARK    4  A    between atoms: C_15  and  C_16 
ROOT
HETATM    1  N   UNL     1     -44.179  60.619 -51.857  1.00  0.00    -0.067 N 
HETATM    2  H   UNL     1     -44.958  61.268 -52.050  1.00  0.00     0.280 HD
HETATM    3  C   UNL     1     -43.083  61.028 -52.826  1.00  0.00     0.238 C 
HETATM    4  C   UNL     1     -41.939  60.019 -52.793  1.00  0.00     0.066 C 
HETATM    5  C   UNL     1     -42.398  58.574 -53.114  1.00  0.00     0.073 C 
HETATM    6  O   UNL     1     -42.895  58.610 -54.455  1.00  0.00    -0.339 OA
HETATM    7  C   UNL     1     -42.828  57.485 -55.222  1.00  0.00     0.078 A 
HETATM    8  C   UNL     1     -42.097  56.339 -54.894  1.00  0.00     0.006 A 
HETATM    9  C   UNL     1     -41.346  56.246 -53.601  1.00  0.00     0.224 C 
HETATM   10  C   UNL     1     -41.172  57.641 -52.983  1.00  0.00     0.076 C 
HETATM   11  C   UNL     1     -43.520  57.563 -56.434  1.00  0.00     0.037 A 
HETATM   12  C   UNL     1     -43.490  56.500 -57.332  1.00  0.00     0.003 A 
HETATM   13  C   UNL     1     -42.749  55.363 -57.032  1.00  0.00     0.001 A 
HETATM   14  C   UNL     1     -42.048  55.286 -55.827  1.00  0.00     0.012 A 
HETATM   15  C   UNL     1     -43.577  58.210 -52.189  1.00  0.00     0.066 C 
HETATM   16  C   UNL     1     -44.696  59.254 -52.251  1.00  0.00     0.238 C 
ENDROOT
BRANCH   9  17
HETATM   17  N   UNL     1     -41.993  55.334 -52.598  1.00  0.00    -0.063 N 
HETATM   18  H   UNL     1     -42.750  55.824 -52.105  1.00  0.00     0.278 HD
HETATM   19  H   UNL     1     -42.410  54.523 -53.064  1.00  0.00     0.278 HD
BRANCH  17  20
HETATM   20  C   UNL     1     -41.122  54.778 -51.509  1.00  0.00     0.274 C 
BRANCH  20  21
HETATM   21  C   UNL     1     -40.609  53.464 -51.957  1.00  0.00     0.004 A 
HETATM   22  C   UNL     1     -40.673  52.895 -53.216  1.00  0.00     0.122 A 
HETATM   23  N   UNL     1     -40.034  51.688 -53.125  1.00  0.00    -0.285 N 
HETATM   24  C   UNL     1     -39.873  50.694 -54.162  1.00  0.00     0.179 C 
HETATM   25  N   UNL     1     -39.490  51.482 -51.914  1.00  0.00    -0.185 NA
HETATM   26  C   UNL     1     -39.902  52.514 -51.185  1.00  0.00     0.149 A 
ENDBRANCH  20  21
ENDBRANCH  17  20
ENDBRANCH   9  17
BRANCH   1  27
HETATM   27  C   UNL     1     -43.865  60.834 -50.365  1.00  0.00     0.180 C 
HETATM   28  C   UNL     1     -45.132  60.675 -49.523  1.00  0.00     0.039 C 
HETATM   29  C   UNL     1     -43.292  62.236 -50.149  1.00  0.00     0.039 C 
ENDBRANCH   1  27
TORSDOF 4
ENDMDL
MODEL 7
REMARK VINA RESULT:      -6.9      2.364      6.587
REMARK  4 active torsions:
REMARK  status: ('A' for Active; 'I' for Inactive)
REMARK    1  A    between atoms: C_2  and  N_3 
REMARK    2  A    between atoms: C_11  and  N_12 
REMARK    3  A    between atoms: N_12  and  C_15 
REMARK    4  A    between atoms: C_15  and  C_16 
ROOT
HETATM    1  N   UNL     1     -43.931  56.556 -55.854  1.00  0.00    -0.067 N 
HETATM    2  H   UNL     1     -44.441  55.848 -56.406  1.00  0.00     0.280 HD
HETATM    3  C   UNL     1     -42.468  56.174 -55.986  1.00  0.00     0.238 C 
HETATM    4  C   UNL     1     -41.609  57.020 -55.050  1.00  0.00     0.066 C 
HETATM    5  C   UNL     1     -42.040  56.905 -53.566  1.00  0.00     0.073 C 
HETATM    6  O   UNL     1     -41.840  55.534 -53.205  1.00  0.00    -0.339 OA
HETATM    7  C   UNL     1     -41.561  55.220 -51.909  1.00  0.00     0.078 A 
HETATM    8  C   UNL     1     -41.220  56.147 -50.919  1.00  0.00     0.006 A 
HETATM    9  C   UNL     1     -41.183  57.615 -51.216  1.00  0.00     0.224 C 
HETATM   10  C   UNL     1     -41.147  57.852 -52.733  1.00  0.00     0.076 C 
HETATM   11  C   UNL     1     -41.587  53.852 -51.622  1.00  0.00     0.037 A 
HETATM   12  C   UNL     1     -41.271  53.394 -50.346  1.00  0.00     0.003 A 
HETATM   13  C   UNL     1     -40.907  54.300 -49.358  1.00  0.00     0.001 A 
HETATM   14  C   UNL     1     -40.871  55.666 -49.643  1.00  0.00     0.012 A 
HETATM   15  C   UNL     1     -43.551  57.198 -53.462  1.00  0.00     0.066 C 
HETATM   16  C   UNL     1     -44.369  56.332 -54.424  1.00  0.00     0.238 C 
ENDROOT
BRANCH   9  17
HETATM   17  N   UNL     1     -42.333  58.374 -50.620  1.00  0.00    -0.063 N 
HETATM   18  H   UNL     1     -43.226  57.957 -50.909  1.00  0.00     0.278 HD
HETATM   19  H   UNL     1     -42.298  58.338 -49.597  1.00  0.00     0.278 HD
BRANCH  17  20
HETATM   20  C   UNL     1     -42.457  59.828 -50.973  1.00  0.00     0.274 C 
BRANCH  20  21
HETATM   21  C   UNL     1     -43.838  60.261 -50.665  1.00  0.00     0.004 A 
HETATM   22  C   UNL     1     -44.286  61.512 -50.281  1.00  0.00     0.122 A 
HETATM   23  N   UNL     1     -45.643  61.409 -50.144  1.00  0.00    -0.285 N 
HETATM   24  C   UNL     1     -46.568  62.433 -49.713  1.00  0.00     0.179 C 
HETATM   25  N   UNL     1     -46.108  60.198 -50.496  1.00  0.00    -0.185 NA
HETATM   26  C   UNL     1     -45.014  59.481 -50.735  1.00  0.00     0.149 A 
ENDBRANCH  20  21
ENDBRANCH  17  20
ENDBRANCH   9  17
BRANCH   1  27
HETATM   27  C   UNL     1     -44.332  57.898 -56.495  1.00  0.00     0.180 C 
HETATM   28  C   UNL     1     -45.806  58.203 -56.224  1.00  0.00     0.039 C 
HETATM   29  C   UNL     1     -44.100  57.844 -58.006  1.00  0.00     0.039 C 
ENDBRANCH   1  27
TORSDOF 4
ENDMDL
MODEL 8
REMARK VINA RESULT:      -6.9      1.878      5.249
REMARK  4 active torsions:
REMARK  status: ('A' for Active; 'I' for Inactive)
REMARK    1  A    between atoms: C_2  and  N_3 
REMARK    2  A    between atoms: C_11  and  N_12 
REMARK    3  A    between atoms: N_12  and  C_15 
REMARK    4  A    between atoms: C_15  and  C_16 
ROOT
HETATM    1  N   UNL     1     -41.788  53.997 -52.099  1.00  0.00    -0.067 N 
HETATM    2  H   UNL     1     -42.047  53.243 -51.443  1.00  0.00     0.280 HD
HETATM    3  C   UNL     1     -41.229  55.101 -51.219  1.00  0.00     0.238 C 
HETATM    4  C   UNL     1     -40.991  56.366 -52.039  1.00  0.00     0.066 C 
HETATM    5  C   UNL     1     -42.270  56.873 -52.753  1.00  0.00     0.073 C 
HETATM    6  O   UNL     1     -43.193  57.207 -51.711  1.00  0.00    -0.339 OA
HETATM    7  C   UNL     1     -44.125  58.177 -51.932  1.00  0.00     0.078 A 
HETATM    8  C   UNL     1     -44.120  59.055 -53.021  1.00  0.00     0.006 A 
HETATM    9  C   UNL     1     -43.075  58.953 -54.090  1.00  0.00     0.224 C 
HETATM   10  C   UNL     1     -41.890  58.109 -53.599  1.00  0.00     0.076 C 
HETATM   11  C   UNL     1     -45.101  58.285 -50.938  1.00  0.00     0.037 A 
HETATM   12  C   UNL     1     -46.083  59.269 -51.017  1.00  0.00     0.003 A 
HETATM   13  C   UNL     1     -46.078  60.164 -52.080  1.00  0.00     0.001 A 
HETATM   14  C   UNL     1     -45.098  60.065 -53.070  1.00  0.00     0.012 A 
HETATM   15  C   UNL     1     -42.882  55.711 -53.562  1.00  0.00     0.066 C 
HETATM   16  C   UNL     1     -43.094  54.463 -52.700  1.00  0.00     0.238 C 
ENDROOT
BRANCH   9  17
HETATM   17  N   UNL     1     -43.593  58.382 -55.379  1.00  0.00    -0.063 N 
HETATM   18  H   UNL     1     -44.135  57.528 -55.201  1.00  0.00     0.278 HD
HETATM   19  H   UNL     1     -44.219  59.048 -55.842  1.00  0.00     0.278 HD
BRANCH  17  20
HETATM   20  C   UNL     1     -42.580  57.986 -56.413  1.00  0.00     0.274 C 
BRANCH  20  21
HETATM   21  C   UNL     1     -43.290  57.290 -57.510  1.00  0.00     0.004 A 
HETATM   22  C   UNL     1     -43.159  55.978 -57.928  1.00  0.00     0.122 A 
HETATM   23  N   UNL     1     -44.049  55.812 -58.954  1.00  0.00    -0.285 N 
HETATM   24  C   UNL     1     -44.260  54.627 -59.756  1.00  0.00     0.179 C 
HETATM   25  N   UNL     1     -44.803  56.903 -59.166  1.00  0.00    -0.185 NA
HETATM   26  C   UNL     1     -44.294  57.821 -58.350  1.00  0.00     0.149 A 
ENDBRANCH  20  21
ENDBRANCH  17  20
ENDBRANCH   9  17
BRANCH   1  27
HETATM   27  C   UNL     1     -40.783  53.336 -53.061  1.00  0.00     0.180 C 
HETATM   28  C   UNL     1     -41.516  52.673 -54.229  1.00  0.00     0.039 C 
HETATM   29  C   UNL     1     -39.966  52.278 -52.316  1.00  0.00     0.039 C 
ENDBRANCH   1  27
TORSDOF 4
ENDMDL
MODEL 9
REMARK VINA RESULT:      -6.8      2.455      6.566
REMARK  4 active torsions:
REMARK  status: ('A' for Active; 'I' for Inactive)
REMARK    1  A    between atoms: C_2  and  N_3 
REMARK    2  A    between atoms: C_11  and  N_12 
REMARK    3  A    between atoms: N_12  and  C_15 
REMARK    4  A    between atoms: C_15  and  C_16 
ROOT
HETATM    1  N   UNL     1     -41.271  53.721 -53.940  1.00  0.00    -0.067 N 
HETATM    2  H   UNL     1     -40.815  52.812 -54.116  1.00  0.00     0.280 HD
HETATM    3  C   UNL     1     -42.723  53.511 -54.334  1.00  0.00     0.238 C 
HETATM    4  C   UNL     1     -43.476  54.838 -54.317  1.00  0.00     0.066 C 
HETATM    5  C   UNL     1     -42.840  55.906 -55.242  1.00  0.00     0.073 C 
HETATM    6  O   UNL     1     -42.933  55.380 -56.570  1.00  0.00    -0.339 OA
HETATM    7  C   UNL     1     -43.017  56.241 -57.624  1.00  0.00     0.078 A 
HETATM    8  C   UNL     1     -43.256  57.614 -57.515  1.00  0.00     0.006 A 
HETATM    9  C   UNL     1     -43.392  58.270 -56.174  1.00  0.00     0.224 C 
HETATM   10  C   UNL     1     -43.647  57.216 -55.088  1.00  0.00     0.076 C 
HETATM   11  C   UNL     1     -42.898  55.638 -58.879  1.00  0.00     0.037 A 
HETATM   12  C   UNL     1     -43.015  56.399 -60.040  1.00  0.00     0.003 A 
HETATM   13  C   UNL     1     -43.276  57.760 -59.949  1.00  0.00     0.001 A 
HETATM   14  C   UNL     1     -43.406  58.363 -58.697  1.00  0.00     0.012 A 
HETATM   15  C   UNL     1     -41.342  56.035 -54.896  1.00  0.00     0.066 C 
HETATM   16  C   UNL     1     -40.631  54.679 -54.919  1.00  0.00     0.238 C 
ENDROOT
BRANCH   9  17
HETATM   17  N   UNL     1     -42.201  59.102 -55.792  1.00  0.00    -0.063 N 
HETATM   18  H   UNL     1     -41.474  58.513 -55.370  1.00  0.00     0.278 HD
HETATM   19  H   UNL     1     -41.791  59.545 -56.619  1.00  0.00     0.278 HD
BRANCH  17  20
HETATM   20  C   UNL     1     -42.423  60.209 -54.803  1.00  0.00     0.274 C 
BRANCH  20  21
HETATM   21  C   UNL     1     -41.754  59.834 -53.537  1.00  0.00     0.004 A 
HETATM   22  C   UNL     1     -42.093  60.188 -52.243  1.00  0.00     0.122 A 
HETATM   23  N   UNL     1     -41.188  59.568 -51.425  1.00  0.00    -0.285 N 
HETATM   24  C   UNL     1     -41.089  59.663 -49.986  1.00  0.00     0.179 C 
HETATM   25  N   UNL     1     -40.343  58.772 -52.100  1.00  0.00    -0.185 NA
HETATM   26  C   UNL     1     -40.631  58.991 -53.379  1.00  0.00     0.149 A 
ENDBRANCH  20  21
ENDBRANCH  17  20
ENDBRANCH   9  17
BRANCH   1  27
HETATM   27  C   UNL     1     -41.017  53.990 -52.445  1.00  0.00     0.180 C 
HETATM   28  C   UNL     1     -39.980  53.011 -51.893  1.00  0.00     0.039 C 
HETATM   29  C   UNL     1     -42.320  53.838 -51.658  1.00  0.00     0.039 C 
ENDBRANCH   1  27
TORSDOF 4
ENDMDL
MODEL 10
REMARK VINA RESULT:      -6.7      2.817      6.334
REMARK  4 active torsions:
REMARK  status: ('A' for Active; 'I' for Inactive)
REMARK    1  A    between atoms: C_2  and  N_3 
REMARK    2  A    between atoms: C_11  and  N_12 
REMARK    3  A    between atoms: N_12  and  C_15 
REMARK    4  A    between atoms: C_15  and  C_16 
ROOT
HETATM    1  N   UNL     1     -44.738  60.603 -55.895  1.00  0.00    -0.067 N 
HETATM    2  H   UNL     1     -45.423  61.356 -56.067  1.00  0.00     0.280 HD
HETATM    3  C   UNL     1     -43.745  60.711 -57.039  1.00  0.00     0.238 C 
HETATM    4  C   UNL     1     -42.785  59.526 -57.024  1.00  0.00     0.066 C 
HETATM    5  C   UNL     1     -43.511  58.159 -57.099  1.00  0.00     0.073 C 
HETATM    6  O   UNL     1     -44.188  58.144 -58.360  1.00  0.00    -0.339 OA
HETATM    7  C   UNL     1     -44.415  56.952 -58.982  1.00  0.00     0.078 A 
HETATM    8  C   UNL     1     -43.836  55.735 -58.607  1.00  0.00     0.006 A 
HETATM    9  C   UNL     1     -42.928  55.645 -57.418  1.00  0.00     0.224 C 
HETATM   10  C   UNL     1     -42.445  57.043 -57.009  1.00  0.00     0.076 C 
HETATM   11  C   UNL     1     -45.255  57.025 -60.095  1.00  0.00     0.037 A 
HETATM   12  C   UNL     1     -45.528  55.886 -60.849  1.00  0.00     0.003 A 
HETATM   13  C   UNL     1     -44.942  54.674 -60.504  1.00  0.00     0.001 A 
HETATM   14  C   UNL     1     -44.094  54.600 -59.398  1.00  0.00     0.012 A 
HETATM   15  C   UNL     1     -44.585  58.105 -55.994  1.00  0.00     0.066 C 
HETATM   16  C   UNL     1     -45.519  59.318 -56.044  1.00  0.00     0.238 C 
ENDROOT
BRANCH   9  17
HETATM   17  N   UNL     1     -43.558  54.969 -56.235  1.00  0.00    -0.063 N 
HETATM   18  H   UNL     1     -43.992  55.664 -55.615  1.00  0.00     0.278 HD
HETATM   19  H   UNL     1     -44.298  54.329 -56.537  1.00  0.00     0.278 HD
BRANCH  17  20
HETATM   20  C   UNL     1     -42.660  54.164 -55.341  1.00  0.00     0.274 C 
BRANCH  20  21
HETATM   21  C   UNL     1     -42.863  54.624 -53.949  1.00  0.00     0.004 A 
HETATM   22  C   UNL     1     -42.450  54.026 -52.773  1.00  0.00     0.122 A 
HETATM   23  N   UNL     1     -42.854  54.852 -51.759  1.00  0.00    -0.285 N 
HETATM   24  C   UNL     1     -42.701  54.644 -50.337  1.00  0.00     0.179 C 
HETATM   25  N   UNL     1     -43.425  55.982 -52.210  1.00  0.00    -0.185 NA
HETATM   26  C   UNL     1     -43.502  55.812 -53.526  1.00  0.00     0.149 A 
ENDBRANCH  20  21
ENDBRANCH  17  20
ENDBRANCH   9  17
BRANCH   1  27
HETATM   27  C   UNL     1     -44.179  60.912 -54.494  1.00  0.00     0.180 C 
HETATM   28  C   UNL     1     -45.290  60.840 -53.445  1.00  0.00     0.039 C 
HETATM   29  C   UNL     1     -43.561  62.312 -54.475  1.00  0.00     0.039 C 
ENDBRANCH   1  27
TORSDOF 4
ENDMDL
