MODEL 1
REMARK VINA RESULT:      -8.5      0.000      0.000
REMARK  7 active torsions:
REMARK  status: ('A' for Active; 'I' for Inactive)
REMARK    1  A    between atoms: C_2  and  O_3 
REMARK    2  A    between atoms: O_3  and  C_4 
REMARK    3  A    between atoms: C_4  and  C_5 
REMARK    4  A    between atoms: C_6  and  C_7 
REMARK    5  A    between atoms: C_18  and  S_19 
REMARK    6  A    between atoms: S_19  and  C_20 
REMARK    7  A    between atoms: C_20  and  C_21 
ROOT
HETATM    1  C   UNL     1     -43.506  58.210 -52.210  1.00  0.00     0.070 C 
HETATM    2  C   UNL     1     -42.425  57.212 -52.635  1.00  0.00     0.203 C 
HETATM    3  N   UNL     1     -42.380  56.069 -51.719  1.00  0.00    -0.082 N 
HETATM    4  C   UNL     1     -43.375  55.764 -50.834  1.00  0.00     0.726 A 
HETATM    5  N   UNL     1     -44.452  56.569 -50.759  1.00  0.00    -0.192 N 
HETATM    6  N   UNL     1     -41.329  55.242 -51.585  1.00  0.00    -0.128 NA
HETATM    7  C   UNL     1     -41.780  54.415 -50.634  1.00  0.00     0.226 A 
HETATM    8  N   UNL     1     -43.039  54.694 -50.157  1.00  0.00    -0.035 NA
HETATM    9  C   UNL     1     -44.490  57.835 -51.351  1.00  0.00     0.037 C 
HETATM   10  C   UNL     1     -45.677  58.684 -50.967  1.00  0.00     0.070 C 
HETATM   11  H   UNL     1     -45.136  56.383 -50.029  1.00  0.00     0.184 HD
ENDROOT
BRANCH   7  12
HETATM   12  S   UNL     1     -40.781  53.119 -50.047  1.00  0.00    -0.083 SA
BRANCH  12  13
HETATM   13  C   UNL     1     -39.482  53.103 -51.311  1.00  0.00     0.123 C 
BRANCH  13  14
HETATM   14  C   UNL     1     -39.619  51.901 -52.218  1.00  0.00    -0.027 A 
HETATM   15  C   UNL     1     -39.945  52.007 -53.580  1.00  0.00     0.041 A 
HETATM   16 CL   UNL     1     -40.186  53.534 -54.352  1.00  0.00    -0.084 Cl
HETATM   17  C   UNL     1     -40.093  50.859 -54.368  1.00  0.00     0.024 A 
HETATM   18  C   UNL     1     -39.925  49.593 -53.806  1.00  0.00     0.002 A 
HETATM   19  C   UNL     1     -39.610  49.472 -52.457  1.00  0.00     0.001 A 
HETATM   20  C   UNL     1     -39.460  50.614 -51.669  1.00  0.00     0.009 A 
ENDBRANCH  13  14
ENDBRANCH  12  13
ENDBRANCH   7  12
BRANCH   2  21
HETATM   21  C   UNL     1     -42.621  56.706 -54.066  1.00  0.00    -0.026 A 
HETATM   22  C   UNL     1     -42.253  57.522 -55.150  1.00  0.00     0.033 A 
HETATM   23  C   UNL     1     -42.446  57.084 -56.461  1.00  0.00     0.034 A 
HETATM   24 CL   UNL     1     -41.998  58.101 -57.775  1.00  0.00    -0.084 Cl
HETATM   25  C   UNL     1     -43.002  55.834 -56.715  1.00  0.00     0.024 A 
HETATM   26  C   UNL     1     -43.368  55.010 -55.652  1.00  0.00     0.002 A 
HETATM   27  C   UNL     1     -43.179  55.442 -54.337  1.00  0.00     0.010 A 
ENDBRANCH   2  21
BRANCH   1  28
HETATM   28  C   UNL     1     -43.283  59.562 -52.788  1.00  0.00     0.293 C 
HETATM   29  O   UNL     1     -43.994  60.033 -53.663  1.00  0.00    -0.259 OA
BRANCH  28  30
HETATM   30  O   UNL     1     -42.151  60.137 -52.318  1.00  0.00    -0.318 OA
BRANCH  30  31
HETATM   31  C   UNL     1     -42.122  60.404 -50.907  1.00  0.00     0.174 C 
HETATM   32  C   UNL     1     -40.839  59.882 -50.287  1.00  0.00     0.034 C 
ENDBRANCH  30  31
ENDBRANCH  28  30
ENDBRANCH   1  28
TORSDOF 7
ENDMDL
MODEL 2
REMARK VINA RESULT:      -8.3      3.157      4.691
REMARK  7 active torsions:
REMARK  status: ('A' for Active; 'I' for Inactive)
REMARK    1  A    between atoms: C_2  and  O_3 
REMARK    2  A    between atoms: O_3  and  C_4 
REMARK    3  A    between atoms: C_4  and  C_5 
REMARK    4  A    between atoms: C_6  and  C_7 
REMARK    5  A    between atoms: C_18  and  S_19 
REMARK    6  A    between atoms: S_19  and  C_20 
REMARK    7  A    between atoms: C_20  and  C_21 
ROOT
HETATM    1  C   UNL     1     -42.804  59.330 -56.688  1.00  0.00     0.070 C 
HETATM    2  C   UNL     1     -42.494  57.839 -56.845  1.00  0.00     0.203 C 
HETATM    3  N   UNL     1     -42.794  57.110 -55.609  1.00  0.00    -0.082 N 
HETATM    4  C   UNL     1     -43.560  57.613 -54.596  1.00  0.00     0.726 A 
HETATM    5  N   UNL     1     -44.048  58.864 -54.705  1.00  0.00    -0.192 N 
HETATM    6  N   UNL     1     -42.289  55.905 -55.295  1.00  0.00    -0.128 NA
HETATM    7  C   UNL     1     -42.841  55.708 -54.091  1.00  0.00     0.226 A 
HETATM    8  N   UNL     1     -43.640  56.729 -53.634  1.00  0.00    -0.035 NA
HETATM    9  C   UNL     1     -43.602  59.764 -55.677  1.00  0.00     0.037 C 
HETATM   10  C   UNL     1     -44.084  61.184 -55.501  1.00  0.00     0.070 C 
HETATM   11  H   UNL     1     -44.533  59.258 -53.903  1.00  0.00     0.184 HD
ENDROOT
BRANCH   7  12
HETATM   12  S   UNL     1     -42.498  54.260 -53.191  1.00  0.00    -0.083 SA
BRANCH  12  13
HETATM   13  C   UNL     1     -40.793  53.938 -53.717  1.00  0.00     0.123 C 
BRANCH  13  14
HETATM   14  C   UNL     1     -40.382  52.520 -53.391  1.00  0.00    -0.027 A 
HETATM   15  C   UNL     1     -39.911  52.134 -52.126  1.00  0.00     0.041 A 
HETATM   16 CL   UNL     1     -39.792  53.248 -50.810  1.00  0.00    -0.084 Cl
HETATM   17  C   UNL     1     -39.512  50.814 -51.887  1.00  0.00     0.024 A 
HETATM   18  C   UNL     1     -39.570  49.865 -52.908  1.00  0.00     0.002 A 
HETATM   19  C   UNL     1     -40.027  50.234 -54.169  1.00  0.00     0.001 A 
HETATM   20  C   UNL     1     -40.428  51.548 -54.410  1.00  0.00     0.009 A 
ENDBRANCH  13  14
ENDBRANCH  12  13
ENDBRANCH   7  12
BRANCH   2  21
HETATM   21  C   UNL     1     -43.255  57.199 -58.008  1.00  0.00    -0.026 A 
HETATM   22  C   UNL     1     -44.630  57.447 -58.162  1.00  0.00     0.033 A 
HETATM   23  C   UNL     1     -45.342  56.854 -59.205  1.00  0.00     0.034 A 
HETATM   24 CL   UNL     1     -47.027  57.161 -59.372  1.00  0.00    -0.084 Cl
HETATM   25  C   UNL     1     -44.703  56.010 -60.109  1.00  0.00     0.024 A 
HETATM   26  C   UNL     1     -43.339  55.758 -59.974  1.00  0.00     0.002 A 
HETATM   27  C   UNL     1     -42.619  56.347 -58.932  1.00  0.00     0.010 A 
ENDBRANCH   2  21
BRANCH   1  28
HETATM   28  C   UNL     1     -42.095  60.163 -57.696  1.00  0.00     0.293 C 
HETATM   29  O   UNL     1     -40.968  60.600 -57.518  1.00  0.00    -0.259 OA
BRANCH  28  30
HETATM   30  O   UNL     1     -42.884  60.466 -58.753  1.00  0.00    -0.318 OA
BRANCH  30  31
HETATM   31  C   UNL     1     -42.336  60.180 -60.049  1.00  0.00     0.174 C 
HETATM   32  C   UNL     1     -43.393  59.588 -60.963  1.00  0.00     0.034 C 
ENDBRANCH  30  31
ENDBRANCH  28  30
ENDBRANCH   1  28
TORSDOF 7
ENDMDL
MODEL 3
REMARK VINA RESULT:      -8.3      3.341      6.543
REMARK  7 active torsions:
REMARK  status: ('A' for Active; 'I' for Inactive)
REMARK    1  A    between atoms: C_2  and  O_3 
REMARK    2  A    between atoms: O_3  and  C_4 
REMARK    3  A    between atoms: C_4  and  C_5 
REMARK    4  A    between atoms: C_6  and  C_7 
REMARK    5  A    between atoms: C_18  and  S_19 
REMARK    6  A    between atoms: S_19  and  C_20 
REMARK    7  A    between atoms: C_20  and  C_21 
ROOT
HETATM    1  C   UNL     1     -42.077  56.236 -51.438  1.00  0.00     0.070 C 
HETATM    2  C   UNL     1     -42.741  55.645 -52.685  1.00  0.00     0.203 C 
HETATM    3  N   UNL     1     -43.328  56.701 -53.514  1.00  0.00    -0.082 N 
HETATM    4  C   UNL     1     -43.027  58.027 -53.384  1.00  0.00     0.726 A 
HETATM    5  N   UNL     1     -42.169  58.410 -52.419  1.00  0.00    -0.192 N 
HETATM    6  N   UNL     1     -44.284  56.500 -54.438  1.00  0.00    -0.128 NA
HETATM    7  C   UNL     1     -44.477  57.751 -54.875  1.00  0.00     0.226 A 
HETATM    8  N   UNL     1     -43.712  58.715 -54.262  1.00  0.00    -0.035 NA
HETATM    9  C   UNL     1     -41.771  57.559 -51.383  1.00  0.00     0.037 C 
HETATM   10  C   UNL     1     -41.000  58.226 -50.270  1.00  0.00     0.070 C 
HETATM   11  H   UNL     1     -42.031  59.407 -52.272  1.00  0.00     0.184 HD
ENDROOT
BRANCH   7  12
HETATM   12  S   UNL     1     -45.661  58.081 -56.105  1.00  0.00    -0.083 SA
BRANCH  12  13
HETATM   13  C   UNL     1     -44.586  58.302 -57.548  1.00  0.00     0.123 C 
BRANCH  13  14
HETATM   14  C   UNL     1     -44.767  57.175 -58.539  1.00  0.00    -0.027 A 
HETATM   15  C   UNL     1     -43.932  56.047 -58.572  1.00  0.00     0.041 A 
HETATM   16 CL   UNL     1     -42.635  55.830 -57.451  1.00  0.00    -0.084 Cl
HETATM   17  C   UNL     1     -44.124  55.047 -59.533  1.00  0.00     0.024 A 
HETATM   18  C   UNL     1     -45.144  55.163 -60.476  1.00  0.00     0.002 A 
HETATM   19  C   UNL     1     -45.975  56.279 -60.462  1.00  0.00     0.001 A 
HETATM   20  C   UNL     1     -45.789  57.277 -59.504  1.00  0.00     0.009 A 
ENDBRANCH  13  14
ENDBRANCH  12  13
ENDBRANCH   7  12
BRANCH   2  21
HETATM   21  C   UNL     1     -41.772  54.816 -53.530  1.00  0.00    -0.026 A 
HETATM   22  C   UNL     1     -41.873  53.415 -53.533  1.00  0.00     0.033 A 
HETATM   23  C   UNL     1     -40.984  52.643 -54.282  1.00  0.00     0.034 A 
HETATM   24 CL   UNL     1     -41.117  50.928 -54.266  1.00  0.00    -0.084 Cl
HETATM   25  C   UNL     1     -39.984  53.250 -55.039  1.00  0.00     0.024 A 
HETATM   26  C   UNL     1     -39.873  54.639 -55.051  1.00  0.00     0.002 A 
HETATM   27  C   UNL     1     -40.760  55.418 -54.303  1.00  0.00     0.010 A 
ENDBRANCH   2  21
BRANCH   1  28
HETATM   28  C   UNL     1     -41.899  55.226 -50.361  1.00  0.00     0.293 C 
HETATM   29  O   UNL     1     -42.825  54.817 -49.677  1.00  0.00    -0.259 OA
BRANCH  28  30
HETATM   30  O   UNL     1     -40.596  54.918 -50.163  1.00  0.00    -0.318 OA
BRANCH  30  31
HETATM   31  C   UNL     1     -40.338  53.650 -49.540  1.00  0.00     0.174 C 
HETATM   32  C   UNL     1     -40.161  52.563 -50.584  1.00  0.00     0.034 C 
ENDBRANCH  30  31
ENDBRANCH  28  30
ENDBRANCH   1  28
TORSDOF 7
ENDMDL
MODEL 4
REMARK VINA RESULT:      -7.9      3.488      5.749
REMARK  7 active torsions:
REMARK  status: ('A' for Active; 'I' for Inactive)
REMARK    1  A    between atoms: C_2  and  O_3 
REMARK    2  A    between atoms: O_3  and  C_4 
REMARK    3  A    between atoms: C_4  and  C_5 
REMARK    4  A    between atoms: C_6  and  C_7 
REMARK    5  A    between atoms: C_18  and  S_19 
REMARK    6  A    between atoms: S_19  and  C_20 
REMARK    7  A    between atoms: C_20  and  C_21 
ROOT
HETATM    1  C   UNL     1     -44.225  57.665 -58.018  1.00  0.00     0.070 C 
HETATM    2  C   UNL     1     -44.363  57.611 -56.494  1.00  0.00     0.203 C 
HETATM    3  N   UNL     1     -43.511  56.562 -55.928  1.00  0.00    -0.082 N 
HETATM    4  C   UNL     1     -42.487  55.964 -56.608  1.00  0.00     0.726 A 
HETATM    5  N   UNL     1     -42.257  56.320 -57.887  1.00  0.00    -0.192 N 
HETATM    6  N   UNL     1     -43.683  56.013 -54.714  1.00  0.00    -0.128 NA
HETATM    7  C   UNL     1     -42.686  55.120 -54.698  1.00  0.00     0.226 A 
HETATM    8  N   UNL     1     -41.920  55.071 -55.838  1.00  0.00    -0.035 NA
HETATM    9  C   UNL     1     -43.164  57.078 -58.633  1.00  0.00     0.037 C 
HETATM   10  C   UNL     1     -42.851  57.179 -60.107  1.00  0.00     0.070 C 
HETATM   11  H   UNL     1     -41.557  55.797 -58.408  1.00  0.00     0.184 HD
ENDROOT
BRANCH   7  12
HETATM   12  S   UNL     1     -42.450  54.088 -53.318  1.00  0.00    -0.083 SA
BRANCH  12  13
HETATM   13  C   UNL     1     -40.653  53.856 -53.381  1.00  0.00     0.123 C 
BRANCH  13  14
HETATM   14  C   UNL     1     -40.283  52.409 -53.146  1.00  0.00    -0.027 A 
HETATM   15  C   UNL     1     -39.910  51.912 -51.886  1.00  0.00     0.041 A 
HETATM   16 CL   UNL     1     -39.876  52.912 -50.477  1.00  0.00    -0.084 Cl
HETATM   17  C   UNL     1     -39.545  50.570 -51.730  1.00  0.00     0.024 A 
HETATM   18  C   UNL     1     -39.538  49.710 -52.828  1.00  0.00     0.002 A 
HETATM   19  C   UNL     1     -39.896  50.189 -54.084  1.00  0.00     0.001 A 
HETATM   20  C   UNL     1     -40.264  51.526 -54.243  1.00  0.00     0.009 A 
ENDBRANCH  13  14
ENDBRANCH  12  13
ENDBRANCH   7  12
BRANCH   2  21
HETATM   21  C   UNL     1     -44.034  58.947 -55.826  1.00  0.00    -0.026 A 
HETATM   22  C   UNL     1     -45.056  59.688 -55.208  1.00  0.00     0.033 A 
HETATM   23  C   UNL     1     -44.776  60.919 -54.614  1.00  0.00     0.034 A 
HETATM   24 CL   UNL     1     -46.042  61.817 -53.871  1.00  0.00    -0.084 Cl
HETATM   25  C   UNL     1     -43.481  61.431 -54.621  1.00  0.00     0.024 A 
HETATM   26  C   UNL     1     -42.455  60.707 -55.224  1.00  0.00     0.002 A 
HETATM   27  C   UNL     1     -42.727  59.474 -55.823  1.00  0.00     0.010 A 
ENDBRANCH   2  21
BRANCH   1  28
HETATM   28  C   UNL     1     -45.376  58.347 -58.666  1.00  0.00     0.293 C 
HETATM   29  O   UNL     1     -45.365  59.533 -58.957  1.00  0.00    -0.259 OA
BRANCH  28  30
HETATM   30  O   UNL     1     -46.452  57.533 -58.777  1.00  0.00    -0.318 OA
BRANCH  30  31
HETATM   31  C   UNL     1     -46.835  57.177 -60.115  1.00  0.00     0.174 C 
HETATM   32  C   UNL     1     -46.295  55.806 -60.482  1.00  0.00     0.034 C 
ENDBRANCH  30  31
ENDBRANCH  28  30
ENDBRANCH   1  28
TORSDOF 7
ENDMDL
MODEL 5
REMARK VINA RESULT:      -7.8      3.476      4.604
REMARK  7 active torsions:
REMARK  status: ('A' for Active; 'I' for Inactive)
REMARK    1  A    between atoms: C_2  and  O_3 
REMARK    2  A    between atoms: O_3  and  C_4 
REMARK    3  A    between atoms: C_4  and  C_5 
REMARK    4  A    between atoms: C_6  and  C_7 
REMARK    5  A    between atoms: C_18  and  S_19 
REMARK    6  A    between atoms: S_19  and  C_20 
REMARK    7  A    between atoms: C_20  and  C_21 
ROOT
HETATM    1  C   UNL     1     -43.955  59.526 -57.038  1.00  0.00     0.070 C 
HETATM    2  C   UNL     1     -43.354  58.121 -56.937  1.00  0.00     0.203 C 
HETATM    3  N   UNL     1     -43.711  57.489 -55.665  1.00  0.00    -0.082 N 
HETATM    4  C   UNL     1     -44.711  57.935 -54.848  1.00  0.00     0.726 A 
HETATM    5  N   UNL     1     -45.397  59.040 -55.199  1.00  0.00    -0.192 N 
HETATM    6  N   UNL     1     -43.050  56.455 -55.116  1.00  0.00    -0.128 NA
HETATM    7  C   UNL     1     -43.745  56.285 -53.984  1.00  0.00     0.226 A 
HETATM    8  N   UNL     1     -44.782  57.167 -53.791  1.00  0.00    -0.035 NA
HETATM    9  C   UNL     1     -44.973  59.898 -56.218  1.00  0.00     0.037 C 
HETATM   10  C   UNL     1     -45.730  61.201 -56.312  1.00  0.00     0.070 C 
HETATM   11  H   UNL     1     -46.070  59.414 -54.534  1.00  0.00     0.184 HD
ENDROOT
BRANCH   7  12
HETATM   12  S   UNL     1     -43.292  55.047 -52.850  1.00  0.00    -0.083 SA
BRANCH  12  13
HETATM   13  C   UNL     1     -41.496  55.283 -52.801  1.00  0.00     0.123 C 
BRANCH  13  14
HETATM   14  C   UNL     1     -40.774  53.956 -52.741  1.00  0.00    -0.027 A 
HETATM   15  C   UNL     1     -40.306  53.290 -53.885  1.00  0.00     0.041 A 
HETATM   16 CL   UNL     1     -40.486  53.951 -55.472  1.00  0.00    -0.084 Cl
HETATM   17  C   UNL     1     -39.673  52.046 -53.776  1.00  0.00     0.024 A 
HETATM   18  C   UNL     1     -39.505  51.449 -52.527  1.00  0.00     0.002 A 
HETATM   19  C   UNL     1     -39.971  52.092 -51.385  1.00  0.00     0.001 A 
HETATM   20  C   UNL     1     -40.600  53.333 -51.489  1.00  0.00     0.009 A 
ENDBRANCH  13  14
ENDBRANCH  12  13
ENDBRANCH   7  12
BRANCH   2  21
HETATM   21  C   UNL     1     -43.785  57.213 -58.092  1.00  0.00    -0.026 A 
HETATM   22  C   UNL     1     -45.100  57.284 -58.580  1.00  0.00     0.033 A 
HETATM   23  C   UNL     1     -45.515  56.449 -59.618  1.00  0.00     0.034 A 
HETATM   24 CL   UNL     1     -47.133  56.542 -60.197  1.00  0.00    -0.084 Cl
HETATM   25  C   UNL     1     -44.632  55.535 -60.187  1.00  0.00     0.024 A 
HETATM   26  C   UNL     1     -43.322  55.455 -59.718  1.00  0.00     0.002 A 
HETATM   27  C   UNL     1     -42.900  56.288 -58.679  1.00  0.00     0.010 A 
ENDBRANCH   2  21
BRANCH   1  28
HETATM   28  C   UNL     1     -43.257  60.367 -58.045  1.00  0.00     0.293 C 
HETATM   29  O   UNL     1     -43.719  60.593 -59.154  1.00  0.00    -0.259 OA
BRANCH  28  30
HETATM   30  O   UNL     1     -42.023  60.740 -57.631  1.00  0.00    -0.318 OA
BRANCH  30  31
HETATM   31  C   UNL     1     -41.671  62.113 -57.864  1.00  0.00     0.174 C 
HETATM   32  C   UNL     1     -40.458  62.211 -58.771  1.00  0.00     0.034 C 
ENDBRANCH  30  31
ENDBRANCH  28  30
ENDBRANCH   1  28
TORSDOF 7
ENDMDL
MODEL 6
REMARK VINA RESULT:      -7.7      3.486      6.768
REMARK  7 active torsions:
REMARK  status: ('A' for Active; 'I' for Inactive)
REMARK    1  A    between atoms: C_2  and  O_3 
REMARK    2  A    between atoms: O_3  and  C_4 
REMARK    3  A    between atoms: C_4  and  C_5 
REMARK    4  A    between atoms: C_6  and  C_7 
REMARK    5  A    between atoms: C_18  and  S_19 
REMARK    6  A    between atoms: S_19  and  C_20 
REMARK    7  A    between atoms: C_20  and  C_21 
ROOT
HETATM    1  C   UNL     1     -41.544  57.293 -51.865  1.00  0.00     0.070 C 
HETATM    2  C   UNL     1     -42.127  56.705 -53.154  1.00  0.00     0.203 C 
HETATM    3  N   UNL     1     -42.131  57.702 -54.228  1.00  0.00    -0.082 N 
HETATM    4  C   UNL     1     -41.408  58.860 -54.194  1.00  0.00     0.726 A 
HETATM    5  N   UNL     1     -40.669  59.137 -53.102  1.00  0.00    -0.192 N 
HETATM    6  N   UNL     1     -42.903  57.634 -55.326  1.00  0.00    -0.128 NA
HETATM    7  C   UNL     1     -42.552  58.765 -55.950  1.00  0.00     0.226 A 
HETATM    8  N   UNL     1     -41.624  59.538 -55.292  1.00  0.00    -0.035 NA
HETATM    9  C   UNL     1     -40.803  58.432 -51.903  1.00  0.00     0.037 C 
HETATM   10  C   UNL     1     -40.070  59.029 -50.726  1.00  0.00     0.070 C 
HETATM   11  H   UNL     1     -40.215  60.046 -53.052  1.00  0.00     0.184 HD
ENDROOT
BRANCH   7  12
HETATM   12  S   UNL     1     -43.285  59.199 -57.466  1.00  0.00    -0.083 SA
BRANCH  12  13
HETATM   13  C   UNL     1     -44.768  58.156 -57.428  1.00  0.00     0.123 C 
BRANCH  13  14
HETATM   14  C   UNL     1     -44.757  57.154 -58.559  1.00  0.00    -0.027 A 
HETATM   15  C   UNL     1     -45.771  57.087 -59.529  1.00  0.00     0.041 A 
HETATM   16 CL   UNL     1     -47.113  58.176 -59.533  1.00  0.00    -0.084 Cl
HETATM   17  C   UNL     1     -45.728  56.117 -60.537  1.00  0.00     0.024 A 
HETATM   18  C   UNL     1     -44.681  55.197 -60.586  1.00  0.00     0.002 A 
HETATM   19  C   UNL     1     -43.673  55.246 -59.628  1.00  0.00     0.001 A 
HETATM   20  C   UNL     1     -43.710  56.213 -58.623  1.00  0.00     0.009 A 
ENDBRANCH  13  14
ENDBRANCH  12  13
ENDBRANCH   7  12
BRANCH   2  21
HETATM   21  C   UNL     1     -41.375  55.458 -53.623  1.00  0.00    -0.026 A 
HETATM   22  C   UNL     1     -41.065  54.443 -52.702  1.00  0.00     0.033 A 
HETATM   23  C   UNL     1     -40.362  53.309 -53.110  1.00  0.00     0.034 A 
HETATM   24 CL   UNL     1     -39.982  52.080 -51.966  1.00  0.00    -0.084 Cl
HETATM   25  C   UNL     1     -39.958  53.164 -54.435  1.00  0.00     0.024 A 
HETATM   26  C   UNL     1     -40.262  54.159 -55.362  1.00  0.00     0.002 A 
HETATM   27  C   UNL     1     -40.965  55.298 -54.962  1.00  0.00     0.010 A 
ENDBRANCH   2  21
BRANCH   1  28
HETATM   28  C   UNL     1     -41.944  56.518 -50.661  1.00  0.00     0.293 C 
HETATM   29  O   UNL     1     -41.150  56.190 -49.792  1.00  0.00    -0.259 OA
BRANCH  28  30
HETATM   30  O   UNL     1     -43.240  56.132 -50.711  1.00  0.00    -0.318 OA
BRANCH  30  31
HETATM   31  C   UNL     1     -43.545  54.874 -50.090  1.00  0.00     0.174 C 
HETATM   32  C   UNL     1     -44.110  53.896 -51.104  1.00  0.00     0.034 C 
ENDBRANCH  30  31
ENDBRANCH  28  30
ENDBRANCH   1  28
TORSDOF 7
ENDMDL
MODEL 7
REMARK VINA RESULT:      -7.7      3.628      5.588
REMARK  7 active torsions:
REMARK  status: ('A' for Active; 'I' for Inactive)
REMARK    1  A    between atoms: C_2  and  O_3 
REMARK    2  A    between atoms: O_3  and  C_4 
REMARK    3  A    between atoms: C_4  and  C_5 
REMARK    4  A    between atoms: C_6  and  C_7 
REMARK    5  A    between atoms: C_18  and  S_19 
REMARK    6  A    between atoms: S_19  and  C_20 
REMARK    7  A    between atoms: C_20  and  C_21 
ROOT
HETATM    1  C   UNL     1     -44.654  57.332 -58.321  1.00  0.00     0.070 C 
HETATM    2  C   UNL     1     -44.541  57.656 -56.829  1.00  0.00     0.203 C 
HETATM    3  N   UNL     1     -43.680  56.686 -56.147  1.00  0.00    -0.082 N 
HETATM    4  C   UNL     1     -42.827  55.838 -56.795  1.00  0.00     0.726 A 
HETATM    5  N   UNL     1     -42.788  55.855 -58.142  1.00  0.00    -0.192 N 
HETATM    6  N   UNL     1     -43.686  56.462 -54.822  1.00  0.00    -0.128 NA
HETATM    7  C   UNL     1     -42.762  55.497 -54.727  1.00  0.00     0.226 A 
HETATM    8  N   UNL     1     -42.202  55.097 -55.917  1.00  0.00    -0.035 NA
HETATM    9  C   UNL     1     -43.753  56.506 -58.916  1.00  0.00     0.037 C 
HETATM   10  C   UNL     1     -43.683  56.222 -60.396  1.00  0.00     0.070 C 
HETATM   11  H   UNL     1     -42.222  55.152 -58.611  1.00  0.00     0.184 HD
ENDROOT
BRANCH   7  12
HETATM   12  S   UNL     1     -42.372  54.802 -53.181  1.00  0.00    -0.083 SA
BRANCH  12  13
HETATM   13  C   UNL     1     -40.606  54.460 -53.408  1.00  0.00     0.123 C 
BRANCH  13  14
HETATM   14  C   UNL     1     -40.313  52.985 -53.257  1.00  0.00    -0.027 A 
HETATM   15  C   UNL     1     -39.884  52.412 -52.048  1.00  0.00     0.041 A 
HETATM   16 CL   UNL     1     -39.686  53.346 -50.608  1.00  0.00    -0.084 Cl
HETATM   17  C   UNL     1     -39.595  51.045 -51.972  1.00  0.00     0.024 A 
HETATM   18  C   UNL     1     -39.721  50.234 -53.099  1.00  0.00     0.002 A 
HETATM   19  C   UNL     1     -40.137  50.788 -54.306  1.00  0.00     0.001 A 
HETATM   20  C   UNL     1     -40.429  52.150 -54.386  1.00  0.00     0.009 A 
ENDBRANCH  13  14
ENDBRANCH  12  13
ENDBRANCH   7  12
BRANCH   2  21
HETATM   21  C   UNL     1     -44.015  59.070 -56.572  1.00  0.00    -0.026 A 
HETATM   22  C   UNL     1     -42.917  59.549 -57.305  1.00  0.00     0.033 A 
HETATM   23  C   UNL     1     -42.412  60.827 -57.068  1.00  0.00     0.034 A 
HETATM   24 CL   UNL     1     -41.059  61.393 -57.969  1.00  0.00    -0.084 Cl
HETATM   25  C   UNL     1     -42.989  61.649 -56.103  1.00  0.00     0.024 A 
HETATM   26  C   UNL     1     -44.082  61.192 -55.370  1.00  0.00     0.002 A 
HETATM   27  C   UNL     1     -44.593  59.912 -55.602  1.00  0.00     0.010 A 
ENDBRANCH   2  21
BRANCH   1  28
HETATM   28  C   UNL     1     -45.848  57.960 -58.946  1.00  0.00     0.293 C 
HETATM   29  O   UNL     1     -46.972  57.494 -58.842  1.00  0.00    -0.259 OA
BRANCH  28  30
HETATM   30  O   UNL     1     -45.519  59.019 -59.723  1.00  0.00    -0.318 OA
BRANCH  30  31
HETATM   31  C   UNL     1     -46.140  60.267 -59.380  1.00  0.00     0.174 C 
HETATM   32  C   UNL     1     -45.159  61.416 -59.528  1.00  0.00     0.034 C 
ENDBRANCH  30  31
ENDBRANCH  28  30
ENDBRANCH   1  28
TORSDOF 7
ENDMDL
MODEL 8
REMARK VINA RESULT:      -7.7      4.383      6.392
REMARK  7 active torsions:
REMARK  status: ('A' for Active; 'I' for Inactive)
REMARK    1  A    between atoms: C_2  and  O_3 
REMARK    2  A    between atoms: O_3  and  C_4 
REMARK    3  A    between atoms: C_4  and  C_5 
REMARK    4  A    between atoms: C_6  and  C_7 
REMARK    5  A    between atoms: C_18  and  S_19 
REMARK    6  A    between atoms: S_19  and  C_20 
REMARK    7  A    between atoms: C_20  and  C_21 
ROOT
HETATM    1  C   UNL     1     -45.189  57.504 -58.990  1.00  0.00     0.070 C 
HETATM    2  C   UNL     1     -44.226  58.213 -58.033  1.00  0.00     0.203 C 
HETATM    3  N   UNL     1     -43.419  57.243 -57.289  1.00  0.00    -0.082 N 
HETATM    4  C   UNL     1     -43.290  55.929 -57.644  1.00  0.00     0.726 A 
HETATM    5  N   UNL     1     -43.966  55.473 -58.716  1.00  0.00    -0.192 N 
HETATM    6  N   UNL     1     -42.782  57.507 -56.136  1.00  0.00    -0.128 NA
HETATM    7  C   UNL     1     -42.233  56.315 -55.873  1.00  0.00     0.226 A 
HETATM    8  N   UNL     1     -42.511  55.323 -56.784  1.00  0.00    -0.035 NA
HETATM    9  C   UNL     1     -44.987  56.204 -59.330  1.00  0.00     0.037 C 
HETATM   10  C   UNL     1     -45.785  55.443 -60.361  1.00  0.00     0.070 C 
HETATM   11  H   UNL     1     -43.936  54.474 -58.908  1.00  0.00     0.184 HD
ENDROOT
BRANCH   7  12
HETATM   12  S   UNL     1     -41.280  56.081 -54.437  1.00  0.00    -0.083 SA
BRANCH  12  13
HETATM   13  C   UNL     1     -42.194  54.729 -53.648  1.00  0.00     0.123 C 
BRANCH  13  14
HETATM   14  C   UNL     1     -41.275  53.582 -53.298  1.00  0.00    -0.027 A 
HETATM   15  C   UNL     1     -40.692  53.431 -52.029  1.00  0.00     0.041 A 
HETATM   16 CL   UNL     1     -41.006  54.534 -50.736  1.00  0.00    -0.084 Cl
HETATM   17  C   UNL     1     -39.821  52.367 -51.768  1.00  0.00     0.024 A 
HETATM   18  C   UNL     1     -39.513  51.446 -52.769  1.00  0.00     0.002 A 
HETATM   19  C   UNL     1     -40.076  51.587 -54.034  1.00  0.00     0.001 A 
HETATM   20  C   UNL     1     -40.947  52.644 -54.297  1.00  0.00     0.009 A 
ENDBRANCH  13  14
ENDBRANCH  12  13
ENDBRANCH   7  12
BRANCH   2  21
HETATM   21  C   UNL     1     -43.301  59.197 -58.752  1.00  0.00    -0.026 A 
HETATM   22  C   UNL     1     -43.015  60.441 -58.166  1.00  0.00     0.033 A 
HETATM   23  C   UNL     1     -42.190  61.358 -58.819  1.00  0.00     0.034 A 
HETATM   24 CL   UNL     1     -41.860  62.881 -58.090  1.00  0.00    -0.084 Cl
HETATM   25  C   UNL     1     -41.636  61.053 -60.059  1.00  0.00     0.024 A 
HETATM   26  C   UNL     1     -41.905  59.821 -60.653  1.00  0.00     0.002 A 
HETATM   27  C   UNL     1     -42.730  58.898 -60.005  1.00  0.00     0.010 A 
ENDBRANCH   2  21
BRANCH   1  28
HETATM   28  C   UNL     1     -46.323  58.375 -59.397  1.00  0.00     0.293 C 
HETATM   29  O   UNL     1     -47.283  58.594 -58.673  1.00  0.00    -0.259 OA
BRANCH  28  30
HETATM   30  O   UNL     1     -46.216  58.783 -60.683  1.00  0.00    -0.318 OA
BRANCH  30  31
HETATM   31  C   UNL     1     -46.730  60.092 -60.972  1.00  0.00     0.174 C 
HETATM   32  C   UNL     1     -45.674  61.153 -60.722  1.00  0.00     0.034 C 
ENDBRANCH  30  31
ENDBRANCH  28  30
ENDBRANCH   1  28
TORSDOF 7
ENDMDL
MODEL 9
REMARK VINA RESULT:      -7.5      3.641      6.485
REMARK  7 active torsions:
REMARK  status: ('A' for Active; 'I' for Inactive)
REMARK    1  A    between atoms: C_2  and  O_3 
REMARK    2  A    between atoms: O_3  and  C_4 
REMARK    3  A    between atoms: C_4  and  C_5 
REMARK    4  A    between atoms: C_6  and  C_7 
REMARK    5  A    between atoms: C_18  and  S_19 
REMARK    6  A    between atoms: S_19  and  C_20 
REMARK    7  A    between atoms: C_20  and  C_21 
ROOT
HETATM    1  C   UNL     1     -42.978  57.828 -52.163  1.00  0.00     0.070 C 
HETATM    2  C   UNL     1     -43.491  57.586 -53.586  1.00  0.00     0.203 C 
HETATM    3  N   UNL     1     -43.006  58.623 -54.500  1.00  0.00    -0.082 N 
HETATM    4  C   UNL     1     -41.974  59.471 -54.211  1.00  0.00     0.726 A 
HETATM    5  N   UNL     1     -41.380  59.388 -53.005  1.00  0.00    -0.192 N 
HETATM    6  N   UNL     1     -43.565  58.913 -55.687  1.00  0.00    -0.128 NA
HETATM    7  C   UNL     1     -42.781  59.919 -56.095  1.00  0.00     0.226 A 
HETATM    8  N   UNL     1     -41.783  60.280 -55.221  1.00  0.00    -0.035 NA
HETATM    9  C   UNL     1     -41.925  58.659 -51.944  1.00  0.00     0.037 C 
HETATM   10  C   UNL     1     -41.250  58.871 -50.610  1.00  0.00     0.070 C 
HETATM   11  H   UNL     1     -40.681  60.089 -52.769  1.00  0.00     0.184 HD
ENDROOT
BRANCH   7  12
HETATM   12  S   UNL     1     -43.079  60.707 -57.616  1.00  0.00    -0.083 SA
BRANCH  12  13
HETATM   13  C   UNL     1     -42.015  59.729 -58.711  1.00  0.00     0.123 C 
BRANCH  13  14
HETATM   14  C   UNL     1     -42.666  58.412 -59.069  1.00  0.00    -0.027 A 
HETATM   15  C   UNL     1     -43.606  58.283 -60.105  1.00  0.00     0.041 A 
HETATM   16 CL   UNL     1     -44.077  59.621 -61.091  1.00  0.00    -0.084 Cl
HETATM   17  C   UNL     1     -44.203  57.046 -60.373  1.00  0.00     0.024 A 
HETATM   18  C   UNL     1     -43.879  55.926 -59.608  1.00  0.00     0.002 A 
HETATM   19  C   UNL     1     -42.956  56.040 -58.573  1.00  0.00     0.001 A 
HETATM   20  C   UNL     1     -42.356  57.271 -58.304  1.00  0.00     0.009 A 
ENDBRANCH  13  14
ENDBRANCH  12  13
ENDBRANCH   7  12
BRANCH   2  21
HETATM   21  C   UNL     1     -43.096  56.209 -54.126  1.00  0.00    -0.026 A 
HETATM   22  C   UNL     1     -41.739  55.900 -54.321  1.00  0.00     0.033 A 
HETATM   23  C   UNL     1     -41.364  54.657 -54.833  1.00  0.00     0.034 A 
HETATM   24 CL   UNL     1     -39.699  54.299 -55.075  1.00  0.00    -0.084 Cl
HETATM   25  C   UNL     1     -42.328  53.704 -55.156  1.00  0.00     0.024 A 
HETATM   26  C   UNL     1     -43.677  53.993 -54.963  1.00  0.00     0.002 A 
HETATM   27  C   UNL     1     -44.060  55.235 -54.452  1.00  0.00     0.010 A 
ENDBRANCH   2  21
BRANCH   1  28
HETATM   28  C   UNL     1     -43.794  57.121 -51.141  1.00  0.00     0.293 C 
HETATM   29  O   UNL     1     -44.916  57.484 -50.822  1.00  0.00    -0.259 OA
BRANCH  28  30
HETATM   30  O   UNL     1     -43.105  56.123 -50.540  1.00  0.00    -0.318 OA
BRANCH  30  31
HETATM   31  C   UNL     1     -43.619  54.797 -50.737  1.00  0.00     0.174 C 
HETATM   32  C   UNL     1     -42.540  53.876 -51.277  1.00  0.00     0.034 C 
ENDBRANCH  30  31
ENDBRANCH  28  30
ENDBRANCH   1  28
TORSDOF 7
ENDMDL
MODEL 10
REMARK VINA RESULT:      -7.5      3.618      7.165
REMARK  7 active torsions:
REMARK  status: ('A' for Active; 'I' for Inactive)
REMARK    1  A    between atoms: C_2  and  O_3 
REMARK    2  A    between atoms: O_3  and  C_4 
REMARK    3  A    between atoms: C_4  and  C_5 
REMARK    4  A    between atoms: C_6  and  C_7 
REMARK    5  A    between atoms: C_18  and  S_19 
REMARK    6  A    between atoms: S_19  and  C_20 
REMARK    7  A    between atoms: C_20  and  C_21 
ROOT
HETATM    1  C   UNL     1     -42.064  55.387 -51.537  1.00  0.00     0.070 C 
HETATM    2  C   UNL     1     -41.470  56.532 -52.361  1.00  0.00     0.203 C 
HETATM    3  N   UNL     1     -42.158  56.664 -53.648  1.00  0.00    -0.082 N 
HETATM    4  C   UNL     1     -43.368  56.092 -53.925  1.00  0.00     0.726 A 
HETATM    5  N   UNL     1     -43.960  55.329 -52.985  1.00  0.00    -0.192 N 
HETATM    6  N   UNL     1     -41.649  57.288 -54.723  1.00  0.00    -0.128 NA
HETATM    7  C   UNL     1     -42.636  57.106 -55.610  1.00  0.00     0.226 A 
HETATM    8  N   UNL     1     -43.716  56.388 -55.151  1.00  0.00    -0.035 NA
HETATM    9  C   UNL     1     -43.289  54.883 -51.843  1.00  0.00     0.037 C 
HETATM   10  C   UNL     1     -44.032  53.853 -51.028  1.00  0.00     0.070 C 
HETATM   11  H   UNL     1     -44.811  54.833 -53.242  1.00  0.00     0.184 HD
ENDROOT
BRANCH   7  12
HETATM   12  S   UNL     1     -42.489  57.719 -57.230  1.00  0.00    -0.083 SA
BRANCH  12  13
HETATM   13  C   UNL     1     -43.182  56.334 -58.173  1.00  0.00     0.123 C 
BRANCH  13  14
HETATM   14  C   UNL     1     -44.480  56.726 -58.841  1.00  0.00    -0.027 A 
HETATM   15  C   UNL     1     -45.228  55.839 -59.634  1.00  0.00     0.041 A 
HETATM   16 CL   UNL     1     -44.742  54.201 -59.888  1.00  0.00    -0.084 Cl
HETATM   17  C   UNL     1     -46.408  56.264 -60.256  1.00  0.00     0.024 A 
HETATM   18  C   UNL     1     -46.851  57.577 -60.104  1.00  0.00     0.002 A 
HETATM   19  C   UNL     1     -46.117  58.469 -59.328  1.00  0.00     0.001 A 
HETATM   20  C   UNL     1     -44.943  58.049 -58.704  1.00  0.00     0.009 A 
ENDBRANCH  13  14
ENDBRANCH  12  13
ENDBRANCH   7  12
BRANCH   2  21
HETATM   21  C   UNL     1     -41.514  57.873 -51.623  1.00  0.00    -0.026 A 
HETATM   22  C   UNL     1     -42.729  58.571 -51.520  1.00  0.00     0.033 A 
HETATM   23  C   UNL     1     -42.782  59.804 -50.869  1.00  0.00     0.034 A 
HETATM   24 CL   UNL     1     -44.276  60.650 -50.761  1.00  0.00    -0.084 Cl
HETATM   25  C   UNL     1     -41.634  60.360 -50.311  1.00  0.00     0.024 A 
HETATM   26  C   UNL     1     -40.422  59.678 -50.400  1.00  0.00     0.002 A 
HETATM   27  C   UNL     1     -40.360  58.443 -51.051  1.00  0.00     0.010 A 
ENDBRANCH   2  21
BRANCH   1  28
HETATM   28  C   UNL     1     -41.134  54.910 -50.480  1.00  0.00     0.293 C 
HETATM   29  O   UNL     1     -41.237  55.242 -49.308  1.00  0.00    -0.259 OA
BRANCH  28  30
HETATM   30  O   UNL     1     -40.116  54.179 -50.989  1.00  0.00    -0.318 OA
BRANCH  30  31
HETATM   31  C   UNL     1     -40.492  53.093 -51.851  1.00  0.00     0.174 C 
HETATM   32  C   UNL     1     -39.516  51.938 -51.719  1.00  0.00     0.034 C 
ENDBRANCH  30  31
ENDBRANCH  28  30
ENDBRANCH   1  28
TORSDOF 7
ENDMDL
