MODEL 1
REMARK VINA RESULT:      -8.1      0.000      0.000
REMARK  5 active torsions:
REMARK  status: ('A' for Active; 'I' for Inactive)
REMARK    1  A    between atoms: C_3  and  C_4 
REMARK    2  A    between atoms: C_9  and  N_10 
REMARK       I    between atoms: N_10  and  C_11 
REMARK    3  A    between atoms: C_11  and  C_12 
REMARK    4  A    between atoms: C_14  and  C_15 
REMARK    5  A    between atoms: C_17  and  O_18 
ROOT
HETATM    1  C   UNL     1     -42.688  55.558 -55.907  1.00  0.00     0.149 A 
HETATM    2  N   UNL     1     -41.706  54.608 -55.645  1.00  0.00    -0.223 NA
HETATM    3  C   UNL     1     -41.832  54.284 -54.369  1.00  0.00     0.139 A 
HETATM    4  N   UNL     1     -42.848  55.017 -53.799  1.00  0.00    -0.342 N 
HETATM    5  H   UNL     1     -43.116  54.979 -52.826  1.00  0.00     0.167 HD
HETATM    6  C   UNL     1     -43.402  55.827 -54.754  1.00  0.00     0.041 A 
HETATM    7  C   UNL     1     -44.520  56.757 -54.478  1.00  0.00     0.071 C 
ENDROOT
BRANCH   1   8
HETATM    8  C   UNL     1     -42.884  56.159 -57.236  1.00  0.00     0.276 C 
HETATM    9  N   UNL     1     -42.184  57.343 -57.360  1.00  0.00    -0.322 N 
HETATM   10  H   UNL     1     -41.650  57.590 -56.530  1.00  0.00     0.169 HD
HETATM   11  O   UNL     1     -43.587  55.631 -58.088  1.00  0.00    -0.266 OA
BRANCH   9  12
HETATM   12  C   UNL     1     -42.140  58.213 -58.465  1.00  0.00     0.035 A 
HETATM   13  C   UNL     1     -41.841  57.802 -59.762  1.00  0.00     0.030 A 
HETATM   14  C   UNL     1     -41.840  58.720 -60.817  1.00  0.00     0.018 A 
HETATM   15  C   UNL     1     -42.129  60.073 -60.590  1.00  0.00     0.015 A 
HETATM   16  C   UNL     1     -42.418  60.509 -59.282  1.00  0.00    -0.046 A 
HETATM   17  C   UNL     1     -42.739  61.944 -58.960  1.00  0.00     0.049 C 
HETATM   18  C   UNL     1     -42.427  59.564 -58.236  1.00  0.00     0.037 A 
BRANCH  15  19
HETATM   19  C   UNL     1     -42.150  61.011 -61.755  1.00  0.00     0.156 C 
HETATM   20  C   UNL     1     -43.394  61.070 -62.605  1.00  0.00     0.097 C 
HETATM   21  O   UNL     1     -41.187  61.736 -61.993  1.00  0.00    -0.293 OA
ENDBRANCH  15  19
ENDBRANCH   9  12
ENDBRANCH   1   8
BRANCH   3  22
HETATM   22  C   UNL     1     -41.007  53.330 -53.621  1.00  0.00     0.013 A 
HETATM   23  C   UNL     1     -40.989  53.381 -52.217  1.00  0.00     0.052 A 
HETATM   24  C   UNL     1     -40.235  52.467 -51.479  1.00  0.00     0.069 A 
HETATM   25  C   UNL     1     -39.479  51.504 -52.149  1.00  0.00     0.037 A 
HETATM   26  C   UNL     1     -39.473  51.448 -53.541  1.00  0.00     0.004 A 
HETATM   27  C   UNL     1     -40.235  52.358 -54.275  1.00  0.00     0.015 A 
BRANCH  24  28
HETATM   28  O   UNL     1     -40.150  52.406 -50.114  1.00  0.00    -0.356 OA
HETATM   29  C   UNL     1     -40.315  53.627 -49.405  1.00  0.00     0.210 C 
ENDBRANCH  24  28
ENDBRANCH   3  22
TORSDOF 5
ENDMDL
MODEL 2
REMARK VINA RESULT:      -7.9      1.646      9.616
REMARK  5 active torsions:
REMARK  status: ('A' for Active; 'I' for Inactive)
REMARK    1  A    between atoms: C_3  and  C_4 
REMARK    2  A    between atoms: C_9  and  N_10 
REMARK       I    between atoms: N_10  and  C_11 
REMARK    3  A    between atoms: C_11  and  C_12 
REMARK    4  A    between atoms: C_14  and  C_15 
REMARK    5  A    between atoms: C_17  and  O_18 
ROOT
HETATM    1  C   UNL     1     -42.787  56.432 -57.437  1.00  0.00     0.149 A 
HETATM    2  N   UNL     1     -42.250  57.714 -57.511  1.00  0.00    -0.223 NA
HETATM    3  C   UNL     1     -42.459  58.135 -58.747  1.00  0.00     0.139 A 
HETATM    4  N   UNL     1     -43.092  57.153 -59.474  1.00  0.00    -0.342 N 
HETATM    5  H   UNL     1     -43.328  57.217 -60.455  1.00  0.00     0.167 HD
HETATM    6  C   UNL     1     -43.309  56.070 -58.665  1.00  0.00     0.041 A 
HETATM    7  C   UNL     1     -43.966  54.828 -59.133  1.00  0.00     0.071 C 
ENDROOT
BRANCH   1   8
HETATM    8  C   UNL     1     -42.766  55.628 -56.206  1.00  0.00     0.276 C 
HETATM    9  N   UNL     1     -41.477  55.277 -55.856  1.00  0.00    -0.322 N 
HETATM   10  H   UNL     1     -40.770  55.640 -56.491  1.00  0.00     0.169 HD
HETATM   11  O   UNL     1     -43.793  55.336 -55.605  1.00  0.00    -0.266 OA
BRANCH   9  12
HETATM   12  C   UNL     1     -41.056  54.498 -54.764  1.00  0.00     0.035 A 
HETATM   13  C   UNL     1     -40.918  54.990 -53.468  1.00  0.00     0.030 A 
HETATM   14  C   UNL     1     -40.518  54.149 -52.426  1.00  0.00     0.018 A 
HETATM   15  C   UNL     1     -40.237  52.797 -52.663  1.00  0.00     0.015 A 
HETATM   16  C   UNL     1     -40.356  52.285 -53.970  1.00  0.00    -0.046 A 
HETATM   17  C   UNL     1     -40.073  50.845 -54.304  1.00  0.00     0.049 C 
HETATM   18  C   UNL     1     -40.774  53.147 -55.004  1.00  0.00     0.037 A 
BRANCH  15  19
HETATM   19  C   UNL     1     -39.846  51.928 -51.510  1.00  0.00     0.156 C 
HETATM   20  C   UNL     1     -40.472  52.198 -50.165  1.00  0.00     0.097 C 
HETATM   21  O   UNL     1     -39.057  51.000 -51.664  1.00  0.00    -0.293 OA
ENDBRANCH  15  19
ENDBRANCH   9  12
ENDBRANCH   1   8
BRANCH   3  22
HETATM   22  C   UNL     1     -42.055  59.425 -59.314  1.00  0.00     0.013 A 
HETATM   23  C   UNL     1     -41.584  60.439 -58.463  1.00  0.00     0.052 A 
HETATM   24  C   UNL     1     -41.166  61.668 -58.979  1.00  0.00     0.069 A 
HETATM   25  C   UNL     1     -41.233  61.892 -60.355  1.00  0.00     0.037 A 
HETATM   26  C   UNL     1     -41.711  60.902 -61.212  1.00  0.00     0.004 A 
HETATM   27  C   UNL     1     -42.121  59.673 -60.693  1.00  0.00     0.015 A 
BRANCH  24  28
HETATM   28  O   UNL     1     -40.676  62.721 -58.256  1.00  0.00    -0.356 OA
HETATM   29  C   UNL     1     -39.837  63.640 -58.946  1.00  0.00     0.210 C 
ENDBRANCH  24  28
ENDBRANCH   3  22
TORSDOF 5
ENDMDL
MODEL 3
REMARK VINA RESULT:      -7.7      4.283      6.661
REMARK  5 active torsions:
REMARK  status: ('A' for Active; 'I' for Inactive)
REMARK    1  A    between atoms: C_3  and  C_4 
REMARK    2  A    between atoms: C_9  and  N_10 
REMARK       I    between atoms: N_10  and  C_11 
REMARK    3  A    between atoms: C_11  and  C_12 
REMARK    4  A    between atoms: C_14  and  C_15 
REMARK    5  A    between atoms: C_17  and  O_18 
ROOT
HETATM    1  C   UNL     1     -41.246  55.911 -53.850  1.00  0.00     0.149 A 
HETATM    2  N   UNL     1     -40.711  54.824 -53.165  1.00  0.00    -0.223 NA
HETATM    3  C   UNL     1     -40.805  53.787 -53.980  1.00  0.00     0.139 A 
HETATM    4  N   UNL     1     -41.407  54.170 -55.157  1.00  0.00    -0.342 N 
HETATM    5  H   UNL     1     -41.626  53.551 -55.925  1.00  0.00     0.167 HD
HETATM    6  C   UNL     1     -41.693  55.507 -55.095  1.00  0.00     0.041 A 
HETATM    7  C   UNL     1     -42.353  56.245 -56.195  1.00  0.00     0.071 C 
ENDROOT
BRANCH   1   8
HETATM    8  C   UNL     1     -41.308  57.264 -53.278  1.00  0.00     0.276 C 
HETATM    9  N   UNL     1     -42.370  57.393 -52.404  1.00  0.00    -0.322 N 
HETATM   10  H   UNL     1     -42.913  56.540 -52.295  1.00  0.00     0.169 HD
HETATM   11  O   UNL     1     -40.493  58.130 -53.571  1.00  0.00    -0.266 OA
BRANCH   9  12
HETATM   12  C   UNL     1     -42.767  58.534 -51.683  1.00  0.00     0.035 A 
HETATM   13  C   UNL     1     -41.896  59.313 -50.925  1.00  0.00     0.030 A 
HETATM   14  C   UNL     1     -42.359  60.449 -50.254  1.00  0.00     0.018 A 
HETATM   15  C   UNL     1     -43.708  60.823 -50.322  1.00  0.00     0.015 A 
HETATM   16  C   UNL     1     -44.606  60.039 -51.072  1.00  0.00    -0.046 A 
HETATM   17  C   UNL     1     -46.068  60.375 -51.195  1.00  0.00     0.049 C 
HETATM   18  C   UNL     1     -44.116  58.904 -51.752  1.00  0.00     0.037 A 
BRANCH  15  19
HETATM   19  C   UNL     1     -44.149  62.066 -49.617  1.00  0.00     0.156 C 
HETATM   20  C   UNL     1     -44.652  61.945 -48.201  1.00  0.00     0.097 C 
HETATM   21  O   UNL     1     -44.074  63.160 -50.169  1.00  0.00    -0.293 OA
ENDBRANCH  15  19
ENDBRANCH   9  12
ENDBRANCH   1   8
BRANCH   3  22
HETATM   22  C   UNL     1     -40.387  52.410 -53.698  1.00  0.00     0.013 A 
HETATM   23  C   UNL     1     -40.000  52.057 -52.393  1.00  0.00     0.052 A 
HETATM   24  C   UNL     1     -39.625  50.746 -52.090  1.00  0.00     0.069 A 
HETATM   25  C   UNL     1     -39.620  49.784 -53.102  1.00  0.00     0.037 A 
HETATM   26  C   UNL     1     -39.985  50.121 -54.404  1.00  0.00     0.004 A 
HETATM   27  C   UNL     1     -40.367  51.429 -54.700  1.00  0.00     0.015 A 
BRANCH  24  28
HETATM   28  O   UNL     1     -39.246  50.279 -50.861  1.00  0.00    -0.356 OA
HETATM   29  C   UNL     1     -40.237  50.277 -49.841  1.00  0.00     0.210 C 
ENDBRANCH  24  28
ENDBRANCH   3  22
TORSDOF 5
ENDMDL
MODEL 4
REMARK VINA RESULT:      -7.7     15.813     19.830
REMARK  5 active torsions:
REMARK  status: ('A' for Active; 'I' for Inactive)
REMARK    1  A    between atoms: C_3  and  C_4 
REMARK    2  A    between atoms: C_9  and  N_10 
REMARK       I    between atoms: N_10  and  C_11 
REMARK    3  A    between atoms: C_11  and  C_12 
REMARK    4  A    between atoms: C_14  and  C_15 
REMARK    5  A    between atoms: C_17  and  O_18 
ROOT
HETATM    1  C   UNL     1     -36.465  41.343 -53.779  1.00  0.00     0.149 A 
HETATM    2  N   UNL     1     -36.067  41.323 -55.112  1.00  0.00    -0.223 NA
HETATM    3  C   UNL     1     -37.175  41.243 -55.830  1.00  0.00     0.139 A 
HETATM    4  N   UNL     1     -38.269  41.186 -54.997  1.00  0.00    -0.342 N 
HETATM    5  H   UNL     1     -39.226  41.084 -55.303  1.00  0.00     0.167 HD
HETATM    6  C   UNL     1     -37.842  41.249 -53.698  1.00  0.00     0.041 A 
HETATM    7  C   UNL     1     -38.763  41.205 -52.540  1.00  0.00     0.071 C 
ENDROOT
BRANCH   1   8
HETATM    8  C   UNL     1     -35.512  41.444 -52.663  1.00  0.00     0.276 C 
HETATM    9  N   UNL     1     -35.008  40.206 -52.318  1.00  0.00    -0.322 N 
HETATM   10  H   UNL     1     -35.366  39.446 -52.893  1.00  0.00     0.169 HD
HETATM   11  O   UNL     1     -35.234  42.518 -52.143  1.00  0.00    -0.266 OA
BRANCH   9  12
HETATM   12  C   UNL     1     -34.097  39.895 -51.293  1.00  0.00     0.035 A 
HETATM   13  C   UNL     1     -32.745  40.227 -51.332  1.00  0.00     0.030 A 
HETATM   14  C   UNL     1     -31.902  39.906 -50.263  1.00  0.00     0.018 A 
HETATM   15  C   UNL     1     -32.397  39.236 -49.136  1.00  0.00     0.015 A 
HETATM   16  C   UNL     1     -33.758  38.879 -49.086  1.00  0.00    -0.046 A 
HETATM   17  C   UNL     1     -34.364  38.160 -47.910  1.00  0.00     0.049 C 
HETATM   18  C   UNL     1     -34.593  39.223 -50.168  1.00  0.00     0.037 A 
BRANCH  15  19
HETATM   19  C   UNL     1     -31.465  38.946 -48.003  1.00  0.00     0.156 C 
HETATM   20  C   UNL     1     -30.914  40.106 -47.213  1.00  0.00     0.097 C 
HETATM   21  O   UNL     1     -31.180  37.788 -47.706  1.00  0.00    -0.293 OA
ENDBRANCH  15  19
ENDBRANCH   9  12
ENDBRANCH   1   8
BRANCH   3  22
HETATM   22  C   UNL     1     -37.269  41.175 -57.292  1.00  0.00     0.013 A 
HETATM   23  C   UNL     1     -37.615  39.960 -57.908  1.00  0.00     0.052 A 
HETATM   24  C   UNL     1     -37.740  39.874 -59.297  1.00  0.00     0.069 A 
HETATM   25  C   UNL     1     -37.501  41.006 -60.077  1.00  0.00     0.037 A 
HETATM   26  C   UNL     1     -37.142  42.215 -59.484  1.00  0.00     0.004 A 
HETATM   27  C   UNL     1     -37.026  42.299 -58.096  1.00  0.00     0.015 A 
BRANCH  24  28
HETATM   28  O   UNL     1     -38.085  38.758 -60.008  1.00  0.00    -0.356 OA
HETATM   29  C   UNL     1     -38.111  38.880 -61.424  1.00  0.00     0.210 C 
ENDBRANCH  24  28
ENDBRANCH   3  22
TORSDOF 5
ENDMDL
MODEL 5
REMARK VINA RESULT:      -7.6      5.744      9.564
REMARK  5 active torsions:
REMARK  status: ('A' for Active; 'I' for Inactive)
REMARK    1  A    between atoms: C_3  and  C_4 
REMARK    2  A    between atoms: C_9  and  N_10 
REMARK       I    between atoms: N_10  and  C_11 
REMARK    3  A    between atoms: C_11  and  C_12 
REMARK    4  A    between atoms: C_14  and  C_15 
REMARK    5  A    between atoms: C_17  and  O_18 
ROOT
HETATM    1  C   UNL     1     -41.809  59.879 -52.659  1.00  0.00     0.149 A 
HETATM    2  N   UNL     1     -42.048  60.350 -51.372  1.00  0.00    -0.223 NA
HETATM    3  C   UNL     1     -42.819  61.417 -51.502  1.00  0.00     0.139 A 
HETATM    4  N   UNL     1     -43.061  61.658 -52.835  1.00  0.00    -0.342 N 
HETATM    5  H   UNL     1     -43.593  62.437 -53.197  1.00  0.00     0.167 HD
HETATM    6  C   UNL     1     -42.433  60.698 -53.582  1.00  0.00     0.041 A 
HETATM    7  C   UNL     1     -42.482  60.663 -55.062  1.00  0.00     0.071 C 
ENDROOT
BRANCH   1   8
HETATM    8  C   UNL     1     -40.997  58.685 -52.934  1.00  0.00     0.276 C 
HETATM    9  N   UNL     1     -41.749  57.531 -52.837  1.00  0.00    -0.322 N 
HETATM   10  H   UNL     1     -42.726  57.700 -52.607  1.00  0.00     0.169 HD
HETATM   11  O   UNL     1     -39.806  58.761 -53.213  1.00  0.00    -0.266 OA
BRANCH   9  12
HETATM   12  C   UNL     1     -41.324  56.201 -53.006  1.00  0.00     0.035 A 
HETATM   13  C   UNL     1     -40.830  55.692 -54.205  1.00  0.00     0.030 A 
HETATM   14  C   UNL     1     -40.403  54.364 -54.292  1.00  0.00     0.018 A 
HETATM   15  C   UNL     1     -40.471  53.514 -53.180  1.00  0.00     0.015 A 
HETATM   16  C   UNL     1     -40.982  54.007 -51.963  1.00  0.00    -0.046 A 
HETATM   17  C   UNL     1     -41.086  53.157 -50.725  1.00  0.00     0.049 C 
HETATM   18  C   UNL     1     -41.395  55.352 -51.893  1.00  0.00     0.037 A 
BRANCH  15  19
HETATM   19  C   UNL     1     -39.969  52.111 -53.312  1.00  0.00     0.156 C 
HETATM   20  C   UNL     1     -40.524  51.254 -54.422  1.00  0.00     0.097 C 
HETATM   21  O   UNL     1     -39.106  51.680 -52.553  1.00  0.00    -0.293 OA
ENDBRANCH  15  19
ENDBRANCH   9  12
ENDBRANCH   1   8
BRANCH   3  22
HETATM   22  C   UNL     1     -43.325  62.270 -50.423  1.00  0.00     0.013 A 
HETATM   23  C   UNL     1     -44.252  61.749 -49.504  1.00  0.00     0.052 A 
HETATM   24  C   UNL     1     -44.729  62.531 -48.449  1.00  0.00     0.069 A 
HETATM   25  C   UNL     1     -44.288  63.849 -48.320  1.00  0.00     0.037 A 
HETATM   26  C   UNL     1     -43.381  64.386 -49.231  1.00  0.00     0.004 A 
HETATM   27  C   UNL     1     -42.901  63.599 -50.278  1.00  0.00     0.015 A 
BRANCH  24  28
HETATM   28  O   UNL     1     -45.616  62.132 -47.487  1.00  0.00    -0.356 OA
HETATM   29  C   UNL     1     -45.082  61.438 -46.367  1.00  0.00     0.210 C 
ENDBRANCH  24  28
ENDBRANCH   3  22
TORSDOF 5
ENDMDL
MODEL 6
REMARK VINA RESULT:      -7.6      1.627      2.328
REMARK  5 active torsions:
REMARK  status: ('A' for Active; 'I' for Inactive)
REMARK    1  A    between atoms: C_3  and  C_4 
REMARK    2  A    between atoms: C_9  and  N_10 
REMARK       I    between atoms: N_10  and  C_11 
REMARK    3  A    between atoms: C_11  and  C_12 
REMARK    4  A    between atoms: C_14  and  C_15 
REMARK    5  A    between atoms: C_17  and  O_18 
ROOT
HETATM    1  C   UNL     1     -43.058  56.297 -54.048  1.00  0.00     0.149 A 
HETATM    2  N   UNL     1     -42.229  55.181 -54.112  1.00  0.00    -0.223 NA
HETATM    3  C   UNL     1     -42.043  54.783 -52.864  1.00  0.00     0.139 A 
HETATM    4  N   UNL     1     -42.707  55.625 -52.002  1.00  0.00    -0.342 N 
HETATM    5  H   UNL     1     -42.689  55.555 -50.994  1.00  0.00     0.167 HD
HETATM    6  C   UNL     1     -43.354  56.587 -52.729  1.00  0.00     0.041 A 
HETATM    7  C   UNL     1     -44.163  57.662 -52.111  1.00  0.00     0.071 C 
ENDROOT
BRANCH   1   8
HETATM    8  C   UNL     1     -43.511  57.024 -55.243  1.00  0.00     0.276 C 
HETATM    9  N   UNL     1     -42.484  57.191 -56.151  1.00  0.00    -0.322 N 
HETATM   10  H   UNL     1     -41.604  56.778 -55.850  1.00  0.00     0.169 HD
HETATM   11  O   UNL     1     -44.668  57.408 -55.368  1.00  0.00    -0.266 OA
BRANCH   9  12
HETATM   12  C   UNL     1     -42.521  57.850 -57.393  1.00  0.00     0.035 A 
HETATM   13  C   UNL     1     -42.999  57.269 -58.564  1.00  0.00     0.030 A 
HETATM   14  C   UNL     1     -43.028  57.995 -59.759  1.00  0.00     0.018 A 
HETATM   15  C   UNL     1     -42.569  59.318 -59.805  1.00  0.00     0.015 A 
HETATM   16  C   UNL     1     -42.069  59.918 -58.633  1.00  0.00    -0.046 A 
HETATM   17  C   UNL     1     -41.559  61.334 -58.602  1.00  0.00     0.049 C 
HETATM   18  C   UNL     1     -42.060  59.172 -57.437  1.00  0.00     0.037 A 
BRANCH  15  19
HETATM   19  C   UNL     1     -42.654  60.066 -61.097  1.00  0.00     0.156 C 
HETATM   20  C   UNL     1     -43.960  60.727 -61.459  1.00  0.00     0.097 C 
HETATM   21  O   UNL     1     -41.673  60.164 -61.830  1.00  0.00    -0.293 OA
ENDBRANCH  15  19
ENDBRANCH   9  12
ENDBRANCH   1   8
BRANCH   3  22
HETATM   22  C   UNL     1     -41.225  53.651 -52.418  1.00  0.00     0.013 A 
HETATM   23  C   UNL     1     -40.595  52.832 -53.371  1.00  0.00     0.052 A 
HETATM   24  C   UNL     1     -39.787  51.765 -52.973  1.00  0.00     0.069 A 
HETATM   25  C   UNL     1     -39.619  51.503 -51.613  1.00  0.00     0.037 A 
HETATM   26  C   UNL     1     -40.248  52.295 -50.654  1.00  0.00     0.004 A 
HETATM   27  C   UNL     1     -41.048  53.366 -51.056  1.00  0.00     0.015 A 
BRANCH  24  28
HETATM   28  O   UNL     1     -39.112  50.911 -53.803  1.00  0.00    -0.356 OA
HETATM   29  C   UNL     1     -39.876  49.894 -54.438  1.00  0.00     0.210 C 
ENDBRANCH  24  28
ENDBRANCH   3  22
TORSDOF 5
ENDMDL
MODEL 7
REMARK VINA RESULT:      -7.5      1.632      9.569
REMARK  5 active torsions:
REMARK  status: ('A' for Active; 'I' for Inactive)
REMARK    1  A    between atoms: C_3  and  C_4 
REMARK    2  A    between atoms: C_9  and  N_10 
REMARK       I    between atoms: N_10  and  C_11 
REMARK    3  A    between atoms: C_11  and  C_12 
REMARK    4  A    between atoms: C_14  and  C_15 
REMARK    5  A    between atoms: C_17  and  O_18 
ROOT
HETATM    1  C   UNL     1     -42.923  57.392 -57.295  1.00  0.00     0.149 A 
HETATM    2  N   UNL     1     -42.126  57.972 -58.278  1.00  0.00    -0.223 NA
HETATM    3  C   UNL     1     -42.616  59.181 -58.489  1.00  0.00     0.139 A 
HETATM    4  N   UNL     1     -43.719  59.384 -57.691  1.00  0.00    -0.342 N 
HETATM    5  H   UNL     1     -44.293  60.216 -57.695  1.00  0.00     0.167 HD
HETATM    6  C   UNL     1     -43.928  58.267 -56.929  1.00  0.00     0.041 A 
HETATM    7  C   UNL     1     -45.041  58.144 -55.960  1.00  0.00     0.071 C 
ENDROOT
BRANCH   1   8
HETATM    8  C   UNL     1     -42.685  56.038 -56.770  1.00  0.00     0.276 C 
HETATM    9  N   UNL     1     -41.787  56.056 -55.722  1.00  0.00    -0.322 N 
HETATM   10  H   UNL     1     -41.456  56.989 -55.484  1.00  0.00     0.169 HD
HETATM   11  O   UNL     1     -43.242  55.054 -57.240  1.00  0.00    -0.266 OA
BRANCH   9  12
HETATM   12  C   UNL     1     -41.294  54.966 -54.982  1.00  0.00     0.035 A 
HETATM   13  C   UNL     1     -40.329  54.081 -55.457  1.00  0.00     0.030 A 
HETATM   14  C   UNL     1     -39.869  53.032 -54.654  1.00  0.00     0.018 A 
HETATM   15  C   UNL     1     -40.375  52.844 -53.361  1.00  0.00     0.015 A 
HETATM   16  C   UNL     1     -41.362  53.720 -52.870  1.00  0.00    -0.046 A 
HETATM   17  C   UNL     1     -41.953  53.584 -51.492  1.00  0.00     0.049 C 
HETATM   18  C   UNL     1     -41.802  54.778 -53.690  1.00  0.00     0.037 A 
BRANCH  15  19
HETATM   19  C   UNL     1     -39.826  51.730 -52.527  1.00  0.00     0.156 C 
HETATM   20  C   UNL     1     -39.836  50.335 -53.099  1.00  0.00     0.097 C 
HETATM   21  O   UNL     1     -39.353  51.953 -51.416  1.00  0.00    -0.293 OA
ENDBRANCH  15  19
ENDBRANCH   9  12
ENDBRANCH   1   8
BRANCH   3  22
HETATM   22  C   UNL     1     -42.123  60.171 -59.452  1.00  0.00     0.013 A 
HETATM   23  C   UNL     1     -41.530  61.356 -58.984  1.00  0.00     0.052 A 
HETATM   24  C   UNL     1     -41.026  62.303 -59.878  1.00  0.00     0.069 A 
HETATM   25  C   UNL     1     -41.129  62.073 -61.251  1.00  0.00     0.037 A 
HETATM   26  C   UNL     1     -41.728  60.910 -61.732  1.00  0.00     0.004 A 
HETATM   27  C   UNL     1     -42.223  59.962 -60.835  1.00  0.00     0.015 A 
BRANCH  24  28
HETATM   28  O   UNL     1     -40.415  63.482 -59.545  1.00  0.00    -0.356 OA
HETATM   29  C   UNL     1     -39.041  63.613 -59.887  1.00  0.00     0.210 C 
ENDBRANCH  24  28
ENDBRANCH   3  22
TORSDOF 5
ENDMDL
MODEL 8
REMARK VINA RESULT:      -7.5      1.432      9.696
REMARK  5 active torsions:
REMARK  status: ('A' for Active; 'I' for Inactive)
REMARK    1  A    between atoms: C_3  and  C_4 
REMARK    2  A    between atoms: C_9  and  N_10 
REMARK       I    between atoms: N_10  and  C_11 
REMARK    3  A    between atoms: C_11  and  C_12 
REMARK    4  A    between atoms: C_14  and  C_15 
REMARK    5  A    between atoms: C_17  and  O_18 
ROOT
HETATM    1  C   UNL     1     -42.864  55.890 -57.364  1.00  0.00     0.149 A 
HETATM    2  N   UNL     1     -42.282  57.151 -57.270  1.00  0.00    -0.223 NA
HETATM    3  C   UNL     1     -42.529  57.761 -58.417  1.00  0.00     0.139 A 
HETATM    4  N   UNL     1     -43.230  56.921 -59.252  1.00  0.00    -0.342 N 
HETATM    5  H   UNL     1     -43.505  57.142 -60.199  1.00  0.00     0.167 HD
HETATM    6  C   UNL     1     -43.452  55.735 -58.606  1.00  0.00     0.041 A 
HETATM    7  C   UNL     1     -44.175  54.600 -59.222  1.00  0.00     0.071 C 
ENDROOT
BRANCH   1   8
HETATM    8  C   UNL     1     -42.820  54.907 -56.271  1.00  0.00     0.276 C 
HETATM    9  N   UNL     1     -41.808  55.194 -55.377  1.00  0.00    -0.322 N 
HETATM   10  H   UNL     1     -41.280  56.031 -55.614  1.00  0.00     0.169 HD
HETATM   11  O   UNL     1     -43.609  53.972 -56.208  1.00  0.00    -0.266 OA
BRANCH   9  12
HETATM   12  C   UNL     1     -41.439  54.477 -54.224  1.00  0.00     0.035 A 
HETATM   13  C   UNL     1     -40.397  53.553 -54.187  1.00  0.00     0.030 A 
HETATM   14  C   UNL     1     -40.071  52.895 -52.997  1.00  0.00     0.018 A 
HETATM   15  C   UNL     1     -40.791  53.144 -51.820  1.00  0.00     0.015 A 
HETATM   16  C   UNL     1     -41.857  54.064 -51.842  1.00  0.00    -0.046 A 
HETATM   17  C   UNL     1     -42.676  54.384 -50.620  1.00  0.00     0.049 C 
HETATM   18  C   UNL     1     -42.161  54.725 -53.049  1.00  0.00     0.037 A 
BRANCH  15  19
HETATM   19  C   UNL     1     -40.383  52.442 -50.564  1.00  0.00     0.156 C 
HETATM   20  C   UNL     1     -40.199  50.946 -50.606  1.00  0.00     0.097 C 
HETATM   21  O   UNL     1     -40.175  53.075 -49.532  1.00  0.00    -0.293 OA
ENDBRANCH  15  19
ENDBRANCH   9  12
ENDBRANCH   1   8
BRANCH   3  22
HETATM   22  C   UNL     1     -42.101  59.109 -58.802  1.00  0.00     0.013 A 
HETATM   23  C   UNL     1     -42.123  59.483 -60.157  1.00  0.00     0.052 A 
HETATM   24  C   UNL     1     -41.747  60.770 -60.549  1.00  0.00     0.069 A 
HETATM   25  C   UNL     1     -41.331  61.686 -59.582  1.00  0.00     0.037 A 
HETATM   26  C   UNL     1     -41.289  61.328 -58.236  1.00  0.00     0.004 A 
HETATM   27  C   UNL     1     -41.672  60.044 -57.847  1.00  0.00     0.015 A 
BRANCH  24  28
HETATM   28  O   UNL     1     -41.742  61.254 -61.828  1.00  0.00    -0.356 OA
HETATM   29  C   UNL     1     -40.963  62.418 -62.072  1.00  0.00     0.210 C 
ENDBRANCH  24  28
ENDBRANCH   3  22
TORSDOF 5
ENDMDL
MODEL 9
REMARK VINA RESULT:      -7.3      1.879      2.996
REMARK  5 active torsions:
REMARK  status: ('A' for Active; 'I' for Inactive)
REMARK    1  A    between atoms: C_3  and  C_4 
REMARK    2  A    between atoms: C_9  and  N_10 
REMARK       I    between atoms: N_10  and  C_11 
REMARK    3  A    between atoms: C_11  and  C_12 
REMARK    4  A    between atoms: C_14  and  C_15 
REMARK    5  A    between atoms: C_17  and  O_18 
ROOT
HETATM    1  C   UNL     1     -42.499  56.937 -56.543  1.00  0.00     0.149 A 
HETATM    2  N   UNL     1     -41.865  56.576 -55.358  1.00  0.00    -0.223 NA
HETATM    3  C   UNL     1     -41.890  55.255 -55.311  1.00  0.00     0.139 A 
HETATM    4  N   UNL     1     -42.542  54.759 -56.417  1.00  0.00    -0.342 N 
HETATM    5  H   UNL     1     -42.725  53.781 -56.593  1.00  0.00     0.167 HD
HETATM    6  C   UNL     1     -42.934  55.806 -57.207  1.00  0.00     0.041 A 
HETATM    7  C   UNL     1     -43.672  55.628 -58.478  1.00  0.00     0.071 C 
ENDROOT
BRANCH   1   8
HETATM    8  C   UNL     1     -42.660  58.337 -56.967  1.00  0.00     0.276 C 
HETATM    9  N   UNL     1     -41.813  58.645 -58.013  1.00  0.00    -0.322 N 
HETATM   10  H   UNL     1     -41.240  57.862 -58.318  1.00  0.00     0.169 HD
HETATM   11  O   UNL     1     -43.461  59.090 -56.427  1.00  0.00    -0.266 OA
BRANCH   9  12
HETATM   12  C   UNL     1     -41.660  59.880 -58.671  1.00  0.00     0.035 A 
HETATM   13  C   UNL     1     -41.179  61.031 -58.053  1.00  0.00     0.030 A 
HETATM   14  C   UNL     1     -41.030  62.218 -58.777  1.00  0.00     0.018 A 
HETATM   15  C   UNL     1     -41.371  62.277 -60.136  1.00  0.00     0.015 A 
HETATM   16  C   UNL     1     -41.874  61.126 -60.773  1.00  0.00    -0.046 A 
HETATM   17  C   UNL     1     -42.261  61.110 -62.227  1.00  0.00     0.049 C 
HETATM   18  C   UNL     1     -42.003  59.936 -60.028  1.00  0.00     0.037 A 
BRANCH  15  19
HETATM   19  C   UNL     1     -41.162  63.559 -60.877  1.00  0.00     0.156 C 
HETATM   20  C   UNL     1     -39.818  63.806 -61.516  1.00  0.00     0.097 C 
HETATM   21  O   UNL     1     -42.072  64.375 -60.986  1.00  0.00    -0.293 OA
ENDBRANCH  15  19
ENDBRANCH   9  12
ENDBRANCH   1   8
BRANCH   3  22
HETATM   22  C   UNL     1     -41.357  54.406 -54.241  1.00  0.00     0.013 A 
HETATM   23  C   UNL     1     -40.643  53.241 -54.571  1.00  0.00     0.052 A 
HETATM   24  C   UNL     1     -40.100  52.429 -53.572  1.00  0.00     0.069 A 
HETATM   25  C   UNL     1     -40.285  52.775 -52.233  1.00  0.00     0.037 A 
HETATM   26  C   UNL     1     -41.003  53.918 -51.887  1.00  0.00     0.004 A 
HETATM   27  C   UNL     1     -41.537  54.731 -52.888  1.00  0.00     0.015 A 
BRANCH  24  28
HETATM   28  O   UNL     1     -39.375  51.285 -53.768  1.00  0.00    -0.356 OA
HETATM   29  C   UNL     1     -40.088  50.144 -54.228  1.00  0.00     0.210 C 
ENDBRANCH  24  28
ENDBRANCH   3  22
TORSDOF 5
ENDMDL
MODEL 10
REMARK VINA RESULT:      -7.2      2.280      9.772
REMARK  5 active torsions:
REMARK  status: ('A' for Active; 'I' for Inactive)
REMARK    1  A    between atoms: C_3  and  C_4 
REMARK    2  A    between atoms: C_9  and  N_10 
REMARK       I    between atoms: N_10  and  C_11 
REMARK    3  A    between atoms: C_11  and  C_12 
REMARK    4  A    between atoms: C_14  and  C_15 
REMARK    5  A    between atoms: C_17  and  O_18 
ROOT
HETATM    1  C   UNL     1     -42.156  58.252 -54.563  1.00  0.00     0.149 A 
HETATM    2  N   UNL     1     -42.367  58.762 -55.840  1.00  0.00    -0.223 NA
HETATM    3  C   UNL     1     -42.178  60.068 -55.755  1.00  0.00     0.139 A 
HETATM    4  N   UNL     1     -41.877  60.413 -54.457  1.00  0.00    -0.342 N 
HETATM    5  H   UNL     1     -41.726  61.357 -54.128  1.00  0.00     0.167 HD
HETATM    6  C   UNL     1     -41.858  59.281 -53.689  1.00  0.00     0.041 A 
HETATM    7  C   UNL     1     -41.573  59.293 -52.236  1.00  0.00     0.071 C 
ENDROOT
BRANCH   1   8
HETATM    8  C   UNL     1     -42.258  56.818 -54.249  1.00  0.00     0.276 C 
HETATM    9  N   UNL     1     -41.014  56.221 -54.210  1.00  0.00    -0.322 N 
HETATM   10  H   UNL     1     -40.247  56.866 -54.390  1.00  0.00     0.169 HD
HETATM   11  O   UNL     1     -43.338  56.273 -54.052  1.00  0.00    -0.266 OA
BRANCH   9  12
HETATM   12  C   UNL     1     -40.706  54.871 -53.967  1.00  0.00     0.035 A 
HETATM   13  C   UNL     1     -40.396  53.954 -54.969  1.00  0.00     0.030 A 
HETATM   14  C   UNL     1     -40.076  52.631 -54.650  1.00  0.00     0.018 A 
HETATM   15  C   UNL     1     -40.069  52.197 -53.317  1.00  0.00     0.015 A 
HETATM   16  C   UNL     1     -40.395  53.106 -52.292  1.00  0.00    -0.046 A 
HETATM   17  C   UNL     1     -40.408  52.715 -50.838  1.00  0.00     0.049 C 
HETATM   18  C   UNL     1     -40.702  54.438 -52.635  1.00  0.00     0.037 A 
BRANCH  15  19
HETATM   19  C   UNL     1     -39.686  50.781 -53.022  1.00  0.00     0.156 C 
HETATM   20  C   UNL     1     -39.482  49.838 -54.180  1.00  0.00     0.097 C 
HETATM   21  O   UNL     1     -39.514  50.407 -51.865  1.00  0.00    -0.293 OA
ENDBRANCH  15  19
ENDBRANCH   9  12
ENDBRANCH   1   8
BRANCH   3  22
HETATM   22  C   UNL     1     -42.305  61.044 -56.841  1.00  0.00     0.013 A 
HETATM   23  C   UNL     1     -41.502  60.914 -57.988  1.00  0.00     0.052 A 
HETATM   24  C   UNL     1     -41.622  61.813 -59.050  1.00  0.00     0.069 A 
HETATM   25  C   UNL     1     -42.540  62.861 -58.960  1.00  0.00     0.037 A 
HETATM   26  C   UNL     1     -43.333  63.014 -57.824  1.00  0.00     0.004 A 
HETATM   27  C   UNL     1     -43.216  62.109 -56.769  1.00  0.00     0.015 A 
BRANCH  24  28
HETATM   28  O   UNL     1     -40.911  61.781 -60.218  1.00  0.00    -0.356 OA
HETATM   29  C   UNL     1     -40.786  63.006 -60.929  1.00  0.00     0.210 C 
ENDBRANCH  24  28
ENDBRANCH   3  22
TORSDOF 5
ENDMDL
