MODEL 1
REMARK VINA RESULT:      -8.8      0.000      0.000
REMARK  5 active torsions:
REMARK  status: ('A' for Active; 'I' for Inactive)
REMARK       I    between atoms: C_2  and  N_3 
REMARK    1  A    between atoms: C_2  and  C_31 
REMARK    2  A    between atoms: N_3  and  C_4 
REMARK    3  A    between atoms: C_9  and  C_10 
REMARK    4  A    between atoms: C_12  and  N_13 
REMARK    5  A    between atoms: N_13  and  C_14 
ROOT
HETATM    1  C   UNL     1     -41.654  55.970 -52.667  1.00  0.00     0.164 A 
HETATM    2  N   UNL     1     -42.891  56.282 -53.087  1.00  0.00    -0.210 NA
HETATM    3  C   UNL     1     -43.420  57.455 -52.695  1.00  0.00     0.143 A 
HETATM    4  C   UNL     1     -42.729  58.335 -51.847  1.00  0.00     0.039 A 
HETATM    5  C   UNL     1     -43.233  59.569 -51.359  1.00  0.00     0.018 A 
HETATM    6  C   UNL     1     -42.472  60.364 -50.505  1.00  0.00     0.001 A 
HETATM    7  C   UNL     1     -41.209  59.936 -50.123  1.00  0.00     0.002 A 
HETATM    8  C   UNL     1     -40.718  58.717 -50.600  1.00  0.00     0.032 A 
HETATM    9  C   UNL     1     -41.454  57.909 -51.458  1.00  0.00     0.073 A 
HETATM   10  N   UNL     1     -40.916  56.757 -51.868  1.00  0.00    -0.228 NA
ENDROOT
BRANCH   1  11
HETATM   11  C   UNL     1     -41.093  54.667 -53.102  1.00  0.00     0.039 A 
HETATM   12  C   UNL     1     -40.910  54.287 -54.461  1.00  0.00     0.049 A 
HETATM   13  C   UNL     1     -40.353  53.030 -54.756  1.00  0.00     0.030 A 
HETATM   14  C   UNL     1     -39.979  52.141 -53.747  1.00  0.00     0.002 A 
HETATM   15  C   UNL     1     -40.158  52.490 -52.419  1.00  0.00     0.001 A 
HETATM   16  C   UNL     1     -40.707  53.733 -52.106  1.00  0.00     0.018 A 
BRANCH  12  17
HETATM   17  N   UNL     1     -41.321  55.160 -55.499  1.00  0.00    -0.321 N 
HETATM   18  C   UNL     1     -42.485  55.142 -56.244  1.00  0.00     0.274 C 
HETATM   19  O   UNL     1     -43.384  54.310 -56.196  1.00  0.00    -0.266 OA
HETATM   20  H   UNL     1     -40.664  55.904 -55.750  1.00  0.00     0.169 HD
BRANCH  18  21
HETATM   21  C   UNL     1     -42.607  56.292 -57.203  1.00  0.00     0.124 A 
HETATM   22  C   UNL     1     -42.210  57.565 -56.806  1.00  0.00     0.037 A 
HETATM   23  C   UNL     1     -42.307  58.605 -57.726  1.00  0.00     0.004 A 
HETATM   24  C   UNL     1     -42.786  58.340 -59.005  1.00  0.00     0.019 A 
HETATM   25  C   UNL     1     -43.157  57.040 -59.314  1.00  0.00     0.117 A 
HETATM   26  N   UNL     1     -43.089  56.008 -58.445  1.00  0.00    -0.256 NA
ENDBRANCH  18  21
ENDBRANCH  12  17
ENDBRANCH   1  11
BRANCH   3  27
HETATM   27  N   UNL     1     -44.709  57.822 -53.171  1.00  0.00    -0.340 N 
HETATM   28  H   UNL     1     -45.251  58.179 -52.392  1.00  0.00     0.167 HD
BRANCH  27  29
HETATM   29  C   UNL     1     -45.016  58.492 -54.380  1.00  0.00     0.034 A 
HETATM   30  C   UNL     1     -44.664  59.833 -54.592  1.00  0.00     0.032 A 
HETATM   31  C   UNL     1     -44.913  60.493 -55.803  1.00  0.00     0.034 A 
HETATM   32  C   UNL     1     -45.516  59.745 -56.816  1.00  0.00     0.062 A 
HETATM   33  N   UNL     1     -45.892  60.070 -58.092  1.00  0.00    -0.278 N 
HETATM   34  C   UNL     1     -45.853  58.406 -56.664  1.00  0.00     0.013 A 
HETATM   35  H   UNL     1     -45.798  60.967 -58.553  1.00  0.00     0.189 HD
HETATM   36  N   UNL     1     -46.442  59.053 -58.780  1.00  0.00    -0.186 NA
HETATM   37  C   UNL     1     -46.417  58.041 -57.907  1.00  0.00     0.152 A 
HETATM   38  C   UNL     1     -45.589  57.763 -55.439  1.00  0.00     0.044 A 
ENDBRANCH  27  29
ENDBRANCH   3  27
TORSDOF 5
ENDMDL
MODEL 2
REMARK VINA RESULT:      -8.5      2.161      6.064
REMARK  5 active torsions:
REMARK  status: ('A' for Active; 'I' for Inactive)
REMARK       I    between atoms: C_2  and  N_3 
REMARK    1  A    between atoms: C_2  and  C_31 
REMARK    2  A    between atoms: N_3  and  C_4 
REMARK    3  A    between atoms: C_9  and  C_10 
REMARK    4  A    between atoms: C_12  and  N_13 
REMARK    5  A    between atoms: N_13  and  C_14 
ROOT
HETATM    1  C   UNL     1     -42.921  55.798 -56.258  1.00  0.00     0.164 A 
HETATM    2  N   UNL     1     -43.729  56.179 -55.255  1.00  0.00    -0.210 NA
HETATM    3  C   UNL     1     -43.485  55.700 -54.022  1.00  0.00     0.143 A 
HETATM    4  C   UNL     1     -42.436  54.803 -53.769  1.00  0.00     0.039 A 
HETATM    5  C   UNL     1     -42.138  54.225 -52.507  1.00  0.00     0.018 A 
HETATM    6  C   UNL     1     -41.082  53.328 -52.362  1.00  0.00     0.001 A 
HETATM    7  C   UNL     1     -40.319  52.993 -53.471  1.00  0.00     0.002 A 
HETATM    8  C   UNL     1     -40.619  53.558 -54.714  1.00  0.00     0.032 A 
HETATM    9  C   UNL     1     -41.662  54.460 -54.882  1.00  0.00     0.073 A 
HETATM   10  N   UNL     1     -41.886  54.956 -56.103  1.00  0.00    -0.228 NA
ENDROOT
BRANCH   1  11
HETATM   11  C   UNL     1     -43.213  56.329 -57.612  1.00  0.00     0.039 A 
HETATM   12  C   UNL     1     -43.633  57.662 -57.877  1.00  0.00     0.049 A 
HETATM   13  C   UNL     1     -43.866  58.061 -59.204  1.00  0.00     0.030 A 
HETATM   14  C   UNL     1     -43.702  57.177 -60.272  1.00  0.00     0.002 A 
HETATM   15  C   UNL     1     -43.304  55.873 -60.033  1.00  0.00     0.001 A 
HETATM   16  C   UNL     1     -43.065  55.459 -58.724  1.00  0.00     0.018 A 
BRANCH  12  17
HETATM   17  N   UNL     1     -43.843  58.562 -56.801  1.00  0.00    -0.321 N 
HETATM   18  C   UNL     1     -42.962  59.464 -56.234  1.00  0.00     0.274 C 
HETATM   19  O   UNL     1     -41.779  59.622 -56.515  1.00  0.00    -0.266 OA
HETATM   20  H   UNL     1     -44.769  58.537 -56.366  1.00  0.00     0.169 HD
BRANCH  18  21
HETATM   21  C   UNL     1     -43.577  60.315 -55.161  1.00  0.00     0.124 A 
HETATM   22  C   UNL     1     -44.877  60.059 -54.738  1.00  0.00     0.037 A 
HETATM   23  C   UNL     1     -45.409  60.846 -53.721  1.00  0.00     0.004 A 
HETATM   24  C   UNL     1     -44.629  61.850 -53.159  1.00  0.00     0.019 A 
HETATM   25  C   UNL     1     -43.342  62.034 -53.641  1.00  0.00     0.117 A 
HETATM   26  N   UNL     1     -42.795  61.299 -54.634  1.00  0.00    -0.256 NA
ENDBRANCH  18  21
ENDBRANCH  12  17
ENDBRANCH   1  11
BRANCH   3  27
HETATM   27  N   UNL     1     -44.302  56.133 -52.942  1.00  0.00    -0.340 N 
HETATM   28  H   UNL     1     -44.504  55.335 -52.350  1.00  0.00     0.167 HD
BRANCH  27  29
HETATM   29  C   UNL     1     -44.168  57.326 -52.192  1.00  0.00     0.034 A 
HETATM   30  C   UNL     1     -45.219  57.834 -51.416  1.00  0.00     0.032 A 
HETATM   31  C   UNL     1     -45.083  58.984 -50.626  1.00  0.00     0.034 A 
HETATM   32  C   UNL     1     -43.832  59.603 -50.624  1.00  0.00     0.062 A 
HETATM   33  N   UNL     1     -43.365  60.718 -49.980  1.00  0.00    -0.278 N 
HETATM   34  C   UNL     1     -42.752  59.119 -51.351  1.00  0.00     0.013 A 
HETATM   35  H   UNL     1     -43.878  61.331 -49.357  1.00  0.00     0.189 HD
HETATM   36  N   UNL     1     -42.072  60.994 -50.227  1.00  0.00    -0.186 NA
HETATM   37  C   UNL     1     -41.702  60.019 -51.062  1.00  0.00     0.152 A 
HETATM   38  C   UNL     1     -42.912  57.960 -52.134  1.00  0.00     0.044 A 
ENDBRANCH  27  29
ENDBRANCH   3  27
TORSDOF 5
ENDMDL
MODEL 3
REMARK VINA RESULT:      -8.4      2.509      5.333
REMARK  5 active torsions:
REMARK  status: ('A' for Active; 'I' for Inactive)
REMARK       I    between atoms: C_2  and  N_3 
REMARK    1  A    between atoms: C_2  and  C_31 
REMARK    2  A    between atoms: N_3  and  C_4 
REMARK    3  A    between atoms: C_9  and  C_10 
REMARK    4  A    between atoms: C_12  and  N_13 
REMARK    5  A    between atoms: N_13  and  C_14 
ROOT
HETATM    1  C   UNL     1     -43.386  56.997 -53.399  1.00  0.00     0.164 A 
HETATM    2  N   UNL     1     -43.196  57.194 -54.713  1.00  0.00    -0.210 NA
HETATM    3  C   UNL     1     -42.393  56.343 -55.376  1.00  0.00     0.143 A 
HETATM    4  C   UNL     1     -41.736  55.285 -54.729  1.00  0.00     0.039 A 
HETATM    5  C   UNL     1     -40.845  54.371 -55.349  1.00  0.00     0.018 A 
HETATM    6  C   UNL     1     -40.228  53.362 -54.612  1.00  0.00     0.001 A 
HETATM    7  C   UNL     1     -40.486  53.260 -53.253  1.00  0.00     0.002 A 
HETATM    8  C   UNL     1     -41.359  54.165 -52.644  1.00  0.00     0.032 A 
HETATM    9  C   UNL     1     -41.991  55.175 -53.358  1.00  0.00     0.073 A 
HETATM   10  N   UNL     1     -42.811  56.003 -52.703  1.00  0.00    -0.228 NA
ENDROOT
BRANCH   1  11
HETATM   11  C   UNL     1     -44.267  57.952 -52.683  1.00  0.00     0.039 A 
HETATM   12  C   UNL     1     -44.663  59.219 -53.199  1.00  0.00     0.049 A 
HETATM   13  C   UNL     1     -45.516  60.037 -52.438  1.00  0.00     0.030 A 
HETATM   14  C   UNL     1     -45.981  59.640 -51.183  1.00  0.00     0.002 A 
HETATM   15  C   UNL     1     -45.600  58.416 -50.661  1.00  0.00     0.001 A 
HETATM   16  C   UNL     1     -44.756  57.589 -51.401  1.00  0.00     0.018 A 
BRANCH  12  17
HETATM   17  N   UNL     1     -44.168  59.655 -54.454  1.00  0.00    -0.321 N 
HETATM   18  C   UNL     1     -43.197  60.599 -54.728  1.00  0.00     0.274 C 
HETATM   19  O   UNL     1     -42.604  61.308 -53.922  1.00  0.00    -0.266 OA
HETATM   20  H   UNL     1     -44.594  59.227 -55.281  1.00  0.00     0.169 HD
BRANCH  18  21
HETATM   21  C   UNL     1     -42.876  60.730 -56.189  1.00  0.00     0.124 A 
HETATM   22  C   UNL     1     -43.770  61.377 -57.035  1.00  0.00     0.037 A 
HETATM   23  C   UNL     1     -43.432  61.508 -58.379  1.00  0.00     0.004 A 
HETATM   24  C   UNL     1     -42.218  60.999 -58.828  1.00  0.00     0.019 A 
HETATM   25  C   UNL     1     -41.388  60.371 -57.913  1.00  0.00     0.117 A 
HETATM   26  N   UNL     1     -41.686  60.214 -56.605  1.00  0.00    -0.256 NA
ENDBRANCH  18  21
ENDBRANCH  12  17
ENDBRANCH   1  11
BRANCH   3  27
HETATM   27  N   UNL     1     -42.221  56.510 -56.778  1.00  0.00    -0.340 N 
HETATM   28  H   UNL     1     -41.447  55.928 -57.080  1.00  0.00     0.167 HD
BRANCH  27  29
HETATM   29  C   UNL     1     -43.236  56.592 -57.761  1.00  0.00     0.034 A 
HETATM   30  C   UNL     1     -44.027  57.739 -57.914  1.00  0.00     0.032 A 
HETATM   31  C   UNL     1     -44.998  57.854 -58.919  1.00  0.00     0.034 A 
HETATM   32  C   UNL     1     -45.136  56.771 -59.789  1.00  0.00     0.062 A 
HETATM   33  N   UNL     1     -45.969  56.556 -60.855  1.00  0.00    -0.278 N 
HETATM   34  C   UNL     1     -44.354  55.627 -59.697  1.00  0.00     0.013 A 
HETATM   35  H   UNL     1     -46.679  57.180 -61.220  1.00  0.00     0.189 HD
HETATM   36  N   UNL     1     -45.788  55.369 -61.463  1.00  0.00    -0.186 NA
HETATM   37  C   UNL     1     -44.805  54.806 -60.754  1.00  0.00     0.152 A 
HETATM   38  C   UNL     1     -43.381  55.537 -58.683  1.00  0.00     0.044 A 
ENDBRANCH  27  29
ENDBRANCH   3  27
TORSDOF 5
ENDMDL
MODEL 4
REMARK VINA RESULT:      -8.2      2.624      7.116
REMARK  5 active torsions:
REMARK  status: ('A' for Active; 'I' for Inactive)
REMARK       I    between atoms: C_2  and  N_3 
REMARK    1  A    between atoms: C_2  and  C_31 
REMARK    2  A    between atoms: N_3  and  C_4 
REMARK    3  A    between atoms: C_9  and  C_10 
REMARK    4  A    between atoms: C_12  and  N_13 
REMARK    5  A    between atoms: N_13  and  C_14 
ROOT
HETATM    1  C   UNL     1     -42.966  56.637 -55.960  1.00  0.00     0.164 A 
HETATM    2  N   UNL     1     -41.849  56.037 -55.517  1.00  0.00    -0.210 NA
HETATM    3  C   UNL     1     -41.684  55.897 -54.190  1.00  0.00     0.143 A 
HETATM    4  C   UNL     1     -42.627  56.381 -53.269  1.00  0.00     0.039 A 
HETATM    5  C   UNL     1     -42.507  56.306 -51.857  1.00  0.00     0.018 A 
HETATM    6  C   UNL     1     -43.494  56.833 -51.026  1.00  0.00     0.001 A 
HETATM    7  C   UNL     1     -44.602  57.445 -51.593  1.00  0.00     0.002 A 
HETATM    8  C   UNL     1     -44.714  57.524 -52.984  1.00  0.00     0.032 A 
HETATM    9  C   UNL     1     -43.748  56.999 -53.833  1.00  0.00     0.073 A 
HETATM   10  N   UNL     1     -43.927  57.115 -55.153  1.00  0.00    -0.228 NA
ENDROOT
BRANCH   1  11
HETATM   11  C   UNL     1     -43.124  56.791 -57.427  1.00  0.00     0.039 A 
HETATM   12  C   UNL     1     -43.284  58.040 -58.089  1.00  0.00     0.049 A 
HETATM   13  C   UNL     1     -43.411  58.067 -59.489  1.00  0.00     0.030 A 
HETATM   14  C   UNL     1     -43.389  56.896 -60.247  1.00  0.00     0.002 A 
HETATM   15  C   UNL     1     -43.245  55.670 -59.620  1.00  0.00     0.001 A 
HETATM   16  C   UNL     1     -43.116  55.623 -58.233  1.00  0.00     0.018 A 
BRANCH  12  17
HETATM   17  N   UNL     1     -43.348  59.237 -57.332  1.00  0.00    -0.321 N 
HETATM   18  C   UNL     1     -42.381  60.209 -57.154  1.00  0.00     0.274 C 
HETATM   19  O   UNL     1     -41.230  60.196 -57.576  1.00  0.00    -0.266 OA
HETATM   20  H   UNL     1     -44.223  59.407 -56.828  1.00  0.00     0.169 HD
BRANCH  18  21
HETATM   21  C   UNL     1     -42.849  61.386 -56.347  1.00  0.00     0.124 A 
HETATM   22  C   UNL     1     -43.249  61.201 -55.028  1.00  0.00     0.037 A 
HETATM   23  C   UNL     1     -43.650  62.314 -54.295  1.00  0.00     0.004 A 
HETATM   24  C   UNL     1     -43.631  63.568 -54.898  1.00  0.00     0.019 A 
HETATM   25  C   UNL     1     -43.215  63.659 -56.217  1.00  0.00     0.117 A 
HETATM   26  N   UNL     1     -42.831  62.601 -56.963  1.00  0.00    -0.256 NA
ENDBRANCH  18  21
ENDBRANCH  12  17
ENDBRANCH   1  11
BRANCH   3  27
HETATM   27  N   UNL     1     -40.530  55.220 -53.707  1.00  0.00    -0.340 N 
HETATM   28  H   UNL     1     -40.143  55.753 -52.936  1.00  0.00     0.167 HD
BRANCH  27  29
HETATM   29  C   UNL     1     -40.371  53.826 -53.520  1.00  0.00     0.034 A 
HETATM   30  C   UNL     1     -40.288  52.939 -54.602  1.00  0.00     0.032 A 
HETATM   31  C   UNL     1     -40.075  51.564 -54.432  1.00  0.00     0.034 A 
HETATM   32  C   UNL     1     -39.926  51.107 -53.122  1.00  0.00     0.062 A 
HETATM   33  N   UNL     1     -39.711  49.855 -52.611  1.00  0.00    -0.278 N 
HETATM   34  C   UNL     1     -39.968  51.952 -52.021  1.00  0.00     0.013 A 
HETATM   35  H   UNL     1     -39.623  48.985 -53.123  1.00  0.00     0.189 HD
HETATM   36  N   UNL     1     -39.607  49.819 -51.269  1.00  0.00    -0.186 NA
HETATM   37  C   UNL     1     -39.765  51.097 -50.914  1.00  0.00     0.152 A 
HETATM   38  C   UNL     1     -40.177  53.330 -52.216  1.00  0.00     0.044 A 
ENDBRANCH  27  29
ENDBRANCH   3  27
TORSDOF 5
ENDMDL
MODEL 5
REMARK VINA RESULT:      -8.1      2.371      7.940
REMARK  5 active torsions:
REMARK  status: ('A' for Active; 'I' for Inactive)
REMARK       I    between atoms: C_2  and  N_3 
REMARK    1  A    between atoms: C_2  and  C_31 
REMARK    2  A    between atoms: N_3  and  C_4 
REMARK    3  A    between atoms: C_9  and  C_10 
REMARK    4  A    between atoms: C_12  and  N_13 
REMARK    5  A    between atoms: N_13  and  C_14 
ROOT
HETATM    1  C   UNL     1     -43.482  58.906 -58.026  1.00  0.00     0.164 A 
HETATM    2  N   UNL     1     -42.727  58.042 -57.327  1.00  0.00    -0.210 NA
HETATM    3  C   UNL     1     -42.825  56.732 -57.615  1.00  0.00     0.143 A 
HETATM    4  C   UNL     1     -43.707  56.251 -58.596  1.00  0.00     0.039 A 
HETATM    5  C   UNL     1     -43.896  54.885 -58.929  1.00  0.00     0.018 A 
HETATM    6  C   UNL     1     -44.811  54.508 -59.910  1.00  0.00     0.001 A 
HETATM    7  C   UNL     1     -45.550  55.485 -60.560  1.00  0.00     0.002 A 
HETATM    8  C   UNL     1     -45.366  56.830 -60.225  1.00  0.00     0.032 A 
HETATM    9  C   UNL     1     -44.455  57.231 -59.256  1.00  0.00     0.073 A 
HETATM   10  N   UNL     1     -44.339  58.536 -58.991  1.00  0.00    -0.228 NA
ENDROOT
BRANCH   1  11
HETATM   11  C   UNL     1     -43.366  60.346 -57.687  1.00  0.00     0.039 A 
HETATM   12  C   UNL     1     -43.302  60.854 -56.359  1.00  0.00     0.049 A 
HETATM   13  C   UNL     1     -43.177  62.239 -56.157  1.00  0.00     0.030 A 
HETATM   14  C   UNL     1     -43.120  63.132 -57.229  1.00  0.00     0.002 A 
HETATM   15  C   UNL     1     -43.191  62.657 -58.527  1.00  0.00     0.001 A 
HETATM   16  C   UNL     1     -43.313  61.286 -58.748  1.00  0.00     0.018 A 
BRANCH  12  17
HETATM   17  N   UNL     1     -43.398  59.966 -55.259  1.00  0.00    -0.321 N 
HETATM   18  C   UNL     1     -42.418  59.574 -54.366  1.00  0.00     0.274 C 
HETATM   19  O   UNL     1     -41.230  59.876 -54.390  1.00  0.00    -0.266 OA
HETATM   20  H   UNL     1     -44.315  59.536 -55.103  1.00  0.00     0.169 HD
BRANCH  18  21
HETATM   21  C   UNL     1     -42.922  58.679 -53.270  1.00  0.00     0.124 A 
HETATM   22  C   UNL     1     -42.016  58.064 -52.413  1.00  0.00     0.037 A 
HETATM   23  C   UNL     1     -42.514  57.264 -51.388  1.00  0.00     0.004 A 
HETATM   24  C   UNL     1     -43.890  57.112 -51.251  1.00  0.00     0.019 A 
HETATM   25  C   UNL     1     -44.718  57.765 -52.150  1.00  0.00     0.117 A 
HETATM   26  N   UNL     1     -44.273  58.539 -53.163  1.00  0.00    -0.256 NA
ENDBRANCH  18  21
ENDBRANCH  12  17
ENDBRANCH   1  11
BRANCH   3  27
HETATM   27  N   UNL     1     -41.997  55.810 -56.917  1.00  0.00    -0.340 N 
HETATM   28  H   UNL     1     -41.027  56.054 -57.089  1.00  0.00     0.167 HD
BRANCH  27  29
HETATM   29  C   UNL     1     -42.191  55.306 -55.609  1.00  0.00     0.034 A 
HETATM   30  C   UNL     1     -43.472  55.143 -55.061  1.00  0.00     0.032 A 
HETATM   31  C   UNL     1     -43.681  54.593 -53.789  1.00  0.00     0.034 A 
HETATM   32  C   UNL     1     -42.547  54.188 -53.084  1.00  0.00     0.062 A 
HETATM   33  N   UNL     1     -42.395  53.625 -51.844  1.00  0.00    -0.278 N 
HETATM   34  C   UNL     1     -41.262  54.298 -53.597  1.00  0.00     0.013 A 
HETATM   35  H   UNL     1     -43.123  53.394 -51.177  1.00  0.00     0.189 HD
HETATM   36  N   UNL     1     -41.118  53.359 -51.514  1.00  0.00    -0.186 NA
HETATM   37  C   UNL     1     -40.431  53.771 -52.583  1.00  0.00     0.152 A 
HETATM   38  C   UNL     1     -41.077  54.849 -54.880  1.00  0.00     0.044 A 
ENDBRANCH  27  29
ENDBRANCH   3  27
TORSDOF 5
ENDMDL
MODEL 6
REMARK VINA RESULT:      -7.9      2.187      5.641
REMARK  5 active torsions:
REMARK  status: ('A' for Active; 'I' for Inactive)
REMARK       I    between atoms: C_2  and  N_3 
REMARK    1  A    between atoms: C_2  and  C_31 
REMARK    2  A    between atoms: N_3  and  C_4 
REMARK    3  A    between atoms: C_9  and  C_10 
REMARK    4  A    between atoms: C_12  and  N_13 
REMARK    5  A    between atoms: N_13  and  C_14 
ROOT
HETATM    1  C   UNL     1     -41.987  55.562 -55.480  1.00  0.00     0.164 A 
HETATM    2  N   UNL     1     -41.870  56.881 -55.259  1.00  0.00    -0.210 NA
HETATM    3  C   UNL     1     -42.356  57.728 -56.184  1.00  0.00     0.143 A 
HETATM    4  C   UNL     1     -42.950  57.270 -57.371  1.00  0.00     0.039 A 
HETATM    5  C   UNL     1     -43.450  58.098 -58.409  1.00  0.00     0.018 A 
HETATM    6  C   UNL     1     -44.008  57.545 -59.559  1.00  0.00     0.001 A 
HETATM    7  C   UNL     1     -44.066  56.165 -59.689  1.00  0.00     0.002 A 
HETATM    8  C   UNL     1     -43.567  55.352 -58.668  1.00  0.00     0.032 A 
HETATM    9  C   UNL     1     -43.012  55.880 -57.509  1.00  0.00     0.073 A 
HETATM   10  N   UNL     1     -42.555  55.036 -56.578  1.00  0.00    -0.228 NA
ENDROOT
BRANCH   1  11
HETATM   11  C   UNL     1     -41.436  54.644 -54.453  1.00  0.00     0.039 A 
HETATM   12  C   UNL     1     -41.617  54.809 -53.051  1.00  0.00     0.049 A 
HETATM   13  C   UNL     1     -41.061  53.866 -52.169  1.00  0.00     0.030 A 
HETATM   14  C   UNL     1     -40.329  52.773 -52.634  1.00  0.00     0.002 A 
HETATM   15  C   UNL     1     -40.134  52.601 -53.994  1.00  0.00     0.001 A 
HETATM   16  C   UNL     1     -40.680  53.524 -54.885  1.00  0.00     0.018 A 
BRANCH  12  17
HETATM   17  N   UNL     1     -42.324  55.935 -52.559  1.00  0.00    -0.321 N 
HETATM   18  C   UNL     1     -43.347  55.985 -51.631  1.00  0.00     0.274 C 
HETATM   19  O   UNL     1     -43.900  55.036 -51.086  1.00  0.00    -0.266 OA
HETATM   20  H   UNL     1     -42.057  56.842 -52.951  1.00  0.00     0.169 HD
BRANCH  18  21
HETATM   21  C   UNL     1     -43.790  57.380 -51.295  1.00  0.00     0.124 A 
HETATM   22  C   UNL     1     -42.893  58.435 -51.415  1.00  0.00     0.037 A 
HETATM   23  C   UNL     1     -43.340  59.721 -51.124  1.00  0.00     0.004 A 
HETATM   24  C   UNL     1     -44.662  59.908 -50.732  1.00  0.00     0.019 A 
HETATM   25  C   UNL     1     -45.487  58.798 -50.641  1.00  0.00     0.117 A 
HETATM   26  N   UNL     1     -45.086  57.535 -50.903  1.00  0.00    -0.256 NA
ENDBRANCH  18  21
ENDBRANCH  12  17
ENDBRANCH   1  11
BRANCH   3  27
HETATM   27  N   UNL     1     -42.283  59.127 -55.941  1.00  0.00    -0.340 N 
HETATM   28  H   UNL     1     -41.917  59.580 -56.772  1.00  0.00     0.167 HD
BRANCH  27  29
HETATM   29  C   UNL     1     -43.240  59.933 -55.279  1.00  0.00     0.034 A 
HETATM   30  C   UNL     1     -44.543  59.478 -55.029  1.00  0.00     0.032 A 
HETATM   31  C   UNL     1     -45.484  60.243 -54.326  1.00  0.00     0.034 A 
HETATM   32  C   UNL     1     -45.060  61.488 -53.858  1.00  0.00     0.062 A 
HETATM   33  N   UNL     1     -45.708  62.467 -53.152  1.00  0.00    -0.278 N 
HETATM   34  C   UNL     1     -43.771  61.967 -54.052  1.00  0.00     0.013 A 
HETATM   35  H   UNL     1     -46.669  62.463 -52.830  1.00  0.00     0.189 HD
HETATM   36  N   UNL     1     -44.944  63.539 -52.870  1.00  0.00    -0.186 NA
HETATM   37  C   UNL     1     -43.766  63.231 -53.420  1.00  0.00     0.152 A 
HETATM   38  C   UNL     1     -42.842  61.178 -54.757  1.00  0.00     0.044 A 
ENDBRANCH  27  29
ENDBRANCH   3  27
TORSDOF 5
ENDMDL
MODEL 7
REMARK VINA RESULT:      -7.6      1.779      2.649
REMARK  5 active torsions:
REMARK  status: ('A' for Active; 'I' for Inactive)
REMARK       I    between atoms: C_2  and  N_3 
REMARK    1  A    between atoms: C_2  and  C_31 
REMARK    2  A    between atoms: N_3  and  C_4 
REMARK    3  A    between atoms: C_9  and  C_10 
REMARK    4  A    between atoms: C_12  and  N_13 
REMARK    5  A    between atoms: N_13  and  C_14 
ROOT
HETATM    1  C   UNL     1     -43.454  57.432 -53.937  1.00  0.00     0.164 A 
HETATM    2  N   UNL     1     -44.409  57.858 -54.779  1.00  0.00    -0.210 NA
HETATM    3  C   UNL     1     -44.976  59.055 -54.547  1.00  0.00     0.143 A 
HETATM    4  C   UNL     1     -44.615  59.847 -53.446  1.00  0.00     0.039 A 
HETATM    5  C   UNL     1     -45.192  61.100 -53.113  1.00  0.00     0.018 A 
HETATM    6  C   UNL     1     -44.774  61.802 -51.984  1.00  0.00     0.001 A 
HETATM    7  C   UNL     1     -43.787  61.260 -51.174  1.00  0.00     0.002 A 
HETATM    8  C   UNL     1     -43.225  60.023 -51.501  1.00  0.00     0.032 A 
HETATM    9  C   UNL     1     -43.619  59.307 -52.624  1.00  0.00     0.073 A 
HETATM   10  N   UNL     1     -43.036  58.130 -52.869  1.00  0.00    -0.228 NA
ENDROOT
BRANCH   1  11
HETATM   11  C   UNL     1     -42.848  56.104 -54.204  1.00  0.00     0.039 A 
HETATM   12  C   UNL     1     -42.172  55.759 -55.408  1.00  0.00     0.049 A 
HETATM   13  C   UNL     1     -41.623  54.472 -55.545  1.00  0.00     0.030 A 
HETATM   14  C   UNL     1     -41.729  53.520 -54.530  1.00  0.00     0.002 A 
HETATM   15  C   UNL     1     -42.392  53.834 -53.356  1.00  0.00     0.001 A 
HETATM   16  C   UNL     1     -42.941  55.106 -53.199  1.00  0.00     0.018 A 
BRANCH  12  17
HETATM   17  N   UNL     1     -42.089  56.700 -56.465  1.00  0.00    -0.321 N 
HETATM   18  C   UNL     1     -42.772  56.724 -57.666  1.00  0.00     0.274 C 
HETATM   19  O   UNL     1     -43.556  55.883 -58.091  1.00  0.00    -0.266 OA
HETATM   20  H   UNL     1     -41.421  57.465 -56.337  1.00  0.00     0.169 HD
BRANCH  18  21
HETATM   21  C   UNL     1     -42.481  57.937 -58.502  1.00  0.00     0.124 A 
HETATM   22  C   UNL     1     -42.094  59.122 -57.885  1.00  0.00     0.037 A 
HETATM   23  C   UNL     1     -41.802  60.222 -58.688  1.00  0.00     0.004 A 
HETATM   24  C   UNL     1     -41.899  60.100 -60.070  1.00  0.00     0.019 A 
HETATM   25  C   UNL     1     -42.291  58.879 -60.598  1.00  0.00     0.117 A 
HETATM   26  N   UNL     1     -42.593  57.795 -59.852  1.00  0.00    -0.256 NA
ENDBRANCH  18  21
ENDBRANCH  12  17
ENDBRANCH   1  11
BRANCH   3  27
HETATM   27  N   UNL     1     -45.955  59.541 -55.458  1.00  0.00    -0.340 N 
HETATM   28  H   UNL     1     -46.175  60.501 -55.213  1.00  0.00     0.167 HD
BRANCH  27  29
HETATM   29  C   UNL     1     -46.004  59.327 -56.856  1.00  0.00     0.034 A 
HETATM   30  C   UNL     1     -45.520  60.278 -57.767  1.00  0.00     0.032 A 
HETATM   31  C   UNL     1     -45.512  60.056 -59.151  1.00  0.00     0.034 A 
HETATM   32  C   UNL     1     -45.993  58.823 -59.595  1.00  0.00     0.062 A 
HETATM   33  N   UNL     1     -46.125  58.292 -60.850  1.00  0.00    -0.278 N 
HETATM   34  C   UNL     1     -46.452  57.839 -58.729  1.00  0.00     0.013 A 
HETATM   35  H   UNL     1     -45.887  58.728 -61.733  1.00  0.00     0.189 HD
HETATM   36  N   UNL     1     -46.627  57.044 -60.869  1.00  0.00    -0.186 NA
HETATM   37  C   UNL     1     -46.826  56.771 -59.576  1.00  0.00     0.152 A 
HETATM   38  C   UNL     1     -46.445  58.082 -57.342  1.00  0.00     0.044 A 
ENDBRANCH  27  29
ENDBRANCH   3  27
TORSDOF 5
ENDMDL
MODEL 8
REMARK VINA RESULT:      -7.5      2.072      2.873
REMARK  5 active torsions:
REMARK  status: ('A' for Active; 'I' for Inactive)
REMARK       I    between atoms: C_2  and  N_3 
REMARK    1  A    between atoms: C_2  and  C_31 
REMARK    2  A    between atoms: N_3  and  C_4 
REMARK    3  A    between atoms: C_9  and  C_10 
REMARK    4  A    between atoms: C_12  and  N_13 
REMARK    5  A    between atoms: N_13  and  C_14 
ROOT
HETATM    1  C   UNL     1     -42.253  56.866 -53.555  1.00  0.00     0.164 A 
HETATM    2  N   UNL     1     -41.887  57.957 -54.246  1.00  0.00    -0.210 NA
HETATM    3  C   UNL     1     -42.532  59.112 -54.003  1.00  0.00     0.143 A 
HETATM    4  C   UNL     1     -43.582  59.195 -53.075  1.00  0.00     0.039 A 
HETATM    5  C   UNL     1     -44.334  60.364 -52.790  1.00  0.00     0.018 A 
HETATM    6  C   UNL     1     -45.372  60.338 -51.861  1.00  0.00     0.001 A 
HETATM    7  C   UNL     1     -45.674  59.149 -51.213  1.00  0.00     0.002 A 
HETATM    8  C   UNL     1     -44.935  57.998 -51.500  1.00  0.00     0.032 A 
HETATM    9  C   UNL     1     -43.892  57.999 -52.417  1.00  0.00     0.073 A 
HETATM   10  N   UNL     1     -43.234  56.857 -52.638  1.00  0.00    -0.228 NA
ENDROOT
BRANCH   1  11
HETATM   11  C   UNL     1     -41.537  55.600 -53.846  1.00  0.00     0.039 A 
HETATM   12  C   UNL     1     -41.325  55.080 -55.153  1.00  0.00     0.049 A 
HETATM   13  C   UNL     1     -40.618  53.876 -55.311  1.00  0.00     0.030 A 
HETATM   14  C   UNL     1     -40.120  53.172 -54.213  1.00  0.00     0.002 A 
HETATM   15  C   UNL     1     -40.324  53.656 -52.932  1.00  0.00     0.001 A 
HETATM   16  C   UNL     1     -41.022  54.850 -52.756  1.00  0.00     0.018 A 
BRANCH  12  17
HETATM   17  N   UNL     1     -41.858  55.761 -56.277  1.00  0.00    -0.321 N 
HETATM   18  C   UNL     1     -42.934  55.420 -57.075  1.00  0.00     0.274 C 
HETATM   19  O   UNL     1     -43.617  54.404 -57.004  1.00  0.00    -0.266 OA
HETATM   20  H   UNL     1     -41.375  56.620 -56.555  1.00  0.00     0.169 HD
BRANCH  18  21
HETATM   21  C   UNL     1     -43.254  56.442 -58.127  1.00  0.00     0.124 A 
HETATM   22  C   UNL     1     -44.181  57.443 -57.857  1.00  0.00     0.037 A 
HETATM   23  C   UNL     1     -44.435  58.393 -58.841  1.00  0.00     0.004 A 
HETATM   24  C   UNL     1     -43.755  58.317 -60.052  1.00  0.00     0.019 A 
HETATM   25  C   UNL     1     -42.846  57.286 -60.234  1.00  0.00     0.117 A 
HETATM   26  N   UNL     1     -42.581  56.339 -59.308  1.00  0.00    -0.256 NA
ENDBRANCH  18  21
ENDBRANCH  12  17
ENDBRANCH   1  11
BRANCH   3  27
HETATM   27  N   UNL     1     -42.123  60.287 -54.692  1.00  0.00    -0.340 N 
HETATM   28  H   UNL     1     -41.120  60.394 -54.582  1.00  0.00     0.167 HD
BRANCH  27  29
HETATM   29  C   UNL     1     -42.566  60.733 -55.960  1.00  0.00     0.034 A 
HETATM   30  C   UNL     1     -43.819  61.337 -56.136  1.00  0.00     0.032 A 
HETATM   31  C   UNL     1     -44.247  61.832 -57.376  1.00  0.00     0.034 A 
HETATM   32  C   UNL     1     -43.354  61.718 -58.442  1.00  0.00     0.062 A 
HETATM   33  N   UNL     1     -43.450  62.088 -59.758  1.00  0.00    -0.278 N 
HETATM   34  C   UNL     1     -42.091  61.157 -58.310  1.00  0.00     0.013 A 
HETATM   35  H   UNL     1     -44.236  62.533 -60.218  1.00  0.00     0.189 HD
HETATM   36  N   UNL     1     -42.352  61.817 -60.487  1.00  0.00    -0.186 NA
HETATM   37  C   UNL     1     -41.527  61.249 -59.602  1.00  0.00     0.152 A 
HETATM   38  C   UNL     1     -41.681  60.671 -57.054  1.00  0.00     0.044 A 
ENDBRANCH  27  29
ENDBRANCH   3  27
TORSDOF 5
ENDMDL
MODEL 9
REMARK VINA RESULT:      -7.4      2.210      7.780
REMARK  5 active torsions:
REMARK  status: ('A' for Active; 'I' for Inactive)
REMARK       I    between atoms: C_2  and  N_3 
REMARK    1  A    between atoms: C_2  and  C_31 
REMARK    2  A    between atoms: N_3  and  C_4 
REMARK    3  A    between atoms: C_9  and  C_10 
REMARK    4  A    between atoms: C_12  and  N_13 
REMARK    5  A    between atoms: N_13  and  C_14 
ROOT
HETATM    1  C   UNL     1     -44.699  59.518 -56.617  1.00  0.00     0.164 A 
HETATM    2  N   UNL     1     -44.644  58.257 -56.160  1.00  0.00    -0.210 NA
HETATM    3  C   UNL     1     -43.931  57.356 -56.859  1.00  0.00     0.143 A 
HETATM    4  C   UNL     1     -43.274  57.694 -58.053  1.00  0.00     0.039 A 
HETATM    5  C   UNL     1     -42.535  56.795 -58.865  1.00  0.00     0.018 A 
HETATM    6  C   UNL     1     -41.933  57.227 -60.045  1.00  0.00     0.001 A 
HETATM    7  C   UNL     1     -42.066  58.553 -60.429  1.00  0.00     0.002 A 
HETATM    8  C   UNL     1     -42.799  59.435 -59.630  1.00  0.00     0.032 A 
HETATM    9  C   UNL     1     -43.403  59.030 -58.446  1.00  0.00     0.073 A 
HETATM   10  N   UNL     1     -44.089  59.933 -57.738  1.00  0.00    -0.228 NA
ENDROOT
BRANCH   1  11
HETATM   11  C   UNL     1     -45.499  60.494 -55.837  1.00  0.00     0.039 A 
HETATM   12  C   UNL     1     -45.345  60.724 -54.441  1.00  0.00     0.049 A 
HETATM   13  C   UNL     1     -46.150  61.686 -53.807  1.00  0.00     0.030 A 
HETATM   14  C   UNL     1     -47.104  62.421 -54.514  1.00  0.00     0.002 A 
HETATM   15  C   UNL     1     -47.275  62.205 -55.871  1.00  0.00     0.001 A 
HETATM   16  C   UNL     1     -46.485  61.256 -56.517  1.00  0.00     0.018 A 
BRANCH  12  17
HETATM   17  N   UNL     1     -44.410  59.959 -53.700  1.00  0.00    -0.321 N 
HETATM   18  C   UNL     1     -43.072  60.211 -53.460  1.00  0.00     0.274 C 
HETATM   19  O   UNL     1     -42.401  61.136 -53.904  1.00  0.00    -0.266 OA
HETATM   20  H   UNL     1     -44.760  59.086 -53.293  1.00  0.00     0.169 HD
BRANCH  18  21
HETATM   21  C   UNL     1     -42.422  59.209 -52.550  1.00  0.00     0.124 A 
HETATM   22  C   UNL     1     -41.047  59.254 -52.346  1.00  0.00     0.037 A 
HETATM   23  C   UNL     1     -40.476  58.331 -51.475  1.00  0.00     0.004 A 
HETATM   24  C   UNL     1     -41.293  57.405 -50.834  1.00  0.00     0.019 A 
HETATM   25  C   UNL     1     -42.654  57.435 -51.096  1.00  0.00     0.117 A 
HETATM   26  N   UNL     1     -43.243  58.307 -51.943  1.00  0.00    -0.256 NA
ENDBRANCH  18  21
ENDBRANCH  12  17
ENDBRANCH   1  11
BRANCH   3  27
HETATM   27  N   UNL     1     -43.824  56.028 -56.362  1.00  0.00    -0.340 N 
HETATM   28  H   UNL     1     -43.885  55.385 -57.144  1.00  0.00     0.167 HD
BRANCH  27  29
HETATM   29  C   UNL     1     -42.942  55.557 -55.360  1.00  0.00     0.034 A 
HETATM   30  C   UNL     1     -41.563  55.804 -55.413  1.00  0.00     0.032 A 
HETATM   31  C   UNL     1     -40.686  55.391 -54.400  1.00  0.00     0.034 A 
HETATM   32  C   UNL     1     -41.251  54.733 -53.306  1.00  0.00     0.062 A 
HETATM   33  N   UNL     1     -40.697  54.209 -52.169  1.00  0.00    -0.278 N 
HETATM   34  C   UNL     1     -42.615  54.496 -53.194  1.00  0.00     0.013 A 
HETATM   35  H   UNL     1     -39.718  54.200 -51.907  1.00  0.00     0.189 HD
HETATM   36  N   UNL     1     -41.589  53.654 -51.328  1.00  0.00    -0.186 NA
HETATM   37  C   UNL     1     -42.755  53.830 -51.956  1.00  0.00     0.152 A 
HETATM   38  C   UNL     1     -43.477  54.923 -54.222  1.00  0.00     0.044 A 
ENDBRANCH  27  29
ENDBRANCH   3  27
TORSDOF 5
ENDMDL
MODEL 10
REMARK VINA RESULT:      -7.4      2.315      5.356
REMARK  5 active torsions:
REMARK  status: ('A' for Active; 'I' for Inactive)
REMARK       I    between atoms: C_2  and  N_3 
REMARK    1  A    between atoms: C_2  and  C_31 
REMARK    2  A    between atoms: N_3  and  C_4 
REMARK    3  A    between atoms: C_9  and  C_10 
REMARK    4  A    between atoms: C_12  and  N_13 
REMARK    5  A    between atoms: N_13  and  C_14 
ROOT
HETATM    1  C   UNL     1     -41.850  56.510 -55.394  1.00  0.00     0.164 A 
HETATM    2  N   UNL     1     -42.059  56.276 -56.699  1.00  0.00    -0.210 NA
HETATM    3  C   UNL     1     -42.342  57.321 -57.497  1.00  0.00     0.143 A 
HETATM    4  C   UNL     1     -42.449  58.628 -56.998  1.00  0.00     0.039 A 
HETATM    5  C   UNL     1     -42.781  59.774 -57.767  1.00  0.00     0.018 A 
HETATM    6  C   UNL     1     -42.879  61.030 -57.172  1.00  0.00     0.001 A 
HETATM    7  C   UNL     1     -42.656  61.155 -55.809  1.00  0.00     0.002 A 
HETATM    8  C   UNL     1     -42.336  60.024 -55.053  1.00  0.00     0.032 A 
HETATM    9  C   UNL     1     -42.225  58.762 -55.624  1.00  0.00     0.073 A 
HETATM   10  N   UNL     1     -41.917  57.729 -54.834  1.00  0.00    -0.228 NA
ENDROOT
BRANCH   1  11
HETATM   11  C   UNL     1     -41.549  55.343 -54.528  1.00  0.00     0.039 A 
HETATM   12  C   UNL     1     -42.015  55.195 -53.192  1.00  0.00     0.049 A 
HETATM   13  C   UNL     1     -41.680  54.037 -52.470  1.00  0.00     0.030 A 
HETATM   14  C   UNL     1     -40.894  53.028 -53.029  1.00  0.00     0.002 A 
HETATM   15  C   UNL     1     -40.423  53.159 -54.325  1.00  0.00     0.001 A 
HETATM   16  C   UNL     1     -40.747  54.299 -55.058  1.00  0.00     0.018 A 
BRANCH  12  17
HETATM   17  N   UNL     1     -42.781  56.227 -52.594  1.00  0.00    -0.321 N 
HETATM   18  C   UNL     1     -42.462  57.041 -51.523  1.00  0.00     0.274 C 
HETATM   19  O   UNL     1     -41.457  56.986 -50.824  1.00  0.00    -0.266 OA
HETATM   20  H   UNL     1     -43.710  56.390 -52.994  1.00  0.00     0.169 HD
BRANCH  18  21
HETATM   21  C   UNL     1     -43.499  58.086 -51.229  1.00  0.00     0.124 A 
HETATM   22  C   UNL     1     -44.834  57.717 -51.105  1.00  0.00     0.037 A 
HETATM   23  C   UNL     1     -45.769  58.704 -50.803  1.00  0.00     0.004 A 
HETATM   24  C   UNL     1     -45.341  60.016 -50.630  1.00  0.00     0.019 A 
HETATM   25  C   UNL     1     -43.989  60.293 -50.770  1.00  0.00     0.117 A 
HETATM   26  N   UNL     1     -43.056  59.365 -51.074  1.00  0.00    -0.256 NA
ENDBRANCH  18  21
ENDBRANCH  12  17
ENDBRANCH   1  11
BRANCH   3  27
HETATM   27  N   UNL     1     -42.518  57.095 -58.890  1.00  0.00    -0.340 N 
HETATM   28  H   UNL     1     -41.736  56.543 -59.229  1.00  0.00     0.167 HD
BRANCH  27  29
HETATM   29  C   UNL     1     -43.722  56.772 -59.560  1.00  0.00     0.034 A 
HETATM   30  C   UNL     1     -44.031  55.456 -59.932  1.00  0.00     0.032 A 
HETATM   31  C   UNL     1     -45.244  55.113 -60.546  1.00  0.00     0.034 A 
HETATM   32  C   UNL     1     -46.157  56.147 -60.757  1.00  0.00     0.062 A 
HETATM   33  N   UNL     1     -47.407  56.163 -61.319  1.00  0.00    -0.278 N 
HETATM   34  C   UNL     1     -45.910  57.460 -60.376  1.00  0.00     0.013 A 
HETATM   35  H   UNL     1     -47.917  55.380 -61.709  1.00  0.00     0.189 HD
HETATM   36  N   UNL     1     -47.989  57.376 -61.331  1.00  0.00    -0.186 NA
HETATM   37  C   UNL     1     -47.075  58.163 -60.757  1.00  0.00     0.152 A 
HETATM   38  C   UNL     1     -44.686  57.779 -59.757  1.00  0.00     0.044 A 
ENDBRANCH  27  29
ENDBRANCH   3  27
TORSDOF 5
ENDMDL
