MODEL 1
REMARK VINA RESULT:      -7.5      0.000      0.000
REMARK  4 active torsions:
REMARK  status: ('A' for Active; 'I' for Inactive)
REMARK    1  A    between atoms: C_2  and  O_3 
REMARK    2  A    between atoms: O_3  and  C_4 
REMARK    3  A    between atoms: C_10  and  N_11 
REMARK       I    between atoms: N_11  and  C_12 
REMARK    4  A    between atoms: C_12  and  C_13 
ROOT
HETATM    1  N   UNL     1     -40.508  53.824 -51.463  1.00  0.00    -0.320 N 
HETATM    2  C   UNL     1     -41.764  54.396 -51.405  1.00  0.00     0.257 C 
HETATM    3  O   UNL     1     -42.829  53.800 -51.306  1.00  0.00    -0.267 OA
HETATM    4  H   UNL     1     -39.693  54.425 -51.409  1.00  0.00     0.169 HD
ENDROOT
BRANCH   2   5
HETATM    5  C   UNL     1     -41.794  55.881 -51.423  1.00  0.00     0.052 A 
HETATM    6  C   UNL     1     -41.025  56.564 -50.478  1.00  0.00     0.136 A 
HETATM    7  N   UNL     1     -40.938  57.910 -50.348  1.00  0.00    -0.238 NA
HETATM    8  C   UNL     1     -41.706  58.603 -51.215  1.00  0.00     0.177 A 
HETATM    9  C   UNL     1     -42.515  57.998 -52.170  1.00  0.00     0.083 A 
HETATM   10  N   UNL     1     -41.804  59.963 -51.273  1.00  0.00    -0.214 NA
HETATM   11  N   UNL     1     -43.126  59.050 -52.802  1.00  0.00    -0.342 N 
HETATM   12  C   UNL     1     -42.591  56.611 -52.313  1.00  0.00     0.052 A 
HETATM   13  H   UNL     1     -43.800  58.987 -53.552  1.00  0.00     0.167 HD
HETATM   14  C   UNL     1     -42.668  60.214 -52.235  1.00  0.00     0.103 A 
HETATM   15  C   UNL     1     -43.133  61.551 -52.673  1.00  0.00     0.091 C 
ENDBRANCH   2   5
BRANCH   1  16
HETATM   16  C   UNL     1     -40.193  52.447 -51.536  1.00  0.00     0.070 A 
HETATM   17  C   UNL     1     -39.904  51.911 -52.805  1.00  0.00     0.117 A 
HETATM   18  C   UNL     1     -39.668  50.537 -52.961  1.00  0.00     0.069 A 
HETATM   19 CL   UNL     1     -39.398  49.830 -54.513  1.00  0.00    -0.081 Cl
HETATM   20  C   UNL     1     -39.659  49.702 -51.844  1.00  0.00     0.027 A 
HETATM   21  C   UNL     1     -39.907  50.233 -50.580  1.00  0.00     0.004 A 
HETATM   22  C   UNL     1     -40.180  51.597 -50.428  1.00  0.00     0.032 A 
BRANCH  17  23
HETATM   23  O   UNL     1     -39.923  52.758 -53.892  1.00  0.00    -0.347 OA
BRANCH  23  24
HETATM   24  C   UNL     1     -41.223  52.766 -54.504  1.00  0.00     0.171 C 
HETATM   25  C   UNL     1     -41.471  54.153 -55.066  1.00  0.00     0.034 C 
ENDBRANCH  23  24
ENDBRANCH  17  23
ENDBRANCH   1  16
TORSDOF 4
ENDMDL
MODEL 2
REMARK VINA RESULT:      -7.5      1.644      2.628
REMARK  4 active torsions:
REMARK  status: ('A' for Active; 'I' for Inactive)
REMARK    1  A    between atoms: C_2  and  O_3 
REMARK    2  A    between atoms: O_3  and  C_4 
REMARK    3  A    between atoms: C_10  and  N_11 
REMARK       I    between atoms: N_11  and  C_12 
REMARK    4  A    between atoms: C_12  and  C_13 
ROOT
HETATM    1  N   UNL     1     -40.693  54.138 -52.838  1.00  0.00    -0.320 N 
HETATM    2  C   UNL     1     -41.891  54.718 -52.473  1.00  0.00     0.257 C 
HETATM    3  O   UNL     1     -42.924  54.128 -52.180  1.00  0.00    -0.267 OA
HETATM    4  H   UNL     1     -39.871  54.726 -52.928  1.00  0.00     0.169 HD
ENDROOT
BRANCH   2   5
HETATM    5  C   UNL     1     -41.890  56.201 -52.398  1.00  0.00     0.052 A 
HETATM    6  C   UNL     1     -41.146  56.905 -53.347  1.00  0.00     0.136 A 
HETATM    7  N   UNL     1     -41.028  58.252 -53.425  1.00  0.00    -0.238 NA
HETATM    8  C   UNL     1     -41.687  58.924 -52.456  1.00  0.00     0.177 A 
HETATM    9  C   UNL     1     -42.431  58.297 -51.464  1.00  0.00     0.083 A 
HETATM   10  N   UNL     1     -41.710  60.281 -52.309  1.00  0.00    -0.214 NA
HETATM   11  N   UNL     1     -42.895  59.331 -50.693  1.00  0.00    -0.342 N 
HETATM   12  C   UNL     1     -42.564  56.909 -51.396  1.00  0.00     0.052 A 
HETATM   13  H   UNL     1     -43.468  59.251 -49.864  1.00  0.00     0.167 HD
HETATM   14  C   UNL     1     -42.441  60.508 -51.238  1.00  0.00     0.103 A 
HETATM   15  C   UNL     1     -42.748  61.832 -50.647  1.00  0.00     0.091 C 
ENDBRANCH   2   5
BRANCH   1  16
HETATM   16  C   UNL     1     -40.433  52.764 -53.058  1.00  0.00     0.070 A 
HETATM   17  C   UNL     1     -39.878  52.028 -51.994  1.00  0.00     0.117 A 
HETATM   18  C   UNL     1     -39.517  50.684 -52.171  1.00  0.00     0.069 A 
HETATM   19 CL   UNL     1     -38.752  49.775 -50.919  1.00  0.00    -0.081 Cl
HETATM   20  C   UNL     1     -39.764  50.052 -53.390  1.00  0.00     0.027 A 
HETATM   21  C   UNL     1     -40.349  50.766 -54.434  1.00  0.00     0.004 A 
HETATM   22  C   UNL     1     -40.675  52.116 -54.272  1.00  0.00     0.032 A 
BRANCH  17  23
HETATM   23  O   UNL     1     -39.641  52.678 -50.803  1.00  0.00    -0.347 OA
BRANCH  23  24
HETATM   24  C   UNL     1     -40.698  52.417 -49.865  1.00  0.00     0.171 C 
HETATM   25  C   UNL     1     -40.725  53.552 -48.858  1.00  0.00     0.034 C 
ENDBRANCH  23  24
ENDBRANCH  17  23
ENDBRANCH   1  16
TORSDOF 4
ENDMDL
MODEL 3
REMARK VINA RESULT:      -7.2      3.691      5.404
REMARK  4 active torsions:
REMARK  status: ('A' for Active; 'I' for Inactive)
REMARK    1  A    between atoms: C_2  and  O_3 
REMARK    2  A    between atoms: O_3  and  C_4 
REMARK    3  A    between atoms: C_10  and  N_11 
REMARK       I    between atoms: N_11  and  C_12 
REMARK    4  A    between atoms: C_12  and  C_13 
ROOT
HETATM    1  N   UNL     1     -41.774  54.519 -53.952  1.00  0.00    -0.320 N 
HETATM    2  C   UNL     1     -41.575  55.783 -54.471  1.00  0.00     0.257 C 
HETATM    3  O   UNL     1     -40.919  56.683 -53.961  1.00  0.00    -0.267 OA
HETATM    4  H   UNL     1     -42.224  53.817 -54.529  1.00  0.00     0.169 HD
ENDROOT
BRANCH   2   5
HETATM    5  C   UNL     1     -42.193  56.036 -55.797  1.00  0.00     0.052 A 
HETATM    6  C   UNL     1     -42.214  57.350 -56.270  1.00  0.00     0.136 A 
HETATM    7  N   UNL     1     -42.739  57.762 -57.449  1.00  0.00    -0.238 NA
HETATM    8  C   UNL     1     -43.305  56.778 -58.179  1.00  0.00     0.177 A 
HETATM    9  C   UNL     1     -43.344  55.450 -57.769  1.00  0.00     0.083 A 
HETATM   10  N   UNL     1     -43.913  56.940 -59.391  1.00  0.00    -0.214 NA
HETATM   11  N   UNL     1     -44.020  54.812 -58.777  1.00  0.00    -0.342 N 
HETATM   12  C   UNL     1     -42.788  55.025 -56.561  1.00  0.00     0.052 A 
HETATM   13  H   UNL     1     -44.250  53.828 -58.814  1.00  0.00     0.167 HD
HETATM   14  C   UNL     1     -44.341  55.743 -59.734  1.00  0.00     0.103 A 
HETATM   15  C   UNL     1     -45.089  55.396 -60.966  1.00  0.00     0.091 C 
ENDBRANCH   2   5
BRANCH   1  16
HETATM   16  C   UNL     1     -41.365  54.035 -52.686  1.00  0.00     0.070 A 
HETATM   17  C   UNL     1     -40.478  52.942 -52.663  1.00  0.00     0.117 A 
HETATM   18  C   UNL     1     -40.101  52.358 -51.445  1.00  0.00     0.069 A 
HETATM   19 CL   UNL     1     -39.086  50.962 -51.380  1.00  0.00    -0.081 Cl
HETATM   20  C   UNL     1     -40.556  52.899 -50.243  1.00  0.00     0.027 A 
HETATM   21  C   UNL     1     -41.404  54.005 -50.259  1.00  0.00     0.004 A 
HETATM   22  C   UNL     1     -41.812  54.565 -51.474  1.00  0.00     0.032 A 
BRANCH  17  23
HETATM   23  O   UNL     1     -40.047  52.424 -53.865  1.00  0.00    -0.347 OA
BRANCH  23  24
HETATM   24  C   UNL     1     -40.849  51.295 -54.246  1.00  0.00     0.171 C 
HETATM   25  C   UNL     1     -39.917  50.141 -54.565  1.00  0.00     0.034 C 
ENDBRANCH  23  24
ENDBRANCH  17  23
ENDBRANCH   1  16
TORSDOF 4
ENDMDL
MODEL 4
REMARK VINA RESULT:      -7.1      3.725      5.146
REMARK  4 active torsions:
REMARK  status: ('A' for Active; 'I' for Inactive)
REMARK    1  A    between atoms: C_2  and  O_3 
REMARK    2  A    between atoms: O_3  and  C_4 
REMARK    3  A    between atoms: C_10  and  N_11 
REMARK       I    between atoms: N_11  and  C_12 
REMARK    4  A    between atoms: C_12  and  C_13 
ROOT
HETATM    1  N   UNL     1     -41.669  53.981 -54.635  1.00  0.00    -0.320 N 
HETATM    2  C   UNL     1     -41.268  55.240 -55.037  1.00  0.00     0.257 C 
HETATM    3  O   UNL     1     -40.192  55.771 -54.794  1.00  0.00    -0.267 OA
HETATM    4  H   UNL     1     -42.530  53.598 -55.011  1.00  0.00     0.169 HD
ENDROOT
BRANCH   2   5
HETATM    5  C   UNL     1     -42.239  55.984 -55.879  1.00  0.00     0.052 A 
HETATM    6  C   UNL     1     -42.633  57.256 -55.456  1.00  0.00     0.136 A 
HETATM    7  N   UNL     1     -43.508  58.069 -56.094  1.00  0.00    -0.238 NA
HETATM    8  C   UNL     1     -44.039  57.541 -57.219  1.00  0.00     0.177 A 
HETATM    9  C   UNL     1     -43.715  56.276 -57.694  1.00  0.00     0.083 A 
HETATM   10  N   UNL     1     -44.952  58.155 -58.026  1.00  0.00    -0.214 NA
HETATM   11  N   UNL     1     -44.486  56.137 -58.819  1.00  0.00    -0.342 N 
HETATM   12  C   UNL     1     -42.800  55.446 -57.044  1.00  0.00     0.052 A 
HETATM   13  H   UNL     1     -44.523  55.328 -59.423  1.00  0.00     0.167 HD
HETATM   14  C   UNL     1     -45.213  57.291 -58.985  1.00  0.00     0.103 A 
HETATM   15  C   UNL     1     -46.166  57.479 -60.104  1.00  0.00     0.091 C 
ENDBRANCH   2   5
BRANCH   1  16
HETATM   16  C   UNL     1     -40.981  53.093 -53.775  1.00  0.00     0.070 A 
HETATM   17  C   UNL     1     -41.077  53.323 -52.390  1.00  0.00     0.117 A 
HETATM   18  C   UNL     1     -40.351  52.534 -51.485  1.00  0.00     0.069 A 
HETATM   19 CL   UNL     1     -40.373  52.842 -49.786  1.00  0.00    -0.081 Cl
HETATM   20  C   UNL     1     -39.575  51.473 -51.953  1.00  0.00     0.027 A 
HETATM   21  C   UNL     1     -39.507  51.218 -53.322  1.00  0.00     0.004 A 
HETATM   22  C   UNL     1     -40.200  52.027 -54.228  1.00  0.00     0.032 A 
BRANCH  17  23
HETATM   23  O   UNL     1     -41.847  54.379 -51.954  1.00  0.00    -0.347 OA
BRANCH  23  24
HETATM   24  C   UNL     1     -43.187  53.945 -51.670  1.00  0.00     0.171 C 
HETATM   25  C   UNL     1     -43.708  54.759 -50.500  1.00  0.00     0.034 C 
ENDBRANCH  23  24
ENDBRANCH  17  23
ENDBRANCH   1  16
TORSDOF 4
ENDMDL
MODEL 5
REMARK VINA RESULT:      -7.1      2.498      3.765
REMARK  4 active torsions:
REMARK  status: ('A' for Active; 'I' for Inactive)
REMARK    1  A    between atoms: C_2  and  O_3 
REMARK    2  A    between atoms: O_3  and  C_4 
REMARK    3  A    between atoms: C_10  and  N_11 
REMARK       I    between atoms: N_11  and  C_12 
REMARK    4  A    between atoms: C_12  and  C_13 
ROOT
HETATM    1  N   UNL     1     -42.418  55.570 -52.663  1.00  0.00    -0.320 N 
HETATM    2  C   UNL     1     -42.054  56.874 -52.392  1.00  0.00     0.257 C 
HETATM    3  O   UNL     1     -40.976  57.396 -52.648  1.00  0.00    -0.267 OA
HETATM    4  H   UNL     1     -43.383  55.292 -52.526  1.00  0.00     0.169 HD
ENDROOT
BRANCH   2   5
HETATM    5  C   UNL     1     -43.106  57.716 -51.766  1.00  0.00     0.052 A 
HETATM    6  C   UNL     1     -44.292  57.096 -51.370  1.00  0.00     0.136 A 
HETATM    7  N   UNL     1     -45.354  57.707 -50.790  1.00  0.00    -0.238 NA
HETATM    8  C   UNL     1     -45.208  59.040 -50.632  1.00  0.00     0.177 A 
HETATM    9  C   UNL     1     -44.068  59.734 -51.019  1.00  0.00     0.083 A 
HETATM   10  N   UNL     1     -46.139  59.879 -50.090  1.00  0.00    -0.214 NA
HETATM   11  N   UNL     1     -44.352  61.039 -50.706  1.00  0.00    -0.342 N 
HETATM   12  C   UNL     1     -42.969  59.100 -51.601  1.00  0.00     0.052 A 
HETATM   13  H   UNL     1     -43.751  61.836 -50.862  1.00  0.00     0.167 HD
HETATM   14  C   UNL     1     -45.606  61.081 -50.146  1.00  0.00     0.103 A 
HETATM   15  C   UNL     1     -46.236  62.346 -49.698  1.00  0.00     0.091 C 
ENDBRANCH   2   5
BRANCH   1  16
HETATM   16  C   UNL     1     -41.599  54.540 -53.183  1.00  0.00     0.070 A 
HETATM   17  C   UNL     1     -41.146  53.554 -52.287  1.00  0.00     0.117 A 
HETATM   18  C   UNL     1     -40.262  52.553 -52.717  1.00  0.00     0.069 A 
HETATM   19 CL   UNL     1     -39.614  51.380 -51.628  1.00  0.00    -0.081 Cl
HETATM   20  C   UNL     1     -39.874  52.495 -54.056  1.00  0.00     0.027 A 
HETATM   21  C   UNL     1     -40.350  53.447 -54.956  1.00  0.00     0.004 A 
HETATM   22  C   UNL     1     -41.202  54.468 -54.521  1.00  0.00     0.032 A 
BRANCH  17  23
HETATM   23  O   UNL     1     -41.540  53.636 -50.970  1.00  0.00    -0.347 OA
BRANCH  23  24
HETATM   24  C   UNL     1     -40.524  54.271 -50.176  1.00  0.00     0.171 C 
HETATM   25  C   UNL     1     -41.209  55.180 -49.173  1.00  0.00     0.034 C 
ENDBRANCH  23  24
ENDBRANCH  17  23
ENDBRANCH   1  16
TORSDOF 4
ENDMDL
MODEL 6
REMARK VINA RESULT:      -7.1      3.368      7.455
REMARK  4 active torsions:
REMARK  status: ('A' for Active; 'I' for Inactive)
REMARK    1  A    between atoms: C_2  and  O_3 
REMARK    2  A    between atoms: O_3  and  C_4 
REMARK    3  A    between atoms: C_10  and  N_11 
REMARK       I    between atoms: N_11  and  C_12 
REMARK    4  A    between atoms: C_12  and  C_13 
ROOT
HETATM    1  N   UNL     1     -41.613  56.633 -51.373  1.00  0.00    -0.320 N 
HETATM    2  C   UNL     1     -41.343  55.657 -50.434  1.00  0.00     0.257 C 
HETATM    3  O   UNL     1     -41.460  55.765 -49.220  1.00  0.00    -0.267 OA
HETATM    4  H   UNL     1     -41.607  56.382 -52.356  1.00  0.00     0.169 HD
ENDROOT
BRANCH   2   5
HETATM    5  C   UNL     1     -40.909  54.345 -50.979  1.00  0.00     0.052 A 
HETATM    6  C   UNL     1     -40.458  53.379 -50.078  1.00  0.00     0.136 A 
HETATM    7  N   UNL     1     -40.022  52.136 -50.397  1.00  0.00    -0.238 NA
HETATM    8  C   UNL     1     -40.017  51.873 -51.721  1.00  0.00     0.177 A 
HETATM    9  C   UNL     1     -40.430  52.788 -52.682  1.00  0.00     0.083 A 
HETATM   10  N   UNL     1     -39.609  50.703 -52.294  1.00  0.00    -0.214 NA
HETATM   11  N   UNL     1     -40.238  52.130 -53.870  1.00  0.00    -0.342 N 
HETATM   12  C   UNL     1     -40.895  54.061 -52.350  1.00  0.00     0.052 A 
HETATM   13  H   UNL     1     -40.420  52.498 -54.794  1.00  0.00     0.167 HD
HETATM   14  C   UNL     1     -39.747  50.878 -53.592  1.00  0.00     0.103 A 
HETATM   15  C   UNL     1     -39.414  49.898 -54.652  1.00  0.00     0.091 C 
ENDBRANCH   2   5
BRANCH   1  16
HETATM   16  C   UNL     1     -41.969  57.981 -51.134  1.00  0.00     0.070 A 
HETATM   17  C   UNL     1     -43.279  58.377 -51.463  1.00  0.00     0.117 A 
HETATM   18  C   UNL     1     -43.671  59.718 -51.332  1.00  0.00     0.069 A 
HETATM   19 CL   UNL     1     -45.240  60.258 -51.808  1.00  0.00    -0.081 Cl
HETATM   20  C   UNL     1     -42.778  60.657 -50.815  1.00  0.00     0.027 A 
HETATM   21  C   UNL     1     -41.492  60.262 -50.453  1.00  0.00     0.004 A 
HETATM   22  C   UNL     1     -41.087  58.934 -50.618  1.00  0.00     0.032 A 
BRANCH  17  23
HETATM   23  O   UNL     1     -44.139  57.431 -51.974  1.00  0.00    -0.347 OA
BRANCH  23  24
HETATM   24  C   UNL     1     -44.241  57.559 -53.402  1.00  0.00     0.171 C 
HETATM   25  C   UNL     1     -43.900  56.216 -54.021  1.00  0.00     0.034 C 
ENDBRANCH  23  24
ENDBRANCH  17  23
ENDBRANCH   1  16
TORSDOF 4
ENDMDL
MODEL 7
REMARK VINA RESULT:      -7.0      3.902      5.189
REMARK  4 active torsions:
REMARK  status: ('A' for Active; 'I' for Inactive)
REMARK    1  A    between atoms: C_2  and  O_3 
REMARK    2  A    between atoms: O_3  and  C_4 
REMARK    3  A    between atoms: C_10  and  N_11 
REMARK       I    between atoms: N_11  and  C_12 
REMARK    4  A    between atoms: C_12  and  C_13 
ROOT
HETATM    1  N   UNL     1     -41.180  54.649 -54.942  1.00  0.00    -0.320 N 
HETATM    2  C   UNL     1     -42.422  54.710 -55.542  1.00  0.00     0.257 C 
HETATM    3  O   UNL     1     -43.377  53.980 -55.310  1.00  0.00    -0.267 OA
HETATM    4  H   UNL     1     -40.512  55.391 -55.119  1.00  0.00     0.169 HD
ENDROOT
BRANCH   2   5
HETATM    5  C   UNL     1     -42.603  55.804 -56.530  1.00  0.00     0.052 A 
HETATM    6  C   UNL     1     -43.133  55.475 -57.780  1.00  0.00     0.136 A 
HETATM    7  N   UNL     1     -43.361  56.340 -58.799  1.00  0.00    -0.238 NA
HETATM    8  C   UNL     1     -42.998  57.614 -58.537  1.00  0.00     0.177 A 
HETATM    9  C   UNL     1     -42.445  58.016 -57.327  1.00  0.00     0.083 A 
HETATM   10  N   UNL     1     -43.111  58.662 -59.404  1.00  0.00    -0.214 NA
HETATM   11  N   UNL     1     -42.207  59.356 -57.500  1.00  0.00    -0.342 N 
HETATM   12  C   UNL     1     -42.226  57.127 -56.274  1.00  0.00     0.052 A 
HETATM   13  H   UNL     1     -41.794  59.983 -56.824  1.00  0.00     0.167 HD
HETATM   14  C   UNL     1     -42.626  59.705 -58.762  1.00  0.00     0.103 A 
HETATM   15  C   UNL     1     -42.507  61.085 -59.288  1.00  0.00     0.091 C 
ENDBRANCH   2   5
BRANCH   1  16
HETATM   16  C   UNL     1     -40.713  53.674 -54.028  1.00  0.00     0.070 A 
HETATM   17  C   UNL     1     -40.685  54.021 -52.664  1.00  0.00     0.117 A 
HETATM   18  C   UNL     1     -40.154  53.134 -51.715  1.00  0.00     0.069 A 
HETATM   19 CL   UNL     1     -40.021  53.559 -50.047  1.00  0.00    -0.081 Cl
HETATM   20  C   UNL     1     -39.707  51.874 -52.113  1.00  0.00     0.027 A 
HETATM   21  C   UNL     1     -39.768  51.511 -53.457  1.00  0.00     0.004 A 
HETATM   22  C   UNL     1     -40.262  52.408 -54.410  1.00  0.00     0.032 A 
BRANCH  17  23
HETATM   23  O   UNL     1     -41.129  55.273 -52.299  1.00  0.00    -0.347 OA
BRANCH  23  24
HETATM   24  C   UNL     1     -42.477  55.207 -51.805  1.00  0.00     0.171 C 
HETATM   25  C   UNL     1     -43.232  56.412 -52.332  1.00  0.00     0.034 C 
ENDBRANCH  23  24
ENDBRANCH  17  23
ENDBRANCH   1  16
TORSDOF 4
ENDMDL
MODEL 8
REMARK VINA RESULT:      -7.0      3.245      4.691
REMARK  4 active torsions:
REMARK  status: ('A' for Active; 'I' for Inactive)
REMARK    1  A    between atoms: C_2  and  O_3 
REMARK    2  A    between atoms: O_3  and  C_4 
REMARK    3  A    between atoms: C_10  and  N_11 
REMARK       I    between atoms: N_11  and  C_12 
REMARK    4  A    between atoms: C_12  and  C_13 
ROOT
HETATM    1  N   UNL     1     -41.635  55.417 -52.763  1.00  0.00    -0.320 N 
HETATM    2  C   UNL     1     -42.874  55.990 -52.968  1.00  0.00     0.257 C 
HETATM    3  O   UNL     1     -43.742  56.168 -52.121  1.00  0.00    -0.267 OA
HETATM    4  H   UNL     1     -40.951  55.446 -53.511  1.00  0.00     0.169 HD
ENDROOT
BRANCH   2   5
HETATM    5  C   UNL     1     -43.140  56.466 -54.350  1.00  0.00     0.052 A 
HETATM    6  C   UNL     1     -44.316  57.184 -54.580  1.00  0.00     0.136 A 
HETATM    7  N   UNL     1     -44.719  57.687 -55.772  1.00  0.00    -0.238 NA
HETATM    8  C   UNL     1     -43.886  57.415 -56.799  1.00  0.00     0.177 A 
HETATM    9  C   UNL     1     -42.709  56.690 -56.656  1.00  0.00     0.083 A 
HETATM   10  N   UNL     1     -44.078  57.797 -58.096  1.00  0.00    -0.214 NA
HETATM   11  N   UNL     1     -42.200  56.629 -57.928  1.00  0.00    -0.342 N 
HETATM   12  C   UNL     1     -42.288  56.186 -55.424  1.00  0.00     0.052 A 
HETATM   13  H   UNL     1     -41.349  56.163 -58.210  1.00  0.00     0.167 HD
HETATM   14  C   UNL     1     -43.052  57.311 -58.763  1.00  0.00     0.103 A 
HETATM   15  C   UNL     1     -42.810  57.436 -60.220  1.00  0.00     0.091 C 
ENDBRANCH   2   5
BRANCH   1  16
HETATM   16  C   UNL     1     -41.150  54.818 -51.576  1.00  0.00     0.070 A 
HETATM   17  C   UNL     1     -40.912  53.431 -51.597  1.00  0.00     0.117 A 
HETATM   18  C   UNL     1     -40.514  52.759 -50.432  1.00  0.00     0.069 A 
HETATM   19 CL   UNL     1     -40.298  51.046 -50.397  1.00  0.00    -0.081 Cl
HETATM   20  C   UNL     1     -40.292  53.476 -49.256  1.00  0.00     0.027 A 
HETATM   21  C   UNL     1     -40.490  54.855 -49.240  1.00  0.00     0.004 A 
HETATM   22  C   UNL     1     -40.923  55.522 -50.391  1.00  0.00     0.032 A 
BRANCH  17  23
HETATM   23  O   UNL     1     -41.142  52.746 -52.770  1.00  0.00    -0.347 OA
BRANCH  23  24
HETATM   24  C   UNL     1     -39.902  52.436 -53.427  1.00  0.00     0.171 C 
HETATM   25  C   UNL     1     -40.075  51.122 -54.165  1.00  0.00     0.034 C 
ENDBRANCH  23  24
ENDBRANCH  17  23
ENDBRANCH   1  16
TORSDOF 4
ENDMDL
MODEL 9
REMARK VINA RESULT:      -6.8      2.338      2.890
REMARK  4 active torsions:
REMARK  status: ('A' for Active; 'I' for Inactive)
REMARK    1  A    between atoms: C_2  and  O_3 
REMARK    2  A    between atoms: O_3  and  C_4 
REMARK    3  A    between atoms: C_10  and  N_11 
REMARK       I    between atoms: N_11  and  C_12 
REMARK    4  A    between atoms: C_12  and  C_13 
ROOT
HETATM    1  N   UNL     1     -42.306  55.241 -51.534  1.00  0.00    -0.320 N 
HETATM    2  C   UNL     1     -41.993  56.584 -51.465  1.00  0.00     0.257 C 
HETATM    3  O   UNL     1     -40.875  57.075 -51.560  1.00  0.00    -0.267 OA
HETATM    4  H   UNL     1     -43.281  54.967 -51.576  1.00  0.00     0.169 HD
ENDROOT
BRANCH   2   5
HETATM    5  C   UNL     1     -43.147  57.504 -51.301  1.00  0.00     0.052 A 
HETATM    6  C   UNL     1     -44.397  56.945 -51.025  1.00  0.00     0.136 A 
HETATM    7  N   UNL     1     -45.553  57.631 -50.851  1.00  0.00    -0.238 NA
HETATM    8  C   UNL     1     -45.433  58.968 -50.997  1.00  0.00     0.177 A 
HETATM    9  C   UNL     1     -44.230  59.598 -51.293  1.00  0.00     0.083 A 
HETATM   10  N   UNL     1     -46.451  59.870 -50.887  1.00  0.00    -0.214 NA
HETATM   11  N   UNL     1     -44.563  60.925 -51.377  1.00  0.00    -0.342 N 
HETATM   12  C   UNL     1     -43.037  58.892 -51.456  1.00  0.00     0.052 A 
HETATM   13  H   UNL     1     -43.935  61.688 -51.592  1.00  0.00     0.167 HD
HETATM   14  C   UNL     1     -45.908  61.046 -51.122  1.00  0.00     0.103 A 
HETATM   15  C   UNL     1     -46.609  62.352 -51.141  1.00  0.00     0.091 C 
ENDBRANCH   2   5
BRANCH   1  16
HETATM   16  C   UNL     1     -41.407  54.151 -51.613  1.00  0.00     0.070 A 
HETATM   17  C   UNL     1     -41.188  53.579 -52.880  1.00  0.00     0.117 A 
HETATM   18  C   UNL     1     -40.376  52.443 -53.017  1.00  0.00     0.069 A 
HETATM   19 CL   UNL     1     -40.155  51.660 -54.540  1.00  0.00    -0.081 Cl
HETATM   20  C   UNL     1     -39.730  51.910 -51.902  1.00  0.00     0.027 A 
HETATM   21  C   UNL     1     -39.913  52.496 -50.651  1.00  0.00     0.004 A 
HETATM   22  C   UNL     1     -40.752  53.606 -50.506  1.00  0.00     0.032 A 
BRANCH  17  23
HETATM   23  O   UNL     1     -41.841  54.122 -53.965  1.00  0.00    -0.347 OA
BRANCH  23  24
HETATM   24  C   UNL     1     -40.962  54.985 -54.704  1.00  0.00     0.171 C 
HETATM   25  C   UNL     1     -41.762  56.188 -55.167  1.00  0.00     0.034 C 
ENDBRANCH  23  24
ENDBRANCH  17  23
ENDBRANCH   1  16
TORSDOF 4
ENDMDL
MODEL 10
REMARK VINA RESULT:      -6.7      3.596      4.679
REMARK  4 active torsions:
REMARK  status: ('A' for Active; 'I' for Inactive)
REMARK    1  A    between atoms: C_2  and  O_3 
REMARK    2  A    between atoms: O_3  and  C_4 
REMARK    3  A    between atoms: C_10  and  N_11 
REMARK       I    between atoms: N_11  and  C_12 
REMARK    4  A    between atoms: C_12  and  C_13 
ROOT
HETATM    1  N   UNL     1     -42.331  55.498 -52.755  1.00  0.00    -0.320 N 
HETATM    2  C   UNL     1     -41.834  56.464 -53.608  1.00  0.00     0.257 C 
HETATM    3  O   UNL     1     -40.727  56.986 -53.549  1.00  0.00    -0.267 OA
HETATM    4  H   UNL     1     -43.209  55.047 -52.984  1.00  0.00     0.169 HD
ENDROOT
BRANCH   2   5
HETATM    5  C   UNL     1     -42.735  56.862 -54.720  1.00  0.00     0.052 A 
HETATM    6  C   UNL     1     -42.189  56.958 -56.002  1.00  0.00     0.136 A 
HETATM    7  N   UNL     1     -42.858  57.310 -57.126  1.00  0.00    -0.238 NA
HETATM    8  C   UNL     1     -44.159  57.613 -56.926  1.00  0.00     0.177 A 
HETATM    9  C   UNL     1     -44.770  57.563 -55.679  1.00  0.00     0.083 A 
HETATM   10  N   UNL     1     -45.037  58.010 -57.893  1.00  0.00    -0.214 NA
HETATM   11  N   UNL     1     -46.058  57.966 -55.925  1.00  0.00    -0.342 N 
HETATM   12  C   UNL     1     -44.083  57.184 -54.525  1.00  0.00     0.052 A 
HETATM   13  H   UNL     1     -46.795  58.064 -55.241  1.00  0.00     0.167 HD
HETATM   14  C   UNL     1     -46.177  58.221 -57.269  1.00  0.00     0.103 A 
HETATM   15  C   UNL     1     -47.442  58.690 -57.883  1.00  0.00     0.091 C 
ENDBRANCH   2   5
BRANCH   1  16
HETATM   16  C   UNL     1     -41.723  54.993 -51.581  1.00  0.00     0.070 A 
HETATM   17  C   UNL     1     -41.279  53.657 -51.602  1.00  0.00     0.117 A 
HETATM   18  C   UNL     1     -40.746  53.067 -50.446  1.00  0.00     0.069 A 
HETATM   19 CL   UNL     1     -40.273  51.406 -50.408  1.00  0.00    -0.081 Cl
HETATM   20  C   UNL     1     -40.596  53.823 -49.284  1.00  0.00     0.027 A 
HETATM   21  C   UNL     1     -40.999  55.157 -49.270  1.00  0.00     0.004 A 
HETATM   22  C   UNL     1     -41.565  55.737 -50.409  1.00  0.00     0.032 A 
BRANCH  17  23
HETATM   23  O   UNL     1     -41.442  52.932 -52.762  1.00  0.00    -0.347 OA
BRANCH  23  24
HETATM   24  C   UNL     1     -40.203  52.848 -53.484  1.00  0.00     0.171 C 
HETATM   25  C   UNL     1     -40.204  51.552 -54.273  1.00  0.00     0.034 C 
ENDBRANCH  23  24
ENDBRANCH  17  23
ENDBRANCH   1  16
TORSDOF 4
ENDMDL
