MODEL 1
REMARK VINA RESULT:      -8.1      0.000      0.000
REMARK  4 active torsions:
REMARK  status: ('A' for Active; 'I' for Inactive)
REMARK    1  A    between atoms: C_6  and  C_7 
REMARK    2  A    between atoms: C_9  and  C_10 
REMARK    3  A    between atoms: C_10  and  C_11 
REMARK    4  A    between atoms: C_15  and  N_16 
ROOT
HETATM    1  C   UNL     1     -41.059  55.240 -51.373  1.00  0.00     0.112 A 
HETATM    2  O   UNL     1     -41.863  56.076 -52.103  1.00  0.00    -0.308 OA
HETATM    3  C   UNL     1     -42.017  57.277 -51.440  1.00  0.00     0.077 A 
HETATM    4  C   UNL     1     -41.308  57.173 -50.250  1.00  0.00     0.040 A 
HETATM    5  C   UNL     1     -40.699  55.897 -50.213  1.00  0.00     0.043 A 
ENDROOT
BRANCH   3   6
HETATM    6  C   UNL     1     -42.826  58.308 -51.999  1.00  0.00     0.059 C 
BRANCH   6   7
HETATM    7  C   UNL     1     -43.838  58.950 -51.404  1.00  0.00     0.053 A 
HETATM    8  S   UNL     1     -44.070  60.627 -51.104  1.00  0.00    -0.024 SA
HETATM    9  C   UNL     1     -45.600  60.297 -50.282  1.00  0.00     0.312 A 
HETATM   10  O   UNL     1     -46.260  61.197 -49.787  1.00  0.00    -0.258 OA
HETATM   11  N   UNL     1     -45.949  58.965 -50.276  1.00  0.00    -0.191 NA
HETATM   12  C   UNL     1     -45.043  58.235 -50.866  1.00  0.00     0.122 A 
BRANCH  12  13
HETATM   13  N   UNL     1     -45.263  56.887 -50.951  1.00  0.00    -0.286 NA
HETATM   14  H   UNL     1     -46.056  56.579 -51.502  1.00  0.00     0.125 HD
HETATM   15  H   UNL     1     -45.231  56.435 -50.041  1.00  0.00     0.125 HD
ENDBRANCH  12  13
ENDBRANCH   6   7
ENDBRANCH   3   6
BRANCH   1  16
HETATM   16  C   UNL     1     -40.693  53.911 -51.783  1.00  0.00     0.133 A 
HETATM   17  S   UNL     1     -40.185  52.718 -50.663  1.00  0.00    -0.066 SA
HETATM   18  C   UNL     1     -39.981  51.593 -51.951  1.00  0.00     0.035 A 
HETATM   19  C   UNL     1     -40.323  52.217 -53.153  1.00  0.00     0.075 A 
HETATM   20  C   UNL     1     -39.551  50.257 -51.904  1.00  0.00     0.021 A 
HETATM   21  C   UNL     1     -40.231  51.477 -54.350  1.00  0.00     0.033 A 
HETATM   22  N   UNL     1     -40.727  53.536 -53.044  1.00  0.00    -0.238 NA
HETATM   23  C   UNL     1     -39.804  50.146 -54.315  1.00  0.00     0.002 A 
HETATM   24  C   UNL     1     -39.469  49.546 -53.106  1.00  0.00     0.002 A 
ENDBRANCH   1  16
TORSDOF 4
ENDMDL
MODEL 2
REMARK VINA RESULT:      -7.8      5.246      6.435
REMARK  4 active torsions:
REMARK  status: ('A' for Active; 'I' for Inactive)
REMARK    1  A    between atoms: C_6  and  C_7 
REMARK    2  A    between atoms: C_9  and  C_10 
REMARK    3  A    between atoms: C_10  and  C_11 
REMARK    4  A    between atoms: C_15  and  N_16 
ROOT
HETATM    1  C   UNL     1     -43.118  56.037 -54.546  1.00  0.00     0.112 A 
HETATM    2  O   UNL     1     -43.174  56.351 -55.878  1.00  0.00    -0.308 OA
HETATM    3  C   UNL     1     -44.085  57.366 -56.084  1.00  0.00     0.077 A 
HETATM    4  C   UNL     1     -44.631  57.673 -54.845  1.00  0.00     0.040 A 
HETATM    5  C   UNL     1     -44.016  56.845 -53.877  1.00  0.00     0.043 A 
ENDROOT
BRANCH   3   6
HETATM    6  C   UNL     1     -44.329  57.857 -57.399  1.00  0.00     0.059 C 
BRANCH   6   7
HETATM    7  C   UNL     1     -44.285  57.161 -58.541  1.00  0.00     0.053 A 
HETATM    8  S   UNL     1     -45.554  56.486 -59.483  1.00  0.00    -0.024 SA
HETATM    9  C   UNL     1     -44.386  55.811 -60.626  1.00  0.00     0.312 A 
HETATM   10  O   UNL     1     -44.747  55.141 -61.580  1.00  0.00    -0.258 OA
HETATM   11  N   UNL     1     -43.079  56.127 -60.331  1.00  0.00    -0.191 NA
HETATM   12  C   UNL     1     -42.997  56.842 -59.243  1.00  0.00     0.122 A 
BRANCH  12  13
HETATM   13  N   UNL     1     -41.755  57.245 -58.833  1.00  0.00    -0.286 NA
HETATM   14  H   UNL     1     -41.422  56.894 -57.943  1.00  0.00     0.125 HD
HETATM   15  H   UNL     1     -41.632  58.251 -58.918  1.00  0.00     0.125 HD
ENDBRANCH  12  13
ENDBRANCH   6   7
ENDBRANCH   3   6
BRANCH   1  16
HETATM   16  C   UNL     1     -42.262  55.023 -53.990  1.00  0.00     0.133 A 
HETATM   17  S   UNL     1     -41.713  55.081 -52.368  1.00  0.00    -0.066 SA
HETATM   18  C   UNL     1     -40.844  53.614 -52.608  1.00  0.00     0.035 A 
HETATM   19  C   UNL     1     -41.042  53.182 -53.921  1.00  0.00     0.075 A 
HETATM   20  C   UNL     1     -40.045  52.896 -51.703  1.00  0.00     0.021 A 
HETATM   21  C   UNL     1     -40.419  51.990 -54.343  1.00  0.00     0.033 A 
HETATM   22  N   UNL     1     -41.851  53.992 -54.698  1.00  0.00    -0.238 NA
HETATM   23  C   UNL     1     -39.622  51.266 -53.450  1.00  0.00     0.002 A 
HETATM   24  C   UNL     1     -39.439  51.716 -52.147  1.00  0.00     0.002 A 
ENDBRANCH   1  16
TORSDOF 4
ENDMDL
MODEL 3
REMARK VINA RESULT:      -7.7      3.034      8.543
REMARK  4 active torsions:
REMARK  status: ('A' for Active; 'I' for Inactive)
REMARK    1  A    between atoms: C_6  and  C_7 
REMARK    2  A    between atoms: C_9  and  C_10 
REMARK    3  A    between atoms: C_10  and  C_11 
REMARK    4  A    between atoms: C_15  and  N_16 
ROOT
HETATM    1  C   UNL     1     -42.231  55.376 -53.589  1.00  0.00     0.112 A 
HETATM    2  O   UNL     1     -41.129  54.572 -53.458  1.00  0.00    -0.308 OA
HETATM    3  C   UNL     1     -41.237  53.487 -54.304  1.00  0.00     0.077 A 
HETATM    4  C   UNL     1     -42.455  53.608 -54.960  1.00  0.00     0.040 A 
HETATM    5  C   UNL     1     -43.074  54.800 -54.518  1.00  0.00     0.043 A 
ENDROOT
BRANCH   3   6
HETATM    6  C   UNL     1     -40.213  52.497 -54.336  1.00  0.00     0.059 C 
BRANCH   6   7
HETATM    7  C   UNL     1     -39.959  51.569 -53.407  1.00  0.00     0.053 A 
HETATM    8  S   UNL     1     -39.717  51.728 -51.712  1.00  0.00    -0.024 SA
HETATM    9  C   UNL     1     -39.429  49.990 -51.561  1.00  0.00     0.312 A 
HETATM   10  O   UNL     1     -39.153  49.484 -50.485  1.00  0.00    -0.258 OA
HETATM   11  N   UNL     1     -39.559  49.303 -52.748  1.00  0.00    -0.191 NA
HETATM   12  C   UNL     1     -39.844  50.108 -53.734  1.00  0.00     0.122 A 
BRANCH  12  13
HETATM   13  N   UNL     1     -40.019  49.563 -54.976  1.00  0.00    -0.286 NA
HETATM   14  H   UNL     1     -39.392  48.816 -55.249  1.00  0.00     0.125 HD
HETATM   15  H   UNL     1     -40.105  50.274 -55.698  1.00  0.00     0.125 HD
ENDBRANCH  12  13
ENDBRANCH   6   7
ENDBRANCH   3   6
BRANCH   1  16
HETATM   16  C   UNL     1     -42.432  56.595 -52.853  1.00  0.00     0.133 A 
HETATM   17  S   UNL     1     -43.960  57.367 -52.766  1.00  0.00    -0.066 SA
HETATM   18  C   UNL     1     -43.279  58.608 -51.785  1.00  0.00     0.035 A 
HETATM   19  C   UNL     1     -41.923  58.337 -51.592  1.00  0.00     0.075 A 
HETATM   20  C   UNL     1     -43.897  59.738 -51.227  1.00  0.00     0.021 A 
HETATM   21  C   UNL     1     -41.159  59.229 -50.813  1.00  0.00     0.033 A 
HETATM   22  N   UNL     1     -41.453  57.189 -52.205  1.00  0.00    -0.238 NA
HETATM   23  C   UNL     1     -41.764  60.358 -50.252  1.00  0.00     0.002 A 
HETATM   24  C   UNL     1     -43.117  60.607 -50.458  1.00  0.00     0.002 A 
ENDBRANCH   1  16
TORSDOF 4
ENDMDL
MODEL 4
REMARK VINA RESULT:      -7.7      1.713      2.083
REMARK  4 active torsions:
REMARK  status: ('A' for Active; 'I' for Inactive)
REMARK    1  A    between atoms: C_6  and  C_7 
REMARK    2  A    between atoms: C_9  and  C_10 
REMARK    3  A    between atoms: C_10  and  C_11 
REMARK    4  A    between atoms: C_15  and  N_16 
ROOT
HETATM    1  C   UNL     1     -41.595  56.121 -53.390  1.00  0.00     0.112 A 
HETATM    2  O   UNL     1     -42.912  56.496 -53.347  1.00  0.00    -0.308 OA
HETATM    3  C   UNL     1     -43.011  57.872 -53.389  1.00  0.00     0.077 A 
HETATM    4  C   UNL     1     -41.714  58.366 -53.432  1.00  0.00     0.040 A 
HETATM    5  C   UNL     1     -40.825  57.266 -53.443  1.00  0.00     0.043 A 
ENDROOT
BRANCH   3   6
HETATM    6  C   UNL     1     -44.287  58.503 -53.342  1.00  0.00     0.059 C 
BRANCH   6   7
HETATM    7  C   UNL     1     -44.859  59.088 -52.284  1.00  0.00     0.053 A 
HETATM    8  S   UNL     1     -45.265  60.736 -52.007  1.00  0.00    -0.024 SA
HETATM    9  C   UNL     1     -45.858  60.348 -50.387  1.00  0.00     0.312 A 
HETATM   10  O   UNL     1     -46.283  61.217 -49.643  1.00  0.00    -0.258 OA
HETATM   11  N   UNL     1     -45.795  59.007 -50.082  1.00  0.00    -0.191 NA
HETATM   12  C   UNL     1     -45.280  58.320 -51.065  1.00  0.00     0.122 A 
BRANCH  12  13
HETATM   13  N   UNL     1     -45.169  56.965 -50.910  1.00  0.00    -0.286 NA
HETATM   14  H   UNL     1     -44.540  56.476 -51.535  1.00  0.00     0.125 HD
HETATM   15  H   UNL     1     -46.077  56.511 -50.849  1.00  0.00     0.125 HD
ENDBRANCH  12  13
ENDBRANCH   6   7
ENDBRANCH   3   6
BRANCH   1  16
HETATM   16  C   UNL     1     -41.143  54.756 -53.368  1.00  0.00     0.133 A 
HETATM   17  S   UNL     1     -41.170  53.765 -54.766  1.00  0.00    -0.066 SA
HETATM   18  C   UNL     1     -40.520  52.457 -53.853  1.00  0.00     0.035 A 
HETATM   19  C   UNL     1     -40.326  52.879 -52.536  1.00  0.00     0.075 A 
HETATM   20  C   UNL     1     -40.205  51.153 -54.269  1.00  0.00     0.021 A 
HETATM   21  C   UNL     1     -39.798  51.964 -51.603  1.00  0.00     0.033 A 
HETATM   22  N   UNL     1     -40.685  54.189 -52.273  1.00  0.00    -0.238 NA
HETATM   23  C   UNL     1     -39.480  50.663 -52.006  1.00  0.00     0.002 A 
HETATM   24  C   UNL     1     -39.682  50.265 -53.323  1.00  0.00     0.002 A 
ENDBRANCH   1  16
TORSDOF 4
ENDMDL
MODEL 5
REMARK VINA RESULT:      -7.7      2.775      3.151
REMARK  4 active torsions:
REMARK  status: ('A' for Active; 'I' for Inactive)
REMARK    1  A    between atoms: C_6  and  C_7 
REMARK    2  A    between atoms: C_9  and  C_10 
REMARK    3  A    between atoms: C_10  and  C_11 
REMARK    4  A    between atoms: C_15  and  N_16 
ROOT
HETATM    1  C   UNL     1     -41.050  55.075 -51.300  1.00  0.00     0.112 A 
HETATM    2  O   UNL     1     -41.776  55.965 -52.047  1.00  0.00    -0.308 OA
HETATM    3  C   UNL     1     -41.959  57.135 -51.339  1.00  0.00     0.077 A 
HETATM    4  C   UNL     1     -41.350  56.956 -50.104  1.00  0.00     0.040 A 
HETATM    5  C   UNL     1     -40.771  55.666 -50.083  1.00  0.00     0.043 A 
ENDROOT
BRANCH   3   6
HETATM    6  C   UNL     1     -42.700  58.211 -51.907  1.00  0.00     0.059 C 
BRANCH   6   7
HETATM    7  C   UNL     1     -42.694  58.608 -53.185  1.00  0.00     0.053 A 
HETATM    8  S   UNL     1     -43.962  58.645 -54.345  1.00  0.00    -0.024 SA
HETATM    9  C   UNL     1     -42.852  59.251 -55.581  1.00  0.00     0.312 A 
HETATM   10  O   UNL     1     -43.228  59.456 -56.724  1.00  0.00    -0.258 OA
HETATM   11  N   UNL     1     -41.573  59.464 -55.118  1.00  0.00    -0.191 NA
HETATM   12  C   UNL     1     -41.463  59.141 -53.859  1.00  0.00     0.122 A 
BRANCH  12  13
HETATM   13  N   UNL     1     -40.247  59.316 -53.256  1.00  0.00    -0.286 NA
HETATM   14  H   UNL     1     -39.980  58.645 -52.546  1.00  0.00     0.125 HD
HETATM   15  H   UNL     1     -40.106  60.275 -52.949  1.00  0.00     0.125 HD
ENDBRANCH  12  13
ENDBRANCH   6   7
ENDBRANCH   3   6
BRANCH   1  16
HETATM   16  C   UNL     1     -40.679  53.760 -51.746  1.00  0.00     0.133 A 
HETATM   17  S   UNL     1     -40.190  52.530 -50.657  1.00  0.00    -0.066 SA
HETATM   18  C   UNL     1     -39.966  51.447 -51.977  1.00  0.00     0.035 A 
HETATM   19  C   UNL     1     -40.287  52.109 -53.164  1.00  0.00     0.075 A 
HETATM   20  C   UNL     1     -39.539  50.110 -51.966  1.00  0.00     0.021 A 
HETATM   21  C   UNL     1     -40.176  51.409 -54.382  1.00  0.00     0.033 A 
HETATM   22  N   UNL     1     -40.691  53.425 -53.019  1.00  0.00    -0.238 NA
HETATM   23  C   UNL     1     -39.752  50.077 -54.383  1.00  0.00     0.002 A 
HETATM   24  C   UNL     1     -39.437  49.437 -53.188  1.00  0.00     0.002 A 
ENDBRANCH   1  16
TORSDOF 4
ENDMDL
MODEL 6
REMARK VINA RESULT:      -7.7      4.179      5.287
REMARK  4 active torsions:
REMARK  status: ('A' for Active; 'I' for Inactive)
REMARK    1  A    between atoms: C_6  and  C_7 
REMARK    2  A    between atoms: C_9  and  C_10 
REMARK    3  A    between atoms: C_10  and  C_11 
REMARK    4  A    between atoms: C_15  and  N_16 
ROOT
HETATM    1  C   UNL     1     -41.206  55.488 -53.515  1.00  0.00     0.112 A 
HETATM    2  O   UNL     1     -41.944  55.774 -54.633  1.00  0.00    -0.308 OA
HETATM    3  C   UNL     1     -42.160  57.134 -54.719  1.00  0.00     0.077 A 
HETATM    4  C   UNL     1     -41.559  57.707 -53.605  1.00  0.00     0.040 A 
HETATM    5  C   UNL     1     -40.952  56.674 -52.854  1.00  0.00     0.043 A 
ENDROOT
BRANCH   3   6
HETATM    6  C   UNL     1     -42.919  57.675 -55.796  1.00  0.00     0.059 C 
BRANCH   6   7
HETATM    7  C   UNL     1     -42.711  57.486 -57.104  1.00  0.00     0.053 A 
HETATM    8  S   UNL     1     -42.083  58.553 -58.297  1.00  0.00    -0.024 SA
HETATM    9  C   UNL     1     -42.313  57.329 -59.553  1.00  0.00     0.312 A 
HETATM   10  O   UNL     1     -42.040  57.560 -60.720  1.00  0.00    -0.258 OA
HETATM   11  N   UNL     1     -42.805  56.135 -59.077  1.00  0.00    -0.191 NA
HETATM   12  C   UNL     1     -43.017  56.187 -57.791  1.00  0.00     0.122 A 
BRANCH  12  13
HETATM   13  N   UNL     1     -43.493  55.062 -57.174  1.00  0.00    -0.286 NA
HETATM   14  H   UNL     1     -43.484  54.201 -57.706  1.00  0.00     0.125 HD
HETATM   15  H   UNL     1     -44.390  55.223 -56.721  1.00  0.00     0.125 HD
ENDBRANCH  12  13
ENDBRANCH   6   7
ENDBRANCH   3   6
BRANCH   1  16
HETATM   16  C   UNL     1     -40.801  54.162 -53.132  1.00  0.00     0.133 A 
HETATM   17  S   UNL     1     -40.480  53.741 -51.502  1.00  0.00    -0.066 SA
HETATM   18  C   UNL     1     -40.103  52.133 -51.990  1.00  0.00     0.035 A 
HETATM   19  C   UNL     1     -40.255  52.035 -53.375  1.00  0.00     0.075 A 
HETATM   20  C   UNL     1     -39.702  51.038 -51.208  1.00  0.00     0.021 A 
HETATM   21  C   UNL     1     -39.996  50.797 -53.998  1.00  0.00     0.033 A 
HETATM   22  N   UNL     1     -40.652  53.196 -54.013  1.00  0.00    -0.238 NA
HETATM   23  C   UNL     1     -39.597  49.699 -53.229  1.00  0.00     0.002 A 
HETATM   24  C   UNL     1     -39.453  49.821 -51.851  1.00  0.00     0.002 A 
ENDBRANCH   1  16
TORSDOF 4
ENDMDL
MODEL 7
REMARK VINA RESULT:      -7.5      5.722      6.826
REMARK  4 active torsions:
REMARK  status: ('A' for Active; 'I' for Inactive)
REMARK    1  A    between atoms: C_6  and  C_7 
REMARK    2  A    between atoms: C_9  and  C_10 
REMARK    3  A    between atoms: C_10  and  C_11 
REMARK    4  A    between atoms: C_15  and  N_16 
ROOT
HETATM    1  C   UNL     1     -43.261  56.213 -54.791  1.00  0.00     0.112 A 
HETATM    2  O   UNL     1     -43.133  56.414 -56.140  1.00  0.00    -0.308 OA
HETATM    3  C   UNL     1     -44.069  57.333 -56.570  1.00  0.00     0.077 A 
HETATM    4  C   UNL     1     -44.818  57.692 -55.457  1.00  0.00     0.040 A 
HETATM    5  C   UNL     1     -44.304  56.996 -54.338  1.00  0.00     0.043 A 
ENDROOT
BRANCH   3   6
HETATM    6  C   UNL     1     -44.140  57.696 -57.945  1.00  0.00     0.059 C 
BRANCH   6   7
HETATM    7  C   UNL     1     -44.496  56.912 -58.969  1.00  0.00     0.053 A 
HETATM    8  S   UNL     1     -43.530  56.052 -60.101  1.00  0.00    -0.024 SA
HETATM    9  C   UNL     1     -44.975  55.474 -60.939  1.00  0.00     0.312 A 
HETATM   10  O   UNL     1     -44.892  54.774 -61.936  1.00  0.00    -0.258 OA
HETATM   11  N   UNL     1     -46.153  55.879 -60.354  1.00  0.00    -0.191 NA
HETATM   12  C   UNL     1     -45.931  56.631 -59.311  1.00  0.00     0.122 A 
BRANCH  12  13
HETATM   13  N   UNL     1     -47.012  57.097 -58.615  1.00  0.00    -0.286 NA
HETATM   14  H   UNL     1     -47.781  57.480 -59.152  1.00  0.00     0.125 HD
HETATM   15  H   UNL     1     -46.741  57.707 -57.847  1.00  0.00     0.125 HD
ENDBRANCH  12  13
ENDBRANCH   6   7
ENDBRANCH   3   6
BRANCH   1  16
HETATM   16  C   UNL     1     -42.434  55.319 -54.026  1.00  0.00     0.133 A 
HETATM   17  S   UNL     1     -41.801  53.871 -54.687  1.00  0.00    -0.066 SA
HETATM   18  C   UNL     1     -41.035  53.518 -53.185  1.00  0.00     0.035 A 
HETATM   19  C   UNL     1     -41.320  54.543 -52.281  1.00  0.00     0.075 A 
HETATM   20  C   UNL     1     -40.241  52.415 -52.830  1.00  0.00     0.021 A 
HETATM   21  C   UNL     1     -40.792  54.463 -50.977  1.00  0.00     0.033 A 
HETATM   22  N   UNL     1     -42.117  55.563 -52.772  1.00  0.00    -0.238 NA
HETATM   23  C   UNL     1     -40.000  53.369 -50.613  1.00  0.00     0.002 A 
HETATM   24  C   UNL     1     -39.729  52.360 -51.530  1.00  0.00     0.002 A 
ENDBRANCH   1  16
TORSDOF 4
ENDMDL
MODEL 8
REMARK VINA RESULT:      -7.4      2.492      2.881
REMARK  4 active torsions:
REMARK  status: ('A' for Active; 'I' for Inactive)
REMARK    1  A    between atoms: C_6  and  C_7 
REMARK    2  A    between atoms: C_9  and  C_10 
REMARK    3  A    between atoms: C_10  and  C_11 
REMARK    4  A    between atoms: C_15  and  N_16 
ROOT
HETATM    1  C   UNL     1     -41.236  55.540 -54.065  1.00  0.00     0.112 A 
HETATM    2  O   UNL     1     -40.917  56.710 -53.426  1.00  0.00    -0.308 OA
HETATM    3  C   UNL     1     -41.452  57.781 -54.111  1.00  0.00     0.077 A 
HETATM    4  C   UNL     1     -42.100  57.262 -55.225  1.00  0.00     0.040 A 
HETATM    5  C   UNL     1     -41.973  55.854 -55.190  1.00  0.00     0.043 A 
ENDROOT
BRANCH   3   6
HETATM    6  C   UNL     1     -41.242  59.111 -53.645  1.00  0.00     0.059 C 
BRANCH   6   7
HETATM    7  C   UNL     1     -41.726  59.658 -52.524  1.00  0.00     0.053 A 
HETATM    8  S   UNL     1     -43.098  60.664 -52.278  1.00  0.00    -0.024 SA
HETATM    9  C   UNL     1     -42.729  60.796 -50.555  1.00  0.00     0.312 A 
HETATM   10  O   UNL     1     -43.416  61.477 -49.810  1.00  0.00    -0.258 OA
HETATM   11  N   UNL     1     -41.629  60.064 -50.167  1.00  0.00    -0.191 NA
HETATM   12  C   UNL     1     -41.086  59.449 -51.182  1.00  0.00     0.122 A 
BRANCH  12  13
HETATM   13  N   UNL     1     -39.989  58.667 -50.945  1.00  0.00    -0.286 NA
HETATM   14  H   UNL     1     -39.160  58.849 -51.497  1.00  0.00     0.125 HD
HETATM   15  H   UNL     1     -40.223  57.677 -50.921  1.00  0.00     0.125 HD
ENDBRANCH  12  13
ENDBRANCH   6   7
ENDBRANCH   3   6
BRANCH   1  16
HETATM   16  C   UNL     1     -40.838  54.236 -53.608  1.00  0.00     0.133 A 
HETATM   17  S   UNL     1     -40.470  53.919 -51.964  1.00  0.00    -0.066 SA
HETATM   18  C   UNL     1     -40.132  52.276 -52.356  1.00  0.00     0.035 A 
HETATM   19  C   UNL     1     -40.330  52.089 -53.725  1.00  0.00     0.075 A 
HETATM   20  C   UNL     1     -39.722  51.229 -51.515  1.00  0.00     0.021 A 
HETATM   21  C   UNL     1     -40.110  50.808 -54.273  1.00  0.00     0.033 A 
HETATM   22  N   UNL     1     -40.732  53.212 -54.427  1.00  0.00    -0.238 NA
HETATM   23  C   UNL     1     -39.702  49.758 -53.445  1.00  0.00     0.002 A 
HETATM   24  C   UNL     1     -39.511  49.968 -52.083  1.00  0.00     0.002 A 
ENDBRANCH   1  16
TORSDOF 4
ENDMDL
MODEL 9
REMARK VINA RESULT:      -7.3      4.330      5.407
REMARK  4 active torsions:
REMARK  status: ('A' for Active; 'I' for Inactive)
REMARK    1  A    between atoms: C_6  and  C_7 
REMARK    2  A    between atoms: C_9  and  C_10 
REMARK    3  A    between atoms: C_10  and  C_11 
REMARK    4  A    between atoms: C_15  and  N_16 
ROOT
HETATM    1  C   UNL     1     -41.248  55.976 -53.709  1.00  0.00     0.112 A 
HETATM    2  O   UNL     1     -41.878  56.414 -54.844  1.00  0.00    -0.308 OA
HETATM    3  C   UNL     1     -42.124  57.769 -54.751  1.00  0.00     0.077 A 
HETATM    4  C   UNL     1     -41.656  58.178 -53.509  1.00  0.00     0.040 A 
HETATM    5  C   UNL     1     -41.097  57.054 -52.859  1.00  0.00     0.043 A 
ENDROOT
BRANCH   3   6
HETATM    6  C   UNL     1     -42.787  58.453 -55.810  1.00  0.00     0.059 C 
BRANCH   6   7
HETATM    7  C   UNL     1     -42.561  58.320 -57.122  1.00  0.00     0.053 A 
HETATM    8  S   UNL     1     -41.837  59.404 -58.243  1.00  0.00    -0.024 SA
HETATM    9  C   UNL     1     -42.116  58.267 -59.568  1.00  0.00     0.312 A 
HETATM   10  O   UNL     1     -41.801  58.541 -60.715  1.00  0.00    -0.258 OA
HETATM   11  N   UNL     1     -42.696  57.084 -59.168  1.00  0.00    -0.191 NA
HETATM   12  C   UNL     1     -42.935  57.082 -57.885  1.00  0.00     0.122 A 
BRANCH  12  13
HETATM   13  N   UNL     1     -43.497  55.960 -57.339  1.00  0.00    -0.286 NA
HETATM   14  H   UNL     1     -42.964  55.100 -57.393  1.00  0.00     0.125 HD
HETATM   15  H   UNL     1     -44.461  55.833 -57.635  1.00  0.00     0.125 HD
ENDBRANCH  12  13
ENDBRANCH   6   7
ENDBRANCH   3   6
BRANCH   1  16
HETATM   16  C   UNL     1     -40.844  54.614 -53.485  1.00  0.00     0.133 A 
HETATM   17  S   UNL     1     -40.641  53.500 -54.771  1.00  0.00    -0.066 SA
HETATM   18  C   UNL     1     -40.204  52.274 -53.642  1.00  0.00     0.035 A 
HETATM   19  C   UNL     1     -40.243  52.813 -52.354  1.00  0.00     0.075 A 
HETATM   20  C   UNL     1     -39.853  50.935 -53.876  1.00  0.00     0.021 A 
HETATM   21  C   UNL     1     -39.919  51.982 -51.262  1.00  0.00     0.033 A 
HETATM   22  N   UNL     1     -40.609  54.145 -52.278  1.00  0.00    -0.238 NA
HETATM   23  C   UNL     1     -39.567  50.647 -51.484  1.00  0.00     0.002 A 
HETATM   24  C   UNL     1     -39.535  50.132 -52.775  1.00  0.00     0.002 A 
ENDBRANCH   1  16
TORSDOF 4
ENDMDL
MODEL 10
REMARK VINA RESULT:      -7.2      2.795      3.028
REMARK  4 active torsions:
REMARK  status: ('A' for Active; 'I' for Inactive)
REMARK    1  A    between atoms: C_6  and  C_7 
REMARK    2  A    between atoms: C_9  and  C_10 
REMARK    3  A    between atoms: C_10  and  C_11 
REMARK    4  A    between atoms: C_15  and  N_16 
ROOT
HETATM    1  C   UNL     1     -41.828  56.240 -51.977  1.00  0.00     0.112 A 
HETATM    2  O   UNL     1     -43.019  56.651 -52.518  1.00  0.00    -0.308 OA
HETATM    3  C   UNL     1     -43.263  57.965 -52.172  1.00  0.00     0.077 A 
HETATM    4  C   UNL     1     -42.205  58.372 -51.370  1.00  0.00     0.040 A 
HETATM    5  C   UNL     1     -41.300  57.292 -51.256  1.00  0.00     0.043 A 
ENDROOT
BRANCH   3   6
HETATM    6  C   UNL     1     -44.454  58.613 -52.608  1.00  0.00     0.059 C 
BRANCH   6   7
HETATM    7  C   UNL     1     -44.808  58.887 -53.869  1.00  0.00     0.053 A 
HETATM    8  S   UNL     1     -44.904  60.392 -54.696  1.00  0.00    -0.024 SA
HETATM    9  C   UNL     1     -45.488  59.585 -56.156  1.00  0.00     0.312 A 
HETATM   10  O   UNL     1     -45.778  60.219 -57.158  1.00  0.00    -0.258 OA
HETATM   11  N   UNL     1     -45.563  58.215 -56.038  1.00  0.00    -0.191 NA
HETATM   12  C   UNL     1     -45.205  57.820 -54.847  1.00  0.00     0.122 A 
BRANCH  12  13
HETATM   13  N   UNL     1     -45.214  56.477 -54.587  1.00  0.00    -0.286 NA
HETATM   14  H   UNL     1     -44.355  56.064 -54.245  1.00  0.00     0.125 HD
HETATM   15  H   UNL     1     -45.618  55.942 -55.352  1.00  0.00     0.125 HD
ENDBRANCH  12  13
ENDBRANCH   6   7
ENDBRANCH   3   6
BRANCH   1  16
HETATM   16  C   UNL     1     -41.275  54.924 -52.151  1.00  0.00     0.133 A 
HETATM   17  S   UNL     1     -40.639  54.022 -50.840  1.00  0.00    -0.066 SA
HETATM   18  C   UNL     1     -40.251  52.733 -51.914  1.00  0.00     0.035 A 
HETATM   19  C   UNL     1     -40.642  53.089 -53.207  1.00  0.00     0.075 A 
HETATM   20  C   UNL     1     -39.645  51.497 -51.636  1.00  0.00     0.021 A 
HETATM   21  C   UNL     1     -40.418  52.176 -54.258  1.00  0.00     0.033 A 
HETATM   22  N   UNL     1     -41.223  54.339 -53.329  1.00  0.00    -0.238 NA
HETATM   23  C   UNL     1     -39.816  50.942 -53.992  1.00  0.00     0.002 A 
HETATM   24  C   UNL     1     -39.435  50.609 -52.697  1.00  0.00     0.002 A 
ENDBRANCH   1  16
TORSDOF 4
ENDMDL
