MODEL 1
REMARK VINA RESULT:      -8.9      0.000      0.000
REMARK  7 active torsions:
REMARK  status: ('A' for Active; 'I' for Inactive)
REMARK    1  A    between atoms: O_2  and  C_3 
REMARK    2  A    between atoms: C_6  and  C_11 
REMARK    3  A    between atoms: C_8  and  O_9 
REMARK       I    between atoms: C_11  and  N_13 
REMARK    4  A    between atoms: N_13  and  C_14 
REMARK    5  A    between atoms: C_14  and  C_16 
REMARK    6  A    between atoms: C_20  and  C_22 
REMARK       I    between atoms: C_22  and  N_24 
REMARK    7  A    between atoms: N_24  and  C_25 
ROOT
HETATM    1  C   UNL     1     -43.609  60.376 -50.918  1.00  0.00    -0.035 A 
HETATM    2  C   UNL     1     -42.402  60.831 -50.359  1.00  0.00     0.009 A 
HETATM    3  C   UNL     1     -41.274  60.013 -50.330  1.00  0.00     0.002 A 
HETATM    4  C   UNL     1     -41.340  58.720 -50.842  1.00  0.00     0.017 A 
HETATM    5  C   UNL     1     -42.538  58.232 -51.381  1.00  0.00     0.033 A 
HETATM    6  C   UNL     1     -43.663  59.067 -51.427  1.00  0.00     0.026 A 
ENDROOT
BRANCH   1   7
HETATM    7  C   UNL     1     -44.824  61.288 -50.910  1.00  0.00     0.114 C 
HETATM    8  C   UNL     1     -46.122  60.656 -51.420  1.00  0.00     0.037 C 
BRANCH   7   9
HETATM    9  N   UNL     1     -44.955  61.961 -49.622  1.00  0.00    -0.349 N 
HETATM   10  C   UNL     1     -45.424  61.361 -48.473  1.00  0.00     0.252 C 
HETATM   11  O   UNL     1     -45.833  60.204 -48.429  1.00  0.00    -0.268 OA
HETATM   12  H   UNL     1     -44.418  62.808 -49.533  1.00  0.00     0.163 HD
BRANCH  10  13
HETATM   13  C   UNL     1     -45.393  62.176 -47.218  1.00  0.00     0.034 A 
HETATM   14  C   UNL     1     -45.887  63.483 -47.269  1.00  0.00     0.020 A 
HETATM   15  C   UNL     1     -45.884  64.296 -46.130  1.00  0.00     0.040 A 
HETATM   16  C   UNL     1     -45.397  63.819 -44.907  1.00  0.00     0.101 A 
HETATM   17  C   UNL     1     -44.901  62.503 -44.847  1.00  0.00     0.102 A 
HETATM   18  C   UNL     1     -44.880  61.706 -46.004  1.00  0.00     0.056 A 
BRANCH  16  19
HETATM   19  O   UNL     1     -45.339  64.581 -43.772  1.00  0.00    -0.353 OA
HETATM   20  C   UNL     1     -46.488  64.625 -42.935  1.00  0.00     0.210 C 
ENDBRANCH  16  19
BRANCH  17  21
HETATM   21  O   UNL     1     -44.372  61.855 -43.758  1.00  0.00    -0.353 OA
HETATM   22  C   UNL     1     -43.262  62.458 -43.106  1.00  0.00     0.210 C 
ENDBRANCH  17  21
ENDBRANCH  10  13
ENDBRANCH   7   9
ENDBRANCH   1   7
BRANCH   5  23
HETATM   23  C   UNL     1     -42.548  56.835 -51.911  1.00  0.00     0.256 C 
HETATM   24  O   UNL     1     -43.624  56.247 -51.943  1.00  0.00    -0.267 OA
HETATM   25  N   UNL     1     -41.329  56.346 -52.352  1.00  0.00    -0.323 N 
HETATM   26  H   UNL     1     -40.543  56.983 -52.349  1.00  0.00     0.169 HD
BRANCH  25  27
HETATM   27  C   UNL     1     -41.069  55.062 -52.881  1.00  0.00     0.035 A 
HETATM   28  C   UNL     1     -41.240  54.722 -54.223  1.00  0.00     0.030 A 
HETATM   29  C   UNL     1     -40.951  53.431 -54.674  1.00  0.00     0.010 A 
HETATM   30  C   UNL     1     -40.483  52.457 -53.788  1.00  0.00    -0.048 A 
HETATM   31  C   UNL     1     -40.208  51.057 -54.276  1.00  0.00     0.069 C 
HETATM   32  C   UNL     1     -40.333  52.772 -52.428  1.00  0.00    -0.022 A 
HETATM   33  C   UNL     1     -39.364  50.245 -53.286  1.00  0.00     0.277 C 
HETATM   34  N   UNL     1     -39.916  50.354 -51.929  1.00  0.00     0.088 N 
HETATM   35  C   UNL     1     -39.234  49.440 -51.014  1.00  0.00     0.310 C 
HETATM   36  C   UNL     1     -39.802  51.744 -51.449  1.00  0.00     0.311 C 
HETATM   37  C   UNL     1     -40.616  54.078 -51.989  1.00  0.00     0.039 A 
ENDBRANCH  25  27
ENDBRANCH   5  23
TORSDOF 7
ENDMDL
MODEL 2
REMARK VINA RESULT:      -8.9      4.579      8.998
REMARK  7 active torsions:
REMARK  status: ('A' for Active; 'I' for Inactive)
REMARK    1  A    between atoms: O_2  and  C_3 
REMARK    2  A    between atoms: C_6  and  C_11 
REMARK    3  A    between atoms: C_8  and  O_9 
REMARK       I    between atoms: C_11  and  N_13 
REMARK    4  A    between atoms: N_13  and  C_14 
REMARK    5  A    between atoms: C_14  and  C_16 
REMARK    6  A    between atoms: C_20  and  C_22 
REMARK       I    between atoms: C_22  and  N_24 
REMARK    7  A    between atoms: N_24  and  C_25 
ROOT
HETATM    1  C   UNL     1     -44.988  60.030 -53.241  1.00  0.00    -0.035 A 
HETATM    2  C   UNL     1     -45.889  60.579 -52.312  1.00  0.00     0.009 A 
HETATM    3  C   UNL     1     -46.117  59.959 -51.084  1.00  0.00     0.002 A 
HETATM    4  C   UNL     1     -45.461  58.771 -50.774  1.00  0.00     0.017 A 
HETATM    5  C   UNL     1     -44.578  58.188 -51.692  1.00  0.00     0.033 A 
HETATM    6  C   UNL     1     -44.337  58.828 -52.916  1.00  0.00     0.026 A 
ENDROOT
BRANCH   1   7
HETATM    7  C   UNL     1     -44.783  60.722 -54.578  1.00  0.00     0.114 C 
HETATM    8  C   UNL     1     -43.716  61.819 -54.592  1.00  0.00     0.037 C 
BRANCH   7   9
HETATM    9  N   UNL     1     -44.643  59.742 -55.649  1.00  0.00    -0.349 N 
HETATM   10  C   UNL     1     -45.076  59.933 -56.944  1.00  0.00     0.252 C 
HETATM   11  O   UNL     1     -45.677  60.936 -57.317  1.00  0.00    -0.268 OA
HETATM   12  H   UNL     1     -43.957  59.024 -55.476  1.00  0.00     0.163 HD
BRANCH  10  13
HETATM   13  C   UNL     1     -44.756  58.858 -57.935  1.00  0.00     0.034 A 
HETATM   14  C   UNL     1     -45.075  59.084 -59.277  1.00  0.00     0.020 A 
HETATM   15  C   UNL     1     -44.802  58.118 -60.252  1.00  0.00     0.040 A 
HETATM   16  C   UNL     1     -44.193  56.904 -59.910  1.00  0.00     0.101 A 
HETATM   17  C   UNL     1     -43.866  56.670 -58.562  1.00  0.00     0.102 A 
HETATM   18  C   UNL     1     -44.172  57.635 -57.587  1.00  0.00     0.056 A 
BRANCH  16  19
HETATM   19  O   UNL     1     -43.936  55.911 -60.817  1.00  0.00    -0.353 OA
HETATM   20  C   UNL     1     -44.954  54.949 -61.063  1.00  0.00     0.210 C 
ENDBRANCH  16  19
BRANCH  17  21
HETATM   21  O   UNL     1     -43.282  55.551 -58.022  1.00  0.00    -0.353 OA
HETATM   22  C   UNL     1     -42.824  55.629 -56.678  1.00  0.00     0.210 C 
ENDBRANCH  17  21
ENDBRANCH  10  13
ENDBRANCH   7   9
ENDBRANCH   1   7
BRANCH   5  23
HETATM   23  C   UNL     1     -43.909  56.910 -51.304  1.00  0.00     0.256 C 
HETATM   24  O   UNL     1     -44.518  56.155 -50.554  1.00  0.00    -0.267 OA
HETATM   25  N   UNL     1     -42.662  56.685 -51.865  1.00  0.00    -0.323 N 
HETATM   26  H   UNL     1     -42.327  57.358 -52.542  1.00  0.00     0.169 HD
BRANCH  25  27
HETATM   27  C   UNL     1     -41.822  55.569 -51.650  1.00  0.00     0.035 A 
HETATM   28  C   UNL     1     -41.065  55.375 -50.495  1.00  0.00     0.030 A 
HETATM   29  C   UNL     1     -40.263  54.239 -50.350  1.00  0.00     0.010 A 
HETATM   30  C   UNL     1     -40.206  53.276 -51.361  1.00  0.00    -0.048 A 
HETATM   31  C   UNL     1     -39.311  52.072 -51.212  1.00  0.00     0.069 C 
HETATM   32  C   UNL     1     -40.937  53.469 -52.544  1.00  0.00    -0.022 A 
HETATM   33  C   UNL     1     -39.650  50.961 -52.214  1.00  0.00     0.277 C 
HETATM   34  N   UNL     1     -39.766  51.509 -53.571  1.00  0.00     0.088 N 
HETATM   35  C   UNL     1     -39.904  50.438 -54.556  1.00  0.00     0.310 C 
HETATM   36  C   UNL     1     -40.917  52.429 -53.646  1.00  0.00     0.311 C 
HETATM   37  C   UNL     1     -41.750  54.610 -52.672  1.00  0.00     0.039 A 
ENDBRANCH  25  27
ENDBRANCH   5  23
TORSDOF 7
ENDMDL
MODEL 3
REMARK VINA RESULT:      -8.8      3.617     10.858
REMARK  7 active torsions:
REMARK  status: ('A' for Active; 'I' for Inactive)
REMARK    1  A    between atoms: O_2  and  C_3 
REMARK    2  A    between atoms: C_6  and  C_11 
REMARK    3  A    between atoms: C_8  and  O_9 
REMARK       I    between atoms: C_11  and  N_13 
REMARK    4  A    between atoms: N_13  and  C_14 
REMARK    5  A    between atoms: C_14  and  C_16 
REMARK    6  A    between atoms: C_20  and  C_22 
REMARK       I    between atoms: C_22  and  N_24 
REMARK    7  A    between atoms: N_24  and  C_25 
ROOT
HETATM    1  C   UNL     1     -42.602  57.544 -56.420  1.00  0.00    -0.035 A 
HETATM    2  C   UNL     1     -42.373  58.344 -57.553  1.00  0.00     0.009 A 
HETATM    3  C   UNL     1     -42.092  59.703 -57.424  1.00  0.00     0.002 A 
HETATM    4  C   UNL     1     -42.052  60.288 -56.161  1.00  0.00     0.017 A 
HETATM    5  C   UNL     1     -42.303  59.519 -55.016  1.00  0.00     0.033 A 
HETATM    6  C   UNL     1     -42.564  58.148 -55.152  1.00  0.00     0.026 A 
ENDROOT
BRANCH   1   7
HETATM    7  C   UNL     1     -42.929  56.072 -56.602  1.00  0.00     0.114 C 
HETATM    8  C   UNL     1     -42.955  55.580 -58.052  1.00  0.00     0.037 C 
BRANCH   7   9
HETATM    9  N   UNL     1     -42.120  55.250 -55.709  1.00  0.00    -0.349 N 
HETATM   10  C   UNL     1     -42.602  54.606 -54.590  1.00  0.00     0.252 C 
HETATM   11  O   UNL     1     -43.761  54.703 -54.197  1.00  0.00    -0.268 OA
HETATM   12  H   UNL     1     -41.247  54.935 -56.102  1.00  0.00     0.163 HD
BRANCH  10  13
HETATM   13  C   UNL     1     -41.648  53.721 -53.849  1.00  0.00     0.034 A 
HETATM   14  C   UNL     1     -41.188  52.567 -54.489  1.00  0.00     0.020 A 
HETATM   15  C   UNL     1     -40.297  51.699 -53.849  1.00  0.00     0.040 A 
HETATM   16  C   UNL     1     -39.834  51.969 -52.555  1.00  0.00     0.101 A 
HETATM   17  C   UNL     1     -40.290  53.131 -51.906  1.00  0.00     0.102 A 
HETATM   18  C   UNL     1     -41.209  53.980 -52.546  1.00  0.00     0.056 A 
BRANCH  16  19
HETATM   19  O   UNL     1     -38.990  51.137 -51.870  1.00  0.00    -0.353 OA
HETATM   20  C   UNL     1     -39.553  50.019 -51.195  1.00  0.00     0.210 C 
ENDBRANCH  16  19
BRANCH  17  21
HETATM   21  O   UNL     1     -39.971  53.567 -50.643  1.00  0.00    -0.353 OA
HETATM   22  C   UNL     1     -40.571  54.774 -50.190  1.00  0.00     0.210 C 
ENDBRANCH  17  21
ENDBRANCH  10  13
ENDBRANCH   7   9
ENDBRANCH   1   7
BRANCH   5  23
HETATM   23  C   UNL     1     -42.251  60.204 -53.690  1.00  0.00     0.256 C 
HETATM   24  O   UNL     1     -41.297  59.956 -52.959  1.00  0.00    -0.267 OA
HETATM   25  N   UNL     1     -43.281  61.091 -53.425  1.00  0.00    -0.323 N 
HETATM   26  H   UNL     1     -43.950  61.262 -54.165  1.00  0.00     0.169 HD
BRANCH  25  27
HETATM   27  C   UNL     1     -43.471  61.849 -52.248  1.00  0.00     0.035 A 
HETATM   28  C   UNL     1     -43.123  63.194 -52.122  1.00  0.00     0.030 A 
HETATM   29  C   UNL     1     -43.351  63.881 -50.927  1.00  0.00     0.010 A 
HETATM   30  C   UNL     1     -43.933  63.233 -49.835  1.00  0.00    -0.048 A 
HETATM   31  C   UNL     1     -44.142  63.971 -48.537  1.00  0.00     0.069 C 
HETATM   32  C   UNL     1     -44.263  61.872 -49.932  1.00  0.00    -0.022 A 
HETATM   33  C   UNL     1     -45.112  63.244 -47.597  1.00  0.00     0.277 C 
HETATM   34  N   UNL     1     -44.745  61.827 -47.475  1.00  0.00     0.088 N 
HETATM   35  C   UNL     1     -45.544  61.169 -46.443  1.00  0.00     0.310 C 
HETATM   36  C   UNL     1     -44.921  61.149 -48.773  1.00  0.00     0.311 C 
HETATM   37  C   UNL     1     -44.039  61.194 -51.145  1.00  0.00     0.039 A 
ENDBRANCH  25  27
ENDBRANCH   5  23
TORSDOF 7
ENDMDL
MODEL 4
REMARK VINA RESULT:      -8.8      4.207      6.933
REMARK  7 active torsions:
REMARK  status: ('A' for Active; 'I' for Inactive)
REMARK    1  A    between atoms: O_2  and  C_3 
REMARK    2  A    between atoms: C_6  and  C_11 
REMARK    3  A    between atoms: C_8  and  O_9 
REMARK       I    between atoms: C_11  and  N_13 
REMARK    4  A    between atoms: N_13  and  C_14 
REMARK    5  A    between atoms: C_14  and  C_16 
REMARK    6  A    between atoms: C_20  and  C_22 
REMARK       I    between atoms: C_22  and  N_24 
REMARK    7  A    between atoms: N_24  and  C_25 
ROOT
HETATM    1  C   UNL     1     -43.548  58.495 -58.741  1.00  0.00    -0.035 A 
HETATM    2  C   UNL     1     -43.635  58.000 -60.054  1.00  0.00     0.009 A 
HETATM    3  C   UNL     1     -43.482  56.640 -60.317  1.00  0.00     0.002 A 
HETATM    4  C   UNL     1     -43.221  55.756 -59.274  1.00  0.00     0.017 A 
HETATM    5  C   UNL     1     -43.103  56.226 -57.959  1.00  0.00     0.033 A 
HETATM    6  C   UNL     1     -43.280  57.592 -57.698  1.00  0.00     0.026 A 
ENDROOT
BRANCH   1   7
HETATM    7  C   UNL     1     -43.697  59.987 -58.496  1.00  0.00     0.114 C 
HETATM    8  C   UNL     1     -44.841  60.665 -59.255  1.00  0.00     0.037 C 
BRANCH   7   9
HETATM    9  N   UNL     1     -43.674  60.280 -57.068  1.00  0.00    -0.349 N 
HETATM   10  C   UNL     1     -42.535  60.569 -56.348  1.00  0.00     0.252 C 
HETATM   11  O   UNL     1     -41.406  60.556 -56.830  1.00  0.00    -0.268 OA
HETATM   12  H   UNL     1     -44.565  60.545 -56.678  1.00  0.00     0.163 HD
BRANCH  10  13
HETATM   13  C   UNL     1     -42.714  60.946 -54.910  1.00  0.00     0.034 A 
HETATM   14  C   UNL     1     -43.448  62.100 -54.618  1.00  0.00     0.020 A 
HETATM   15  C   UNL     1     -43.649  62.505 -53.295  1.00  0.00     0.040 A 
HETATM   16  C   UNL     1     -43.130  61.761 -52.227  1.00  0.00     0.101 A 
HETATM   17  C   UNL     1     -42.394  60.597 -52.513  1.00  0.00     0.102 A 
HETATM   18  C   UNL     1     -42.172  60.215 -53.847  1.00  0.00     0.056 A 
BRANCH  16  19
HETATM   19  O   UNL     1     -43.268  62.131 -50.917  1.00  0.00    -0.353 OA
HETATM   20  C   UNL     1     -44.425  61.693 -50.215  1.00  0.00     0.210 C 
ENDBRANCH  16  19
BRANCH  17  21
HETATM   21  O   UNL     1     -41.795  59.742 -51.621  1.00  0.00    -0.353 OA
HETATM   22  C   UNL     1     -40.718  58.943 -52.093  1.00  0.00     0.210 C 
ENDBRANCH  17  21
ENDBRANCH  10  13
ENDBRANCH   7   9
ENDBRANCH   1   7
BRANCH   5  23
HETATM   23  C   UNL     1     -42.818  55.229 -56.883  1.00  0.00     0.256 C 
HETATM   24  O   UNL     1     -43.549  54.247 -56.811  1.00  0.00    -0.267 OA
HETATM   25  N   UNL     1     -41.720  55.499 -56.084  1.00  0.00    -0.323 N 
HETATM   26  H   UNL     1     -41.154  56.303 -56.324  1.00  0.00     0.169 HD
BRANCH  25  27
HETATM   27  C   UNL     1     -41.249  54.728 -54.997  1.00  0.00     0.035 A 
HETATM   28  C   UNL     1     -40.606  53.497 -55.135  1.00  0.00     0.030 A 
HETATM   29  C   UNL     1     -40.158  52.797 -54.011  1.00  0.00     0.010 A 
HETATM   30  C   UNL     1     -40.344  53.319 -52.728  1.00  0.00    -0.048 A 
HETATM   31  C   UNL     1     -39.890  52.540 -51.520  1.00  0.00     0.069 C 
HETATM   32  C   UNL     1     -41.015  54.541 -52.568  1.00  0.00    -0.022 A 
HETATM   33  C   UNL     1     -39.829  53.403 -50.253  1.00  0.00     0.277 C 
HETATM   34  N   UNL     1     -41.071  54.170 -50.092  1.00  0.00     0.088 N 
HETATM   35  C   UNL     1     -41.100  54.851 -48.799  1.00  0.00     0.310 C 
HETATM   36  C   UNL     1     -41.208  55.145 -51.191  1.00  0.00     0.311 C 
HETATM   37  C   UNL     1     -41.450  55.242 -53.708  1.00  0.00     0.039 A 
ENDBRANCH  25  27
ENDBRANCH   5  23
TORSDOF 7
ENDMDL
MODEL 5
REMARK VINA RESULT:      -8.7      3.979     11.677
REMARK  7 active torsions:
REMARK  status: ('A' for Active; 'I' for Inactive)
REMARK    1  A    between atoms: O_2  and  C_3 
REMARK    2  A    between atoms: C_6  and  C_11 
REMARK    3  A    between atoms: C_8  and  O_9 
REMARK       I    between atoms: C_11  and  N_13 
REMARK    4  A    between atoms: N_13  and  C_14 
REMARK    5  A    between atoms: C_14  and  C_16 
REMARK    6  A    between atoms: C_20  and  C_22 
REMARK       I    between atoms: C_22  and  N_24 
REMARK    7  A    between atoms: N_24  and  C_25 
ROOT
HETATM    1  C   UNL     1     -41.311  55.094 -53.212  1.00  0.00    -0.035 A 
HETATM    2  C   UNL     1     -41.963  54.083 -52.486  1.00  0.00     0.009 A 
HETATM    3  C   UNL     1     -42.599  54.366 -51.278  1.00  0.00     0.002 A 
HETATM    4  C   UNL     1     -42.578  55.662 -50.769  1.00  0.00     0.017 A 
HETATM    5  C   UNL     1     -41.912  56.684 -51.459  1.00  0.00     0.033 A 
HETATM    6  C   UNL     1     -41.292  56.397 -52.684  1.00  0.00     0.026 A 
ENDROOT
BRANCH   1   7
HETATM    7  C   UNL     1     -40.608  54.742 -54.512  1.00  0.00     0.114 C 
HETATM    8  C   UNL     1     -40.355  53.249 -54.737  1.00  0.00     0.037 C 
BRANCH   7   9
HETATM    9  N   UNL     1     -41.243  55.415 -55.640  1.00  0.00    -0.349 N 
HETATM   10  C   UNL     1     -42.487  55.096 -56.139  1.00  0.00     0.252 C 
HETATM   11  O   UNL     1     -43.171  54.169 -55.716  1.00  0.00    -0.268 OA
HETATM   12  H   UNL     1     -40.857  56.318 -55.863  1.00  0.00     0.163 HD
BRANCH  10  13
HETATM   13  C   UNL     1     -43.024  55.962 -57.236  1.00  0.00     0.034 A 
HETATM   14  C   UNL     1     -43.353  57.286 -56.928  1.00  0.00     0.020 A 
HETATM   15  C   UNL     1     -43.861  58.144 -57.909  1.00  0.00     0.040 A 
HETATM   16  C   UNL     1     -44.043  57.705 -59.227  1.00  0.00     0.101 A 
HETATM   17  C   UNL     1     -43.711  56.375 -59.544  1.00  0.00     0.102 A 
HETATM   18  C   UNL     1     -43.230  55.512 -58.544  1.00  0.00     0.056 A 
BRANCH  16  19
HETATM   19  O   UNL     1     -44.567  58.491 -60.216  1.00  0.00    -0.353 OA
HETATM   20  C   UNL     1     -43.721  59.460 -60.821  1.00  0.00     0.210 C 
ENDBRANCH  16  19
BRANCH  17  21
HETATM   21  O   UNL     1     -43.825  55.749 -60.761  1.00  0.00    -0.353 OA
HETATM   22  C   UNL     1     -45.045  55.077 -61.046  1.00  0.00     0.210 C 
ENDBRANCH  17  21
ENDBRANCH  10  13
ENDBRANCH   7   9
ENDBRANCH   1   7
BRANCH   5  23
HETATM   23  C   UNL     1     -41.920  58.052 -50.860  1.00  0.00     0.256 C 
HETATM   24  O   UNL     1     -40.934  58.396 -50.217  1.00  0.00    -0.267 OA
HETATM   25  N   UNL     1     -43.041  58.822 -51.124  1.00  0.00    -0.323 N 
HETATM   26  H   UNL     1     -43.736  58.435 -51.751  1.00  0.00     0.169 HD
BRANCH  25  27
HETATM   27  C   UNL     1     -43.299  60.134 -50.666  1.00  0.00     0.035 A 
HETATM   28  C   UNL     1     -42.501  61.237 -50.972  1.00  0.00     0.030 A 
HETATM   29  C   UNL     1     -42.826  62.508 -50.491  1.00  0.00     0.010 A 
HETATM   30  C   UNL     1     -43.959  62.698 -49.695  1.00  0.00    -0.048 A 
HETATM   31  C   UNL     1     -44.283  64.066 -49.151  1.00  0.00     0.069 C 
HETATM   32  C   UNL     1     -44.758  61.595 -49.352  1.00  0.00    -0.022 A 
HETATM   33  C   UNL     1     -45.723  64.166 -48.631  1.00  0.00     0.277 C 
HETATM   34  N   UNL     1     -46.031  63.035 -47.747  1.00  0.00     0.088 N 
HETATM   35  C   UNL     1     -47.329  63.216 -47.102  1.00  0.00     0.310 C 
HETATM   36  C   UNL     1     -46.008  61.775 -48.513  1.00  0.00     0.311 C 
HETATM   37  C   UNL     1     -44.426  60.323 -49.853  1.00  0.00     0.039 A 
ENDBRANCH  25  27
ENDBRANCH   5  23
TORSDOF 7
ENDMDL
MODEL 6
REMARK VINA RESULT:      -8.7      2.458     11.755
REMARK  7 active torsions:
REMARK  status: ('A' for Active; 'I' for Inactive)
REMARK    1  A    between atoms: O_2  and  C_3 
REMARK    2  A    between atoms: C_6  and  C_11 
REMARK    3  A    between atoms: C_8  and  O_9 
REMARK       I    between atoms: C_11  and  N_13 
REMARK    4  A    between atoms: N_13  and  C_14 
REMARK    5  A    between atoms: C_14  and  C_16 
REMARK    6  A    between atoms: C_20  and  C_22 
REMARK       I    between atoms: C_22  and  N_24 
REMARK    7  A    between atoms: N_24  and  C_25 
ROOT
HETATM    1  C   UNL     1     -42.041  58.581 -52.380  1.00  0.00    -0.035 A 
HETATM    2  C   UNL     1     -40.733  58.448 -51.881  1.00  0.00     0.009 A 
HETATM    3  C   UNL     1     -40.291  59.232 -50.817  1.00  0.00     0.002 A 
HETATM    4  C   UNL     1     -41.142  60.174 -50.247  1.00  0.00     0.017 A 
HETATM    5  C   UNL     1     -42.442  60.346 -50.741  1.00  0.00     0.033 A 
HETATM    6  C   UNL     1     -42.888  59.540 -51.798  1.00  0.00     0.026 A 
ENDROOT
BRANCH   1   7
HETATM    7  C   UNL     1     -42.480  57.725 -53.556  1.00  0.00     0.114 C 
HETATM    8  C   UNL     1     -42.480  58.430 -54.915  1.00  0.00     0.037 C 
BRANCH   7   9
HETATM    9  N   UNL     1     -41.782  56.444 -53.550  1.00  0.00    -0.349 N 
HETATM   10  C   UNL     1     -42.146  55.361 -52.779  1.00  0.00     0.252 C 
HETATM   11  O   UNL     1     -43.070  55.382 -51.971  1.00  0.00    -0.268 OA
HETATM   12  H   UNL     1     -41.189  56.284 -54.348  1.00  0.00     0.163 HD
BRANCH  10  13
HETATM   13  C   UNL     1     -41.376  54.093 -52.979  1.00  0.00     0.034 A 
HETATM   14  C   UNL     1     -41.286  53.574 -54.274  1.00  0.00     0.020 A 
HETATM   15  C   UNL     1     -40.582  52.392 -54.525  1.00  0.00     0.040 A 
HETATM   16  C   UNL     1     -39.939  51.703 -53.489  1.00  0.00     0.101 A 
HETATM   17  C   UNL     1     -40.022  52.220 -52.184  1.00  0.00     0.102 A 
HETATM   18  C   UNL     1     -40.758  53.392 -51.937  1.00  0.00     0.056 A 
BRANCH  16  19
HETATM   19  O   UNL     1     -39.267  50.525 -53.674  1.00  0.00    -0.353 OA
HETATM   20  C   UNL     1     -39.772  49.609 -54.637  1.00  0.00     0.210 C 
ENDBRANCH  16  19
BRANCH  17  21
HETATM   21  O   UNL     1     -39.480  51.696 -51.037  1.00  0.00    -0.353 OA
HETATM   22  C   UNL     1     -40.279  50.794 -50.281  1.00  0.00     0.210 C 
ENDBRANCH  17  21
ENDBRANCH  10  13
ENDBRANCH   7   9
ENDBRANCH   1   7
BRANCH   5  23
HETATM   23  C   UNL     1     -43.307  61.376 -50.092  1.00  0.00     0.256 C 
HETATM   24  O   UNL     1     -43.171  62.541 -50.451  1.00  0.00    -0.267 OA
HETATM   25  N   UNL     1     -44.216  60.903 -49.159  1.00  0.00    -0.323 N 
HETATM   26  H   UNL     1     -44.277  59.901 -49.035  1.00  0.00     0.169 HD
BRANCH  25  27
HETATM   27  C   UNL     1     -45.131  61.667 -48.400  1.00  0.00     0.035 A 
HETATM   28  C   UNL     1     -46.394  62.046 -48.854  1.00  0.00     0.030 A 
HETATM   29  C   UNL     1     -47.249  62.794 -48.040  1.00  0.00     0.010 A 
HETATM   30  C   UNL     1     -46.855  63.173 -46.754  1.00  0.00    -0.048 A 
HETATM   31  C   UNL     1     -47.769  64.010 -45.896  1.00  0.00     0.069 C 
HETATM   32  C   UNL     1     -45.576  62.826 -46.291  1.00  0.00    -0.022 A 
HETATM   33  C   UNL     1     -47.351  64.013 -44.420  1.00  0.00     0.277 C 
HETATM   34  N   UNL     1     -45.915  64.296 -44.293  1.00  0.00     0.088 N 
HETATM   35  C   UNL     1     -45.544  64.484 -42.892  1.00  0.00     0.310 C 
HETATM   36  C   UNL     1     -45.131  63.200 -44.891  1.00  0.00     0.311 C 
HETATM   37  C   UNL     1     -44.729  62.063 -47.116  1.00  0.00     0.039 A 
ENDBRANCH  25  27
ENDBRANCH   5  23
TORSDOF 7
ENDMDL
MODEL 7
REMARK VINA RESULT:      -8.7      4.562      7.969
REMARK  7 active torsions:
REMARK  status: ('A' for Active; 'I' for Inactive)
REMARK    1  A    between atoms: O_2  and  C_3 
REMARK    2  A    between atoms: C_6  and  C_11 
REMARK    3  A    between atoms: C_8  and  O_9 
REMARK       I    between atoms: C_11  and  N_13 
REMARK    4  A    between atoms: N_13  and  C_14 
REMARK    5  A    between atoms: C_14  and  C_16 
REMARK    6  A    between atoms: C_20  and  C_22 
REMARK       I    between atoms: C_22  and  N_24 
REMARK    7  A    between atoms: N_24  and  C_25 
ROOT
HETATM    1  C   UNL     1     -41.318  54.161 -51.151  1.00  0.00    -0.035 A 
HETATM    2  C   UNL     1     -40.615  52.962 -50.939  1.00  0.00     0.009 A 
HETATM    3  C   UNL     1     -40.064  52.257 -52.008  1.00  0.00     0.002 A 
HETATM    4  C   UNL     1     -40.224  52.730 -53.308  1.00  0.00     0.017 A 
HETATM    5  C   UNL     1     -40.943  53.908 -53.550  1.00  0.00     0.033 A 
HETATM    6  C   UNL     1     -41.476  54.624 -52.469  1.00  0.00     0.026 A 
ENDROOT
BRANCH   1   7
HETATM    7  C   UNL     1     -41.924  54.889 -49.963  1.00  0.00     0.114 C 
HETATM    8  C   UNL     1     -41.060  54.915 -48.700  1.00  0.00     0.037 C 
BRANCH   7   9
HETATM    9  N   UNL     1     -42.432  56.196 -50.365  1.00  0.00    -0.349 N 
HETATM   10  C   UNL     1     -41.641  57.292 -50.634  1.00  0.00     0.252 C 
HETATM   11  O   UNL     1     -40.420  57.294 -50.509  1.00  0.00    -0.268 OA
HETATM   12  H   UNL     1     -43.376  56.190 -50.718  1.00  0.00     0.163 HD
BRANCH  10  13
HETATM   13  C   UNL     1     -42.330  58.524 -51.133  1.00  0.00     0.034 A 
HETATM   14  C   UNL     1     -41.933  59.758 -50.608  1.00  0.00     0.020 A 
HETATM   15  C   UNL     1     -42.540  60.945 -51.032  1.00  0.00     0.040 A 
HETATM   16  C   UNL     1     -43.551  60.931 -52.001  1.00  0.00     0.101 A 
HETATM   17  C   UNL     1     -43.953  59.693 -52.535  1.00  0.00     0.102 A 
HETATM   18  C   UNL     1     -43.359  58.503 -52.080  1.00  0.00     0.056 A 
BRANCH  16  19
HETATM   19  O   UNL     1     -44.201  62.057 -52.426  1.00  0.00    -0.353 OA
HETATM   20  C   UNL     1     -43.510  62.939 -53.302  1.00  0.00     0.210 C 
ENDBRANCH  16  19
BRANCH  17  21
HETATM   21  O   UNL     1     -44.927  59.461 -53.476  1.00  0.00    -0.353 OA
HETATM   22  C   UNL     1     -44.824  58.276 -54.254  1.00  0.00     0.210 C 
ENDBRANCH  17  21
ENDBRANCH  10  13
ENDBRANCH   7   9
ENDBRANCH   1   7
BRANCH   5  23
HETATM   23  C   UNL     1     -41.084  54.362 -54.966  1.00  0.00     0.256 C 
HETATM   24  O   UNL     1     -40.258  53.957 -55.778  1.00  0.00    -0.267 OA
HETATM   25  N   UNL     1     -42.170  55.179 -55.235  1.00  0.00    -0.323 N 
HETATM   26  H   UNL     1     -42.821  55.352 -54.479  1.00  0.00     0.169 HD
BRANCH  25  27
HETATM   27  C   UNL     1     -42.518  55.750 -56.480  1.00  0.00     0.035 A 
HETATM   28  C   UNL     1     -43.174  55.058 -57.498  1.00  0.00     0.030 A 
HETATM   29  C   UNL     1     -43.495  55.695 -58.701  1.00  0.00     0.010 A 
HETATM   30  C   UNL     1     -43.165  57.038 -58.904  1.00  0.00    -0.048 A 
HETATM   31  C   UNL     1     -43.482  57.706 -60.217  1.00  0.00     0.069 C 
HETATM   32  C   UNL     1     -42.478  57.742 -57.902  1.00  0.00    -0.022 A 
HETATM   33  C   UNL     1     -43.400  59.236 -60.133  1.00  0.00     0.277 C 
HETATM   34  N   UNL     1     -42.146  59.649 -59.490  1.00  0.00     0.088 N 
HETATM   35  C   UNL     1     -41.971  61.098 -59.571  1.00  0.00     0.310 C 
HETATM   36  C   UNL     1     -42.131  59.206 -58.083  1.00  0.00     0.311 C 
HETATM   37  C   UNL     1     -42.172  57.093 -56.692  1.00  0.00     0.039 A 
ENDBRANCH  25  27
ENDBRANCH   5  23
TORSDOF 7
ENDMDL
MODEL 8
REMARK VINA RESULT:      -8.3      4.720      8.274
REMARK  7 active torsions:
REMARK  status: ('A' for Active; 'I' for Inactive)
REMARK    1  A    between atoms: O_2  and  C_3 
REMARK    2  A    between atoms: C_6  and  C_11 
REMARK    3  A    between atoms: C_8  and  O_9 
REMARK       I    between atoms: C_11  and  N_13 
REMARK    4  A    between atoms: N_13  and  C_14 
REMARK    5  A    between atoms: C_14  and  C_16 
REMARK    6  A    between atoms: C_20  and  C_22 
REMARK       I    between atoms: C_22  and  N_24 
REMARK    7  A    between atoms: N_24  and  C_25 
ROOT
HETATM    1  C   UNL     1     -44.297  59.868 -52.349  1.00  0.00    -0.035 A 
HETATM    2  C   UNL     1     -43.282  60.724 -51.888  1.00  0.00     0.009 A 
HETATM    3  C   UNL     1     -42.128  60.211 -51.297  1.00  0.00     0.002 A 
HETATM    4  C   UNL     1     -41.980  58.835 -51.140  1.00  0.00     0.017 A 
HETATM    5  C   UNL     1     -42.989  57.961 -51.566  1.00  0.00     0.033 A 
HETATM    6  C   UNL     1     -44.137  58.482 -52.179  1.00  0.00     0.026 A 
ENDROOT
BRANCH   1   7
HETATM    7  C   UNL     1     -45.551  60.464 -52.967  1.00  0.00     0.114 C 
HETATM    8  C   UNL     1     -45.669  61.987 -52.868  1.00  0.00     0.037 C 
BRANCH   7   9
HETATM    9  N   UNL     1     -45.764  59.936 -54.310  1.00  0.00    -0.349 N 
HETATM   10  C   UNL     1     -44.925  60.161 -55.380  1.00  0.00     0.252 C 
HETATM   11  O   UNL     1     -43.932  60.881 -55.324  1.00  0.00    -0.268 OA
HETATM   12  H   UNL     1     -46.403  59.159 -54.360  1.00  0.00     0.163 HD
BRANCH  10  13
HETATM   13  C   UNL     1     -45.248  59.455 -56.659  1.00  0.00     0.034 A 
HETATM   14  C   UNL     1     -46.233  60.006 -57.485  1.00  0.00     0.020 A 
HETATM   15  C   UNL     1     -46.580  59.391 -58.693  1.00  0.00     0.040 A 
HETATM   16  C   UNL     1     -45.944  58.216 -59.113  1.00  0.00     0.101 A 
HETATM   17  C   UNL     1     -44.950  57.658 -58.289  1.00  0.00     0.102 A 
HETATM   18  C   UNL     1     -44.630  58.266 -57.062  1.00  0.00     0.056 A 
BRANCH  16  19
HETATM   19  O   UNL     1     -46.269  57.557 -60.267  1.00  0.00    -0.353 OA
HETATM   20  C   UNL     1     -46.985  56.333 -60.160  1.00  0.00     0.210 C 
ENDBRANCH  16  19
BRANCH  17  21
HETATM   21  O   UNL     1     -44.222  56.515 -58.508  1.00  0.00    -0.353 OA
HETATM   22  C   UNL     1     -42.860  56.511 -58.102  1.00  0.00     0.210 C 
ENDBRANCH  17  21
ENDBRANCH  10  13
ENDBRANCH   7   9
ENDBRANCH   1   7
BRANCH   5  23
HETATM   23  C   UNL     1     -42.775  56.497 -51.366  1.00  0.00     0.256 C 
HETATM   24  O   UNL     1     -43.764  55.799 -51.166  1.00  0.00    -0.267 OA
HETATM   25  N   UNL     1     -41.464  56.057 -51.462  1.00  0.00    -0.323 N 
HETATM   26  H   UNL     1     -40.763  56.738 -51.725  1.00  0.00     0.169 HD
BRANCH  25  27
HETATM   27  C   UNL     1     -40.996  54.733 -51.301  1.00  0.00     0.035 A 
HETATM   28  C   UNL     1     -40.685  54.162 -50.067  1.00  0.00     0.030 A 
HETATM   29  C   UNL     1     -40.237  52.841 -49.986  1.00  0.00     0.010 A 
HETATM   30  C   UNL     1     -40.094  52.067 -51.141  1.00  0.00    -0.048 A 
HETATM   31  C   UNL     1     -39.575  50.655 -51.048  1.00  0.00     0.069 C 
HETATM   32  C   UNL     1     -40.374  52.634 -52.394  1.00  0.00    -0.022 A 
HETATM   33  C   UNL     1     -39.835  49.848 -52.327  1.00  0.00     0.277 C 
HETATM   34  N   UNL     1     -39.413  50.609 -53.510  1.00  0.00     0.088 N 
HETATM   35  C   UNL     1     -39.483  49.782 -54.713  1.00  0.00     0.310 C 
HETATM   36  C   UNL     1     -40.254  51.811 -53.661  1.00  0.00     0.311 C 
HETATM   37  C   UNL     1     -40.836  53.961 -52.461  1.00  0.00     0.039 A 
ENDBRANCH  25  27
ENDBRANCH   5  23
TORSDOF 7
ENDMDL
MODEL 9
REMARK VINA RESULT:      -8.3      4.336      8.079
REMARK  7 active torsions:
REMARK  status: ('A' for Active; 'I' for Inactive)
REMARK    1  A    between atoms: O_2  and  C_3 
REMARK    2  A    between atoms: C_6  and  C_11 
REMARK    3  A    between atoms: C_8  and  O_9 
REMARK       I    between atoms: C_11  and  N_13 
REMARK    4  A    between atoms: N_13  and  C_14 
REMARK    5  A    between atoms: C_14  and  C_16 
REMARK    6  A    between atoms: C_20  and  C_22 
REMARK       I    between atoms: C_22  and  N_24 
REMARK    7  A    between atoms: N_24  and  C_25 
ROOT
HETATM    1  C   UNL     1     -41.719  54.380 -51.614  1.00  0.00    -0.035 A 
HETATM    2  C   UNL     1     -40.703  53.411 -51.693  1.00  0.00     0.009 A 
HETATM    3  C   UNL     1     -40.376  52.816 -52.910  1.00  0.00     0.002 A 
HETATM    4  C   UNL     1     -41.071  53.167 -54.065  1.00  0.00     0.017 A 
HETATM    5  C   UNL     1     -42.106  54.110 -54.010  1.00  0.00     0.033 A 
HETATM    6  C   UNL     1     -42.416  54.721 -52.786  1.00  0.00     0.026 A 
ENDROOT
BRANCH   1   7
HETATM    7  C   UNL     1     -42.063  54.989 -50.266  1.00  0.00     0.114 C 
HETATM    8  C   UNL     1     -41.019  54.780 -49.166  1.00  0.00     0.037 C 
BRANCH   7   9
HETATM    9  N   UNL     1     -42.495  56.374 -50.421  1.00  0.00    -0.349 N 
HETATM   10  C   UNL     1     -41.679  57.404 -50.838  1.00  0.00     0.252 C 
HETATM   11  O   UNL     1     -40.481  57.269 -51.070  1.00  0.00    -0.268 OA
HETATM   12  H   UNL     1     -43.492  56.499 -50.487  1.00  0.00     0.163 HD
BRANCH  10  13
HETATM   13  C   UNL     1     -42.319  58.742 -51.039  1.00  0.00     0.034 A 
HETATM   14  C   UNL     1     -41.770  59.841 -50.371  1.00  0.00     0.020 A 
HETATM   15  C   UNL     1     -42.323  61.118 -50.517  1.00  0.00     0.040 A 
HETATM   16  C   UNL     1     -43.434  61.331 -51.343  1.00  0.00     0.101 A 
HETATM   17  C   UNL     1     -43.990  60.230 -52.020  1.00  0.00     0.102 A 
HETATM   18  C   UNL     1     -43.445  58.947 -51.843  1.00  0.00     0.056 A 
BRANCH  16  19
HETATM   19  O   UNL     1     -44.035  62.551 -51.494  1.00  0.00    -0.353 OA
HETATM   20  C   UNL     1     -43.545  63.419 -52.508  1.00  0.00     0.210 C 
ENDBRANCH  16  19
BRANCH  17  21
HETATM   21  O   UNL     1     -45.077  60.223 -52.859  1.00  0.00    -0.353 OA
HETATM   22  C   UNL     1     -45.107  59.246 -53.891  1.00  0.00     0.210 C 
ENDBRANCH  17  21
ENDBRANCH  10  13
ENDBRANCH   7   9
ENDBRANCH   1   7
BRANCH   5  23
HETATM   23  C   UNL     1     -42.818  54.441 -55.280  1.00  0.00     0.256 C 
HETATM   24  O   UNL     1     -43.578  53.597 -55.742  1.00  0.00    -0.267 OA
HETATM   25  N   UNL     1     -42.575  55.702 -55.800  1.00  0.00    -0.323 N 
HETATM   26  H   UNL     1     -41.993  56.327 -55.255  1.00  0.00     0.169 HD
BRANCH  25  27
HETATM   27  C   UNL     1     -43.108  56.251 -56.988  1.00  0.00     0.035 A 
HETATM   28  C   UNL     1     -42.856  55.743 -58.263  1.00  0.00     0.030 A 
HETATM   29  C   UNL     1     -43.429  56.334 -59.392  1.00  0.00     0.010 A 
HETATM   30  C   UNL     1     -44.268  57.444 -59.264  1.00  0.00    -0.048 A 
HETATM   31  C   UNL     1     -44.853  58.098 -60.490  1.00  0.00     0.069 C 
HETATM   32  C   UNL     1     -44.510  57.987 -57.992  1.00  0.00    -0.022 A 
HETATM   33  C   UNL     1     -46.019  59.037 -60.156  1.00  0.00     0.277 C 
HETATM   34  N   UNL     1     -45.651  59.944 -59.060  1.00  0.00     0.088 N 
HETATM   35  C   UNL     1     -46.680  60.961 -58.858  1.00  0.00     0.310 C 
HETATM   36  C   UNL     1     -45.437  59.174 -57.820  1.00  0.00     0.311 C 
HETATM   37  C   UNL     1     -43.937  57.376 -56.863  1.00  0.00     0.039 A 
ENDBRANCH  25  27
ENDBRANCH   5  23
TORSDOF 7
ENDMDL
MODEL 10
REMARK VINA RESULT:      -8.0     19.363     23.137
REMARK  7 active torsions:
REMARK  status: ('A' for Active; 'I' for Inactive)
REMARK    1  A    between atoms: O_2  and  C_3 
REMARK    2  A    between atoms: C_6  and  C_11 
REMARK    3  A    between atoms: C_8  and  O_9 
REMARK       I    between atoms: C_11  and  N_13 
REMARK    4  A    between atoms: N_13  and  C_14 
REMARK    5  A    between atoms: C_14  and  C_16 
REMARK    6  A    between atoms: C_20  and  C_22 
REMARK       I    between atoms: C_22  and  N_24 
REMARK    7  A    between atoms: N_24  and  C_25 
ROOT
HETATM    1  C   UNL     1     -34.556  41.093 -55.071  1.00  0.00    -0.035 A 
HETATM    2  C   UNL     1     -35.454  42.118 -54.727  1.00  0.00     0.009 A 
HETATM    3  C   UNL     1     -35.895  42.271 -53.413  1.00  0.00     0.002 A 
HETATM    4  C   UNL     1     -35.459  41.390 -52.427  1.00  0.00     0.017 A 
HETATM    5  C   UNL     1     -34.585  40.343 -52.748  1.00  0.00     0.033 A 
HETATM    6  C   UNL     1     -34.129  40.207 -54.067  1.00  0.00     0.026 A 
ENDROOT
BRANCH   1   7
HETATM    7  C   UNL     1     -34.117  40.943 -56.518  1.00  0.00     0.114 C 
HETATM    8  C   UNL     1     -32.697  40.408 -56.720  1.00  0.00     0.037 C 
BRANCH   7   9
HETATM    9  N   UNL     1     -35.133  40.242 -57.295  1.00  0.00    -0.349 N 
HETATM   10  C   UNL     1     -36.071  40.861 -58.093  1.00  0.00     0.252 C 
HETATM   11  O   UNL     1     -36.182  42.080 -58.189  1.00  0.00    -0.268 OA
HETATM   12  H   UNL     1     -34.943  39.265 -57.452  1.00  0.00     0.163 HD
BRANCH  10  13
HETATM   13  C   UNL     1     -36.971  39.978 -58.899  1.00  0.00     0.034 A 
HETATM   14  C   UNL     1     -37.850  39.133 -58.213  1.00  0.00     0.020 A 
HETATM   15  C   UNL     1     -38.716  38.282 -58.909  1.00  0.00     0.040 A 
HETATM   16  C   UNL     1     -38.733  38.262 -60.310  1.00  0.00     0.101 A 
HETATM   17  C   UNL     1     -37.854  39.111 -61.006  1.00  0.00     0.102 A 
HETATM   18  C   UNL     1     -36.966  39.939 -60.297  1.00  0.00     0.056 A 
BRANCH  16  19
HETATM   19  O   UNL     1     -39.533  37.425 -61.039  1.00  0.00    -0.353 OA
HETATM   20  C   UNL     1     -40.891  37.801 -61.236  1.00  0.00     0.210 C 
ENDBRANCH  16  19
BRANCH  17  21
HETATM   21  O   UNL     1     -37.705  39.233 -62.365  1.00  0.00    -0.353 OA
HETATM   22  C   UNL     1     -36.820  38.329 -63.016  1.00  0.00     0.210 C 
ENDBRANCH  17  21
ENDBRANCH  10  13
ENDBRANCH   7   9
ENDBRANCH   1   7
BRANCH   5  23
HETATM   23  C   UNL     1     -34.157  39.428 -51.648  1.00  0.00     0.256 C 
HETATM   24  O   UNL     1     -34.167  38.222 -51.875  1.00  0.00    -0.267 OA
HETATM   25  N   UNL     1     -33.750  40.040 -50.474  1.00  0.00    -0.323 N 
HETATM   26  H   UNL     1     -33.706  41.052 -50.467  1.00  0.00     0.169 HD
BRANCH  25  27
HETATM   27  C   UNL     1     -33.315  39.405 -49.289  1.00  0.00     0.035 A 
HETATM   28  C   UNL     1     -34.064  38.457 -48.593  1.00  0.00     0.030 A 
HETATM   29  C   UNL     1     -33.562  37.863 -47.432  1.00  0.00     0.010 A 
HETATM   30  C   UNL     1     -32.297  38.208 -46.947  1.00  0.00    -0.048 A 
HETATM   31  C   UNL     1     -31.778  37.590 -45.674  1.00  0.00     0.069 C 
HETATM   32  C   UNL     1     -31.541  39.183 -47.617  1.00  0.00    -0.022 A 
HETATM   33  C   UNL     1     -30.267  37.787 -45.499  1.00  0.00     0.277 C 
HETATM   34  N   UNL     1     -29.902  39.192 -45.725  1.00  0.00     0.088 N 
HETATM   35  C   UNL     1     -28.501  39.428 -45.380  1.00  0.00     0.310 C 
HETATM   36  C   UNL     1     -30.155  39.558 -47.130  1.00  0.00     0.311 C 
HETATM   37  C   UNL     1     -32.053  39.764 -48.792  1.00  0.00     0.039 A 
ENDBRANCH  25  27
ENDBRANCH   5  23
TORSDOF 7
ENDMDL
