MODEL 1
REMARK VINA RESULT:      -8.4      0.000      0.000
REMARK  8 active torsions:
REMARK  status: ('A' for Active; 'I' for Inactive)
REMARK    1  A    between atoms: O_2  and  C_3 
REMARK    2  A    between atoms: C_5  and  C_6 
REMARK    3  A    between atoms: C_6  and  N_7 
REMARK       I    between atoms: N_7  and  C_8 
REMARK    4  A    between atoms: C_8  and  C_9 
REMARK    5  A    between atoms: C_9  and  C_10 
REMARK    6  A    between atoms: C_10  and  N_11 
REMARK    7  A    between atoms: N_11  and  S_12 
REMARK    8  A    between atoms: S_12  and  C_13 
ROOT
HETATM    1  N   UNL     1     -42.997  56.999 -52.224  1.00  0.00    -0.215 NA
HETATM    2  H   UNL     1     -43.356  56.382 -52.956  1.00  0.00     0.139 HD
ENDROOT
BRANCH   1   3
HETATM    3  C   UNL     1     -43.564  58.364 -52.180  1.00  0.00     0.113 C 
BRANCH   3   4
HETATM    4  C   UNL     1     -44.187  58.724 -53.521  1.00  0.00     0.118 C 
BRANCH   4   5
HETATM    5  C   UNL     1     -44.205  57.532 -54.451  1.00  0.00     0.219 C 
HETATM    6  N   UNL     1     -43.165  57.512 -55.349  1.00  0.00    -0.357 N 
HETATM    7  H   UNL     1     -42.392  58.146 -55.201  1.00  0.00     0.162 HD
HETATM    8  O   UNL     1     -45.065  56.661 -54.384  1.00  0.00    -0.274 OA
BRANCH   6   9
HETATM    9  C   UNL     1     -42.973  56.395 -56.244  1.00  0.00     0.161 C 
BRANCH   9  10
HETATM   10  C   UNL     1     -42.895  56.847 -57.679  1.00  0.00    -0.038 A 
HETATM   11  C   UNL     1     -43.588  56.147 -58.685  1.00  0.00     0.045 A 
HETATM   12  C   UNL     1     -43.531  56.559 -60.017  1.00  0.00     0.068 A 
HETATM   13  C   UNL     1     -42.773  57.681 -60.349  1.00  0.00     0.037 A 
HETATM   14  C   UNL     1     -42.078  58.386 -59.364  1.00  0.00     0.003 A 
HETATM   15  C   UNL     1     -42.138  57.970 -58.035  1.00  0.00     0.009 A 
BRANCH  12  16
HETATM   16  O   UNL     1     -44.161  55.955 -61.070  1.00  0.00    -0.356 OA
HETATM   17  C   UNL     1     -44.925  54.788 -60.787  1.00  0.00     0.210 C 
ENDBRANCH  12  16
ENDBRANCH   9  10
ENDBRANCH   6   9
ENDBRANCH   4   5
ENDBRANCH   3   4
ENDBRANCH   1   3
BRANCH   1  18
HETATM   18  S   UNL     1     -41.307  56.868 -52.179  1.00  0.00     0.241 S 
HETATM   19  O   UNL     1     -40.815  57.783 -53.185  1.00  0.00    -0.206 OA
HETATM   20  O   UNL     1     -40.907  56.961 -50.794  1.00  0.00    -0.206 OA
BRANCH  18  21
HETATM   21  C   UNL     1     -41.025  55.221 -52.763  1.00  0.00     0.075 A 
HETATM   22  C   UNL     1     -40.828  54.192 -51.844  1.00  0.00     0.034 A 
HETATM   23  C   UNL     1     -40.517  52.878 -52.263  1.00  0.00    -0.030 A 
HETATM   24  C   UNL     1     -40.461  52.608 -53.637  1.00  0.00     0.041 A 
HETATM   25  C   UNL     1     -40.311  51.873 -51.164  1.00  0.00     0.041 C 
HETATM   26  N   UNL     1     -40.166  51.379 -54.247  1.00  0.00    -0.327 N 
HETATM   27  C   UNL     1     -40.707  53.659 -54.548  1.00  0.00     0.031 A 
HETATM   28  C   UNL     1     -39.827  50.143 -53.811  1.00  0.00     0.222 C 
HETATM   29  H   UNL     1     -40.172  51.376 -55.263  1.00  0.00     0.169 HD
HETATM   30  O   UNL     1     -39.636  49.276 -54.670  1.00  0.00    -0.273 OA
HETATM   31  C   UNL     1     -39.749  49.771 -52.359  1.00  0.00     0.103 C 
HETATM   32  C   UNL     1     -39.223  50.855 -51.447  1.00  0.00     0.014 C 
HETATM   33  C   UNL     1     -40.982  54.959 -54.124  1.00  0.00     0.027 A 
ENDBRANCH  18  21
ENDBRANCH   1  18
TORSDOF 8
ENDMDL
MODEL 2
REMARK VINA RESULT:      -8.4      2.047      3.073
REMARK  8 active torsions:
REMARK  status: ('A' for Active; 'I' for Inactive)
REMARK    1  A    between atoms: O_2  and  C_3 
REMARK    2  A    between atoms: C_5  and  C_6 
REMARK    3  A    between atoms: C_6  and  N_7 
REMARK       I    between atoms: N_7  and  C_8 
REMARK    4  A    between atoms: C_8  and  C_9 
REMARK    5  A    between atoms: C_9  and  C_10 
REMARK    6  A    between atoms: C_10  and  N_11 
REMARK    7  A    between atoms: N_11  and  S_12 
REMARK    8  A    between atoms: S_12  and  C_13 
ROOT
HETATM    1  N   UNL     1     -42.767  58.263 -51.183  1.00  0.00    -0.215 NA
HETATM    2  H   UNL     1     -42.964  59.054 -51.799  1.00  0.00     0.139 HD
ENDROOT
BRANCH   1   3
HETATM    3  C   UNL     1     -41.340  57.957 -50.945  1.00  0.00     0.113 C 
BRANCH   3   4
HETATM    4  C   UNL     1     -40.462  58.714 -51.930  1.00  0.00     0.118 C 
BRANCH   4   5
HETATM    5  C   UNL     1     -41.292  59.346 -53.025  1.00  0.00     0.219 C 
HETATM    6  N   UNL     1     -41.467  58.541 -54.125  1.00  0.00    -0.357 N 
HETATM    7  H   UNL     1     -41.218  57.564 -54.048  1.00  0.00     0.162 HD
HETATM    8  O   UNL     1     -41.775  60.467 -52.918  1.00  0.00    -0.274 OA
BRANCH   6   9
HETATM    9  C   UNL     1     -42.316  58.947 -55.220  1.00  0.00     0.161 C 
BRANCH   9  10
HETATM   10  C   UNL     1     -42.651  57.783 -56.117  1.00  0.00    -0.038 A 
HETATM   11  C   UNL     1     -43.442  57.973 -57.265  1.00  0.00     0.045 A 
HETATM   12  C   UNL     1     -43.754  56.906 -58.109  1.00  0.00     0.068 A 
HETATM   13  C   UNL     1     -43.271  55.635 -57.802  1.00  0.00     0.037 A 
HETATM   14  C   UNL     1     -42.486  55.428 -56.666  1.00  0.00     0.003 A 
HETATM   15  C   UNL     1     -42.178  56.498 -55.827  1.00  0.00     0.009 A 
BRANCH  12  16
HETATM   16  O   UNL     1     -44.512  56.978 -59.244  1.00  0.00    -0.356 OA
HETATM   17  C   UNL     1     -44.118  56.161 -60.341  1.00  0.00     0.210 C 
ENDBRANCH  12  16
ENDBRANCH   9  10
ENDBRANCH   6   9
ENDBRANCH   4   5
ENDBRANCH   3   4
ENDBRANCH   1   3
BRANCH   1  18
HETATM   18  S   UNL     1     -43.768  56.967 -51.618  1.00  0.00     0.241 S 
HETATM   19  O   UNL     1     -44.744  56.850 -50.557  1.00  0.00    -0.206 OA
HETATM   20  O   UNL     1     -44.153  57.166 -52.996  1.00  0.00    -0.206 OA
BRANCH  18  21
HETATM   21  C   UNL     1     -42.680  55.576 -51.506  1.00  0.00     0.075 A 
HETATM   22  C   UNL     1     -42.080  55.079 -52.663  1.00  0.00     0.034 A 
HETATM   23  C   UNL     1     -41.270  53.921 -52.635  1.00  0.00    -0.030 A 
HETATM   24  C   UNL     1     -41.033  53.298 -51.402  1.00  0.00     0.041 A 
HETATM   25  C   UNL     1     -40.704  53.488 -53.959  1.00  0.00     0.041 C 
HETATM   26  N   UNL     1     -40.267  52.145 -51.169  1.00  0.00    -0.327 N 
HETATM   27  C   UNL     1     -41.617  53.845 -50.239  1.00  0.00     0.031 A 
HETATM   28  C   UNL     1     -39.579  51.274 -51.943  1.00  0.00     0.222 C 
HETATM   29  H   UNL     1     -40.208  51.841 -50.203  1.00  0.00     0.169 HD
HETATM   30  O   UNL     1     -39.005  50.342 -51.368  1.00  0.00    -0.273 OA
HETATM   31  C   UNL     1     -39.425  51.428 -53.428  1.00  0.00     0.103 C 
HETATM   32  C   UNL     1     -40.633  51.985 -54.143  1.00  0.00     0.014 C 
HETATM   33  C   UNL     1     -42.440  54.971 -50.282  1.00  0.00     0.027 A 
ENDBRANCH  18  21
ENDBRANCH   1  18
TORSDOF 8
ENDMDL
MODEL 3
REMARK VINA RESULT:      -8.2      1.975      7.402
REMARK  8 active torsions:
REMARK  status: ('A' for Active; 'I' for Inactive)
REMARK    1  A    between atoms: O_2  and  C_3 
REMARK    2  A    between atoms: C_5  and  C_6 
REMARK    3  A    between atoms: C_6  and  N_7 
REMARK       I    between atoms: N_7  and  C_8 
REMARK    4  A    between atoms: C_8  and  C_9 
REMARK    5  A    between atoms: C_9  and  C_10 
REMARK    6  A    between atoms: C_10  and  N_11 
REMARK    7  A    between atoms: N_11  and  S_12 
REMARK    8  A    between atoms: S_12  and  C_13 
ROOT
HETATM    1  N   UNL     1     -43.569  57.375 -53.732  1.00  0.00    -0.215 NA
HETATM    2  H   UNL     1     -43.661  56.470 -54.199  1.00  0.00     0.139 HD
ENDROOT
BRANCH   1   3
HETATM    3  C   UNL     1     -44.650  57.740 -52.791  1.00  0.00     0.113 C 
BRANCH   3   4
HETATM    4  C   UNL     1     -44.342  57.214 -51.397  1.00  0.00     0.118 C 
BRANCH   4   5
HETATM    5  C   UNL     1     -42.865  56.930 -51.237  1.00  0.00     0.219 C 
HETATM    6  N   UNL     1     -42.557  55.591 -51.210  1.00  0.00    -0.357 N 
HETATM    7  H   UNL     1     -43.269  54.930 -51.489  1.00  0.00     0.162 HD
HETATM    8  O   UNL     1     -42.030  57.823 -51.159  1.00  0.00    -0.274 OA
BRANCH   6   9
HETATM    9  C   UNL     1     -41.185  55.141 -51.164  1.00  0.00     0.161 C 
BRANCH   9  10
HETATM   10  C   UNL     1     -40.847  54.285 -52.358  1.00  0.00    -0.038 A 
HETATM   11  C   UNL     1     -40.400  52.962 -52.181  1.00  0.00     0.045 A 
HETATM   12  C   UNL     1     -40.090  52.155 -53.276  1.00  0.00     0.068 A 
HETATM   13  C   UNL     1     -40.229  52.674 -54.562  1.00  0.00     0.037 A 
HETATM   14  C   UNL     1     -40.669  53.985 -54.756  1.00  0.00     0.003 A 
HETATM   15  C   UNL     1     -40.977  54.787 -53.657  1.00  0.00     0.009 A 
BRANCH  12  16
HETATM   16  O   UNL     1     -39.648  50.862 -53.219  1.00  0.00    -0.356 OA
HETATM   17  C   UNL     1     -39.858  50.052 -54.370  1.00  0.00     0.210 C 
ENDBRANCH  12  16
ENDBRANCH   9  10
ENDBRANCH   6   9
ENDBRANCH   4   5
ENDBRANCH   3   4
ENDBRANCH   1   3
BRANCH   1  18
HETATM   18  S   UNL     1     -43.125  58.541 -54.880  1.00  0.00     0.241 S 
HETATM   19  O   UNL     1     -44.089  59.610 -54.749  1.00  0.00    -0.206 OA
HETATM   20  O   UNL     1     -41.705  58.765 -54.735  1.00  0.00    -0.206 OA
BRANCH  18  21
HETATM   21  C   UNL     1     -43.437  57.718 -56.415  1.00  0.00     0.075 A 
HETATM   22  C   UNL     1     -44.571  58.053 -57.155  1.00  0.00     0.034 A 
HETATM   23  C   UNL     1     -44.906  57.366 -58.344  1.00  0.00    -0.030 A 
HETATM   24  C   UNL     1     -44.042  56.362 -58.805  1.00  0.00     0.041 A 
HETATM   25  C   UNL     1     -46.166  57.819 -59.028  1.00  0.00     0.041 C 
HETATM   26  N   UNL     1     -44.201  55.569 -59.952  1.00  0.00    -0.327 N 
HETATM   27  C   UNL     1     -42.878  56.071 -58.060  1.00  0.00     0.031 A 
HETATM   28  C   UNL     1     -45.143  55.449 -60.916  1.00  0.00     0.222 C 
HETATM   29  H   UNL     1     -43.467  54.890 -60.125  1.00  0.00     0.169 HD
HETATM   30  O   UNL     1     -44.936  54.613 -61.803  1.00  0.00    -0.273 OA
HETATM   31  C   UNL     1     -46.363  56.319 -60.995  1.00  0.00     0.103 C 
HETATM   32  C   UNL     1     -46.966  56.699 -59.664  1.00  0.00     0.014 C 
HETATM   33  C   UNL     1     -42.573  56.734 -56.871  1.00  0.00     0.027 A 
ENDBRANCH  18  21
ENDBRANCH   1  18
TORSDOF 8
ENDMDL
MODEL 4
REMARK VINA RESULT:      -8.2      1.468      2.096
REMARK  8 active torsions:
REMARK  status: ('A' for Active; 'I' for Inactive)
REMARK    1  A    between atoms: O_2  and  C_3 
REMARK    2  A    between atoms: C_5  and  C_6 
REMARK    3  A    between atoms: C_6  and  N_7 
REMARK       I    between atoms: N_7  and  C_8 
REMARK    4  A    between atoms: C_8  and  C_9 
REMARK    5  A    between atoms: C_9  and  C_10 
REMARK    6  A    between atoms: C_10  and  N_11 
REMARK    7  A    between atoms: N_11  and  S_12 
REMARK    8  A    between atoms: S_12  and  C_13 
ROOT
HETATM    1  N   UNL     1     -41.195  57.854 -52.501  1.00  0.00    -0.215 NA
HETATM    2  H   UNL     1     -40.307  57.426 -52.770  1.00  0.00     0.139 HD
ENDROOT
BRANCH   1   3
HETATM    3  C   UNL     1     -41.247  59.332 -52.536  1.00  0.00     0.113 C 
BRANCH   3   4
HETATM    4  C   UNL     1     -41.863  59.811 -53.842  1.00  0.00     0.118 C 
BRANCH   4   5
HETATM    5  C   UNL     1     -42.734  58.740 -54.458  1.00  0.00     0.219 C 
HETATM    6  N   UNL     1     -42.089  57.968 -55.394  1.00  0.00    -0.357 N 
HETATM    7  H   UNL     1     -41.082  58.030 -55.454  1.00  0.00     0.162 HD
HETATM    8  O   UNL     1     -43.903  58.575 -54.128  1.00  0.00    -0.274 OA
BRANCH   6   9
HETATM    9  C   UNL     1     -42.742  56.836 -56.008  1.00  0.00     0.161 C 
BRANCH   9  10
HETATM   10  C   UNL     1     -42.734  56.946 -57.511  1.00  0.00    -0.038 A 
HETATM   11  C   UNL     1     -43.319  55.939 -58.302  1.00  0.00     0.045 A 
HETATM   12  C   UNL     1     -43.326  56.031 -59.694  1.00  0.00     0.068 A 
HETATM   13  C   UNL     1     -42.741  57.140 -60.304  1.00  0.00     0.037 A 
HETATM   14  C   UNL     1     -42.155  58.146 -59.535  1.00  0.00     0.003 A 
HETATM   15  C   UNL     1     -42.151  58.050 -58.144  1.00  0.00     0.009 A 
BRANCH  12  16
HETATM   16  O   UNL     1     -43.863  55.114 -60.555  1.00  0.00    -0.356 OA
HETATM   17  C   UNL     1     -45.208  55.324 -60.971  1.00  0.00     0.210 C 
ENDBRANCH  12  16
ENDBRANCH   9  10
ENDBRANCH   6   9
ENDBRANCH   4   5
ENDBRANCH   3   4
ENDBRANCH   1   3
BRANCH   1  18
HETATM   18  S   UNL     1     -41.761  57.099 -51.093  1.00  0.00     0.241 S 
HETATM   19  O   UNL     1     -41.057  57.727 -49.998  1.00  0.00    -0.206 OA
HETATM   20  O   UNL     1     -43.204  57.080 -51.168  1.00  0.00    -0.206 OA
BRANCH  18  21
HETATM   21  C   UNL     1     -41.142  55.449 -51.256  1.00  0.00     0.075 A 
HETATM   22  C   UNL     1     -40.959  54.908 -52.529  1.00  0.00     0.034 A 
HETATM   23  C   UNL     1     -40.546  53.568 -52.708  1.00  0.00    -0.030 A 
HETATM   24  C   UNL     1     -40.269  52.794 -51.573  1.00  0.00     0.041 A 
HETATM   25  C   UNL     1     -40.409  53.112 -54.134  1.00  0.00     0.041 C 
HETATM   26  N   UNL     1     -39.855  51.453 -51.543  1.00  0.00    -0.327 N 
HETATM   27  C   UNL     1     -40.420  53.378 -50.296  1.00  0.00     0.031 A 
HETATM   28  C   UNL     1     -39.627  50.494 -52.471  1.00  0.00     0.222 C 
HETATM   29  H   UNL     1     -39.701  51.058 -50.620  1.00  0.00     0.169 HD
HETATM   30  O   UNL     1     -39.259  49.389 -52.058  1.00  0.00    -0.273 OA
HETATM   31  C   UNL     1     -39.729  50.732 -53.949  1.00  0.00     0.103 C 
HETATM   32  C   UNL     1     -40.830  51.675 -54.372  1.00  0.00     0.014 C 
HETATM   33  C   UNL     1     -40.859  54.692 -50.130  1.00  0.00     0.027 A 
ENDBRANCH  18  21
ENDBRANCH   1  18
TORSDOF 8
ENDMDL
MODEL 5
REMARK VINA RESULT:      -8.1      1.877      2.671
REMARK  8 active torsions:
REMARK  status: ('A' for Active; 'I' for Inactive)
REMARK    1  A    between atoms: O_2  and  C_3 
REMARK    2  A    between atoms: C_5  and  C_6 
REMARK    3  A    between atoms: C_6  and  N_7 
REMARK       I    between atoms: N_7  and  C_8 
REMARK    4  A    between atoms: C_8  and  C_9 
REMARK    5  A    between atoms: C_9  and  C_10 
REMARK    6  A    between atoms: C_10  and  N_11 
REMARK    7  A    between atoms: N_11  and  S_12 
REMARK    8  A    between atoms: S_12  and  C_13 
ROOT
HETATM    1  N   UNL     1     -43.373  56.563 -53.467  1.00  0.00    -0.215 NA
HETATM    2  H   UNL     1     -43.493  55.828 -52.767  1.00  0.00     0.139 HD
ENDROOT
BRANCH   1   3
HETATM    3  C   UNL     1     -44.489  56.751 -54.419  1.00  0.00     0.113 C 
BRANCH   3   4
HETATM    4  C   UNL     1     -44.838  58.226 -54.545  1.00  0.00     0.118 C 
BRANCH   4   5
HETATM    5  C   UNL     1     -44.885  58.653 -55.995  1.00  0.00     0.219 C 
HETATM    6  N   UNL     1     -43.878  58.121 -56.763  1.00  0.00    -0.357 N 
HETATM    7  H   UNL     1     -43.330  57.364 -56.378  1.00  0.00     0.162 HD
HETATM    8  O   UNL     1     -45.759  59.392 -56.433  1.00  0.00    -0.274 OA
BRANCH   6   9
HETATM    9  C   UNL     1     -43.830  58.344 -58.189  1.00  0.00     0.161 C 
BRANCH   9  10
HETATM   10  C   UNL     1     -44.335  57.145 -58.951  1.00  0.00    -0.038 A 
HETATM   11  C   UNL     1     -45.553  57.209 -59.655  1.00  0.00     0.045 A 
HETATM   12  C   UNL     1     -46.029  56.110 -60.370  1.00  0.00     0.068 A 
HETATM   13  C   UNL     1     -45.282  54.932 -60.381  1.00  0.00     0.037 A 
HETATM   14  C   UNL     1     -44.073  54.851 -59.687  1.00  0.00     0.003 A 
HETATM   15  C   UNL     1     -43.602  55.953 -58.974  1.00  0.00     0.009 A 
BRANCH  12  16
HETATM   16  O   UNL     1     -47.194  56.062 -61.084  1.00  0.00    -0.356 OA
HETATM   17  C   UNL     1     -47.782  57.305 -61.450  1.00  0.00     0.210 C 
ENDBRANCH  12  16
ENDBRANCH   9  10
ENDBRANCH   6   9
ENDBRANCH   4   5
ENDBRANCH   3   4
ENDBRANCH   1   3
BRANCH   1  18
HETATM   18  S   UNL     1     -41.814  56.445 -54.123  1.00  0.00     0.241 S 
HETATM   19  O   UNL     1     -42.000  56.144 -55.525  1.00  0.00    -0.206 OA
HETATM   20  O   UNL     1     -41.073  57.602 -53.678  1.00  0.00    -0.206 OA
BRANCH  18  21
HETATM   21  C   UNL     1     -41.168  54.995 -53.341  1.00  0.00     0.075 A 
HETATM   22  C   UNL     1     -40.827  53.890 -54.119  1.00  0.00     0.034 A 
HETATM   23  C   UNL     1     -40.386  52.682 -53.533  1.00  0.00    -0.030 A 
HETATM   24  C   UNL     1     -40.244  52.626 -52.139  1.00  0.00     0.041 A 
HETATM   25  C   UNL     1     -40.071  51.567 -54.491  1.00  0.00     0.041 C 
HETATM   26  N   UNL     1     -39.827  51.525 -51.374  1.00  0.00    -0.327 N 
HETATM   27  C   UNL     1     -40.555  53.773 -51.376  1.00  0.00     0.031 A 
HETATM   28  C   UNL     1     -39.481  50.244 -51.639  1.00  0.00     0.222 C 
HETATM   29  H   UNL     1     -39.785  51.675 -50.371  1.00  0.00     0.169 HD
HETATM   30  O   UNL     1     -39.158  49.538 -50.677  1.00  0.00    -0.273 OA
HETATM   31  C   UNL     1     -39.403  49.678 -53.027  1.00  0.00     0.103 C 
HETATM   32  C   UNL     1     -40.450  50.188 -53.987  1.00  0.00     0.014 C 
HETATM   33  C   UNL     1     -41.020  54.950 -51.963  1.00  0.00     0.027 A 
ENDBRANCH  18  21
ENDBRANCH   1  18
TORSDOF 8
ENDMDL
MODEL 6
REMARK VINA RESULT:      -8.1      1.350      2.372
REMARK  8 active torsions:
REMARK  status: ('A' for Active; 'I' for Inactive)
REMARK    1  A    between atoms: O_2  and  C_3 
REMARK    2  A    between atoms: C_5  and  C_6 
REMARK    3  A    between atoms: C_6  and  N_7 
REMARK       I    between atoms: N_7  and  C_8 
REMARK    4  A    between atoms: C_8  and  C_9 
REMARK    5  A    between atoms: C_9  and  C_10 
REMARK    6  A    between atoms: C_10  and  N_11 
REMARK    7  A    between atoms: N_11  and  S_12 
REMARK    8  A    between atoms: S_12  and  C_13 
ROOT
HETATM    1  N   UNL     1     -43.171  56.387 -51.707  1.00  0.00    -0.215 NA
HETATM    2  H   UNL     1     -43.271  55.767 -52.513  1.00  0.00     0.139 HD
ENDROOT
BRANCH   1   3
HETATM    3  C   UNL     1     -43.968  57.633 -51.735  1.00  0.00     0.113 C 
BRANCH   3   4
HETATM    4  C   UNL     1     -44.503  57.891 -53.136  1.00  0.00     0.118 C 
BRANCH   4   5
HETATM    5  C   UNL     1     -43.967  56.875 -54.118  1.00  0.00     0.219 C 
HETATM    6  N   UNL     1     -42.812  57.267 -54.751  1.00  0.00    -0.357 N 
HETATM    7  H   UNL     1     -42.316  58.070 -54.387  1.00  0.00     0.162 HD
HETATM    8  O   UNL     1     -44.515  55.795 -54.309  1.00  0.00    -0.274 OA
BRANCH   6   9
HETATM    9  C   UNL     1     -42.111  56.377 -55.646  1.00  0.00     0.161 C 
BRANCH   9  10
HETATM   10  C   UNL     1     -42.511  56.612 -57.080  1.00  0.00    -0.038 A 
HETATM   11  C   UNL     1     -42.283  57.861 -57.687  1.00  0.00     0.045 A 
HETATM   12  C   UNL     1     -42.641  58.091 -59.016  1.00  0.00     0.068 A 
HETATM   13  C   UNL     1     -43.234  57.062 -59.747  1.00  0.00     0.037 A 
HETATM   14  C   UNL     1     -43.469  55.818 -59.159  1.00  0.00     0.003 A 
HETATM   15  C   UNL     1     -43.109  55.594 -57.831  1.00  0.00     0.009 A 
BRANCH  12  16
HETATM   16  O   UNL     1     -42.468  59.261 -59.702  1.00  0.00    -0.356 OA
HETATM   17  C   UNL     1     -42.797  60.467 -59.022  1.00  0.00     0.210 C 
ENDBRANCH  12  16
ENDBRANCH   9  10
ENDBRANCH   6   9
ENDBRANCH   4   5
ENDBRANCH   3   4
ENDBRANCH   1   3
BRANCH   1  18
HETATM   18  S   UNL     1     -41.525  56.537 -51.333  1.00  0.00     0.241 S 
HETATM   19  O   UNL     1     -40.953  57.340 -52.392  1.00  0.00    -0.206 OA
HETATM   20  O   UNL     1     -41.434  56.921 -49.944  1.00  0.00    -0.206 OA
BRANCH  18  21
HETATM   21  C   UNL     1     -40.926  54.883 -51.527  1.00  0.00     0.075 A 
HETATM   22  C   UNL     1     -40.873  54.318 -52.801  1.00  0.00     0.034 A 
HETATM   23  C   UNL     1     -40.481  52.974 -52.996  1.00  0.00    -0.030 A 
HETATM   24  C   UNL     1     -40.091  52.220 -51.880  1.00  0.00     0.041 A 
HETATM   25  C   UNL     1     -40.488  52.491 -54.419  1.00  0.00     0.041 C 
HETATM   26  N   UNL     1     -39.677  50.880 -51.866  1.00  0.00    -0.327 N 
HETATM   27  C   UNL     1     -40.113  52.829 -50.605  1.00  0.00     0.031 A 
HETATM   28  C   UNL     1     -39.545  49.903 -52.793  1.00  0.00     0.222 C 
HETATM   29  H   UNL     1     -39.431  50.502 -50.956  1.00  0.00     0.169 HD
HETATM   30  O   UNL     1     -39.137  48.804 -52.399  1.00  0.00    -0.273 OA
HETATM   31  C   UNL     1     -39.795  50.113 -54.258  1.00  0.00     0.103 C 
HETATM   32  C   UNL     1     -40.933  51.051 -54.586  1.00  0.00     0.014 C 
HETATM   33  C   UNL     1     -40.531  54.147 -50.421  1.00  0.00     0.027 A 
ENDBRANCH  18  21
ENDBRANCH   1  18
TORSDOF 8
ENDMDL
MODEL 7
REMARK VINA RESULT:      -8.0      2.023      3.187
REMARK  8 active torsions:
REMARK  status: ('A' for Active; 'I' for Inactive)
REMARK    1  A    between atoms: O_2  and  C_3 
REMARK    2  A    between atoms: C_5  and  C_6 
REMARK    3  A    between atoms: C_6  and  N_7 
REMARK       I    between atoms: N_7  and  C_8 
REMARK    4  A    between atoms: C_8  and  C_9 
REMARK    5  A    between atoms: C_9  and  C_10 
REMARK    6  A    between atoms: C_10  and  N_11 
REMARK    7  A    between atoms: N_11  and  S_12 
REMARK    8  A    between atoms: S_12  and  C_13 
ROOT
HETATM    1  N   UNL     1     -42.154  57.629 -53.610  1.00  0.00    -0.215 NA
HETATM    2  H   UNL     1     -41.509  58.343 -53.953  1.00  0.00     0.139 HD
ENDROOT
BRANCH   1   3
HETATM    3  C   UNL     1     -43.545  57.708 -54.107  1.00  0.00     0.113 C 
BRANCH   3   4
HETATM    4  C   UNL     1     -43.963  56.384 -54.729  1.00  0.00     0.118 C 
BRANCH   4   5
HETATM    5  C   UNL     1     -43.197  56.117 -56.006  1.00  0.00     0.219 C 
HETATM    6  N   UNL     1     -43.848  56.534 -57.142  1.00  0.00    -0.357 N 
HETATM    7  H   UNL     1     -44.651  57.139 -57.039  1.00  0.00     0.162 HD
HETATM    8  O   UNL     1     -42.090  55.592 -56.008  1.00  0.00    -0.274 OA
BRANCH   6   9
HETATM    9  C   UNL     1     -43.217  56.447 -58.438  1.00  0.00     0.161 C 
BRANCH   9  10
HETATM   10  C   UNL     1     -42.784  57.805 -58.930  1.00  0.00    -0.038 A 
HETATM   11  C   UNL     1     -42.071  58.675 -58.085  1.00  0.00     0.045 A 
HETATM   12  C   UNL     1     -41.657  59.931 -58.530  1.00  0.00     0.068 A 
HETATM   13  C   UNL     1     -41.960  60.323 -59.833  1.00  0.00     0.037 A 
HETATM   14  C   UNL     1     -42.669  59.473 -60.684  1.00  0.00     0.003 A 
HETATM   15  C   UNL     1     -43.080  58.219 -60.234  1.00  0.00     0.009 A 
BRANCH  12  16
HETATM   16  O   UNL     1     -40.963  60.852 -57.796  1.00  0.00    -0.356 OA
HETATM   17  C   UNL     1     -40.617  62.071 -58.443  1.00  0.00     0.210 C 
ENDBRANCH  12  16
ENDBRANCH   9  10
ENDBRANCH   6   9
ENDBRANCH   4   5
ENDBRANCH   3   4
ENDBRANCH   1   3
BRANCH   1  18
HETATM   18  S   UNL     1     -41.945  57.461 -51.936  1.00  0.00     0.241 S 
HETATM   19  O   UNL     1     -40.901  58.393 -51.574  1.00  0.00    -0.206 OA
HETATM   20  O   UNL     1     -43.257  57.508 -51.334  1.00  0.00    -0.206 OA
BRANCH  18  21
HETATM   21  C   UNL     1     -41.286  55.826 -51.784  1.00  0.00     0.075 A 
HETATM   22  C   UNL     1     -40.985  55.099 -52.935  1.00  0.00     0.034 A 
HETATM   23  C   UNL     1     -40.535  53.760 -52.866  1.00  0.00    -0.030 A 
HETATM   24  C   UNL     1     -40.343  53.182 -51.603  1.00  0.00     0.041 A 
HETATM   25  C   UNL     1     -40.267  53.092 -54.185  1.00  0.00     0.041 C 
HETATM   26  N   UNL     1     -39.910  51.876 -51.327  1.00  0.00    -0.327 N 
HETATM   27  C   UNL     1     -40.614  53.954 -50.452  1.00  0.00     0.031 A 
HETATM   28  C   UNL     1     -39.587  50.791 -52.069  1.00  0.00     0.222 C 
HETATM   29  H   UNL     1     -39.830  51.635 -50.344  1.00  0.00     0.169 HD
HETATM   30  O   UNL     1     -39.236  49.776 -51.458  1.00  0.00    -0.273 OA
HETATM   31  C   UNL     1     -39.565  50.792 -53.569  1.00  0.00     0.103 C 
HETATM   32  C   UNL     1     -40.642  51.623 -54.226  1.00  0.00     0.014 C 
HETATM   33  C   UNL     1     -41.088  55.264 -50.533  1.00  0.00     0.027 A 
ENDBRANCH  18  21
ENDBRANCH   1  18
TORSDOF 8
ENDMDL
MODEL 8
REMARK VINA RESULT:      -7.9      2.505      7.221
REMARK  8 active torsions:
REMARK  status: ('A' for Active; 'I' for Inactive)
REMARK    1  A    between atoms: O_2  and  C_3 
REMARK    2  A    between atoms: C_5  and  C_6 
REMARK    3  A    between atoms: C_6  and  N_7 
REMARK       I    between atoms: N_7  and  C_8 
REMARK    4  A    between atoms: C_8  and  C_9 
REMARK    5  A    between atoms: C_9  and  C_10 
REMARK    6  A    between atoms: C_10  and  N_11 
REMARK    7  A    between atoms: N_11  and  S_12 
REMARK    8  A    between atoms: S_12  and  C_13 
ROOT
HETATM    1  N   UNL     1     -42.058  58.452 -52.061  1.00  0.00    -0.215 NA
HETATM    2  H   UNL     1     -42.257  57.478 -52.299  1.00  0.00     0.139 HD
ENDROOT
BRANCH   1   3
HETATM    3  C   UNL     1     -43.138  59.192 -51.373  1.00  0.00     0.113 C 
BRANCH   3   4
HETATM    4  C   UNL     1     -44.405  58.351 -51.313  1.00  0.00     0.118 C 
BRANCH   4   5
HETATM    5  C   UNL     1     -44.319  57.171 -52.255  1.00  0.00     0.219 C 
HETATM    6  N   UNL     1     -43.712  56.066 -51.710  1.00  0.00    -0.357 N 
HETATM    7  H   UNL     1     -43.558  56.049 -50.711  1.00  0.00     0.162 HD
HETATM    8  O   UNL     1     -44.772  57.207 -53.394  1.00  0.00    -0.274 OA
BRANCH   6   9
HETATM    9  C   UNL     1     -43.636  54.820 -52.436  1.00  0.00     0.161 C 
BRANCH   9  10
HETATM   10  C   UNL     1     -42.340  54.102 -52.160  1.00  0.00    -0.038 A 
HETATM   11  C   UNL     1     -41.787  54.101 -50.865  1.00  0.00     0.045 A 
HETATM   12  C   UNL     1     -40.593  53.434 -50.593  1.00  0.00     0.068 A 
HETATM   13  C   UNL     1     -39.942  52.760 -51.625  1.00  0.00     0.037 A 
HETATM   14  C   UNL     1     -40.475  52.751 -52.916  1.00  0.00     0.003 A 
HETATM   15  C   UNL     1     -41.669  53.420 -53.182  1.00  0.00     0.009 A 
BRANCH  12  16
HETATM   16  O   UNL     1     -39.969  53.371 -49.378  1.00  0.00    -0.356 OA
HETATM   17  C   UNL     1     -40.558  54.100 -48.307  1.00  0.00     0.210 C 
ENDBRANCH  12  16
ENDBRANCH   9  10
ENDBRANCH   6   9
ENDBRANCH   4   5
ENDBRANCH   3   4
ENDBRANCH   1   3
BRANCH   1  18
HETATM   18  S   UNL     1     -41.341  59.207 -53.398  1.00  0.00     0.241 S 
HETATM   19  O   UNL     1     -42.000  60.488 -53.527  1.00  0.00    -0.206 OA
HETATM   20  O   UNL     1     -39.911  59.092 -53.239  1.00  0.00    -0.206 OA
BRANCH  18  21
HETATM   21  C   UNL     1     -41.867  58.192 -54.750  1.00  0.00     0.075 A 
HETATM   22  C   UNL     1     -42.527  58.776 -55.830  1.00  0.00     0.034 A 
HETATM   23  C   UNL     1     -43.038  57.996 -56.892  1.00  0.00    -0.030 A 
HETATM   24  C   UNL     1     -42.823  56.611 -56.870  1.00  0.00     0.041 A 
HETATM   25  C   UNL     1     -43.743  58.755 -57.981  1.00  0.00     0.041 C 
HETATM   26  N   UNL     1     -43.252  55.672 -57.821  1.00  0.00    -0.327 N 
HETATM   27  C   UNL     1     -42.114  56.048 -55.786  1.00  0.00     0.031 A 
HETATM   28  C   UNL     1     -43.978  55.720 -58.963  1.00  0.00     0.222 C 
HETATM   29  H   UNL     1     -43.001  54.706 -57.634  1.00  0.00     0.169 HD
HETATM   30  O   UNL     1     -44.162  54.653 -59.558  1.00  0.00    -0.273 OA
HETATM   31  C   UNL     1     -44.495  56.995 -59.562  1.00  0.00     0.103 C 
HETATM   32  C   UNL     1     -44.945  58.036 -58.564  1.00  0.00     0.014 C 
HETATM   33  C   UNL     1     -41.642  56.824 -54.727  1.00  0.00     0.027 A 
ENDBRANCH  18  21
ENDBRANCH   1  18
TORSDOF 8
ENDMDL
MODEL 9
REMARK VINA RESULT:      -7.8      2.723      7.914
REMARK  8 active torsions:
REMARK  status: ('A' for Active; 'I' for Inactive)
REMARK    1  A    between atoms: O_2  and  C_3 
REMARK    2  A    between atoms: C_5  and  C_6 
REMARK    3  A    between atoms: C_6  and  N_7 
REMARK       I    between atoms: N_7  and  C_8 
REMARK    4  A    between atoms: C_8  and  C_9 
REMARK    5  A    between atoms: C_9  and  C_10 
REMARK    6  A    between atoms: C_10  and  N_11 
REMARK    7  A    between atoms: N_11  and  S_12 
REMARK    8  A    between atoms: S_12  and  C_13 
ROOT
HETATM    1  N   UNL     1     -41.679  60.017 -55.898  1.00  0.00    -0.215 NA
HETATM    2  H   UNL     1     -41.358  59.069 -56.103  1.00  0.00     0.139 HD
ENDROOT
BRANCH   1   3
HETATM    3  C   UNL     1     -42.696  60.149 -54.833  1.00  0.00     0.113 C 
BRANCH   3   4
HETATM    4  C   UNL     1     -42.727  58.897 -53.969  1.00  0.00     0.118 C 
BRANCH   4   5
HETATM    5  C   UNL     1     -42.556  57.652 -54.810  1.00  0.00     0.219 C 
HETATM    6  N   UNL     1     -41.476  56.882 -54.450  1.00  0.00    -0.357 N 
HETATM    7  H   UNL     1     -41.019  57.080 -53.571  1.00  0.00     0.162 HD
HETATM    8  O   UNL     1     -43.330  57.360 -55.714  1.00  0.00    -0.274 OA
BRANCH   6   9
HETATM    9  C   UNL     1     -41.223  55.609 -55.082  1.00  0.00     0.161 C 
BRANCH   9  10
HETATM   10  C   UNL     1     -40.870  54.552 -54.067  1.00  0.00    -0.038 A 
HETATM   11  C   UNL     1     -40.310  53.328 -54.479  1.00  0.00     0.045 A 
HETATM   12  C   UNL     1     -39.971  52.343 -53.550  1.00  0.00     0.068 A 
HETATM   13  C   UNL     1     -40.195  52.583 -52.194  1.00  0.00     0.037 A 
HETATM   14  C   UNL     1     -40.751  53.791 -51.769  1.00  0.00     0.003 A 
HETATM   15  C   UNL     1     -41.088  54.771 -52.702  1.00  0.00     0.009 A 
BRANCH  12  16
HETATM   16  O   UNL     1     -39.425  51.123 -53.838  1.00  0.00    -0.356 OA
HETATM   17  C   UNL     1     -40.286  50.146 -54.411  1.00  0.00     0.210 C 
ENDBRANCH  12  16
ENDBRANCH   9  10
ENDBRANCH   6   9
ENDBRANCH   4   5
ENDBRANCH   3   4
ENDBRANCH   1   3
BRANCH   1  18
HETATM   18  S   UNL     1     -41.990  60.817 -57.360  1.00  0.00     0.241 S 
HETATM   19  O   UNL     1     -43.080  61.726 -57.087  1.00  0.00    -0.206 OA
HETATM   20  O   UNL     1     -40.721  61.274 -57.877  1.00  0.00    -0.206 OA
BRANCH  18  21
HETATM   21  C   UNL     1     -42.613  59.521 -58.392  1.00  0.00     0.075 A 
HETATM   22  C   UNL     1     -43.989  59.391 -58.573  1.00  0.00     0.034 A 
HETATM   23  C   UNL     1     -44.537  58.323 -59.320  1.00  0.00    -0.030 A 
HETATM   24  C   UNL     1     -43.662  57.412 -59.929  1.00  0.00     0.041 A 
HETATM   25  C   UNL     1     -46.037  58.296 -59.417  1.00  0.00     0.041 C 
HETATM   26  N   UNL     1     -44.008  56.292 -60.700  1.00  0.00    -0.327 N 
HETATM   27  C   UNL     1     -42.271  57.591 -59.765  1.00  0.00     0.031 A 
HETATM   28  C   UNL     1     -45.168  55.705 -61.080  1.00  0.00     0.222 C 
HETATM   29  H   UNL     1     -43.232  55.746 -61.061  1.00  0.00     0.169 HD
HETATM   30  O   UNL     1     -45.081  54.694 -61.786  1.00  0.00    -0.273 OA
HETATM   31  C   UNL     1     -46.523  56.258 -60.749  1.00  0.00     0.103 C 
HETATM   32  C   UNL     1     -46.637  56.904 -59.388  1.00  0.00     0.014 C 
HETATM   33  C   UNL     1     -41.742  58.630 -59.000  1.00  0.00     0.027 A 
ENDBRANCH  18  21
ENDBRANCH   1  18
TORSDOF 8
ENDMDL
MODEL 10
REMARK VINA RESULT:      -7.7      1.792      2.350
REMARK  8 active torsions:
REMARK  status: ('A' for Active; 'I' for Inactive)
REMARK    1  A    between atoms: O_2  and  C_3 
REMARK    2  A    between atoms: C_5  and  C_6 
REMARK    3  A    between atoms: C_6  and  N_7 
REMARK       I    between atoms: N_7  and  C_8 
REMARK    4  A    between atoms: C_8  and  C_9 
REMARK    5  A    between atoms: C_9  and  C_10 
REMARK    6  A    between atoms: C_10  and  N_11 
REMARK    7  A    between atoms: N_11  and  S_12 
REMARK    8  A    between atoms: S_12  and  C_13 
ROOT
HETATM    1  N   UNL     1     -42.048  57.711 -54.134  1.00  0.00    -0.215 NA
HETATM    2  H   UNL     1     -41.174  57.185 -54.208  1.00  0.00     0.139 HD
ENDROOT
BRANCH   1   3
HETATM    3  C   UNL     1     -41.971  59.016 -53.444  1.00  0.00     0.113 C 
BRANCH   3   4
HETATM    4  C   UNL     1     -42.863  60.037 -54.136  1.00  0.00     0.118 C 
BRANCH   4   5
HETATM    5  C   UNL     1     -42.723  59.952 -55.639  1.00  0.00     0.219 C 
HETATM    6  N   UNL     1     -43.823  59.425 -56.271  1.00  0.00    -0.357 N 
HETATM    7  H   UNL     1     -44.679  59.328 -55.742  1.00  0.00     0.162 HD
HETATM    8  O   UNL     1     -41.720  60.339 -56.227  1.00  0.00    -0.274 OA
BRANCH   6   9
HETATM    9  C   UNL     1     -43.899  59.364 -57.712  1.00  0.00     0.161 C 
BRANCH   9  10
HETATM   10  C   UNL     1     -43.940  57.939 -58.200  1.00  0.00    -0.038 A 
HETATM   11  C   UNL     1     -44.991  57.500 -59.028  1.00  0.00     0.045 A 
HETATM   12  C   UNL     1     -45.038  56.186 -59.494  1.00  0.00     0.068 A 
HETATM   13  C   UNL     1     -44.026  55.299 -59.129  1.00  0.00     0.037 A 
HETATM   14  C   UNL     1     -42.977  55.718 -58.308  1.00  0.00     0.003 A 
HETATM   15  C   UNL     1     -42.935  57.032 -57.845  1.00  0.00     0.009 A 
BRANCH  12  16
HETATM   16  O   UNL     1     -46.009  55.655 -60.297  1.00  0.00    -0.356 OA
HETATM   17  C   UNL     1     -47.128  56.482 -60.597  1.00  0.00     0.210 C 
ENDBRANCH  12  16
ENDBRANCH   9  10
ENDBRANCH   6   9
ENDBRANCH   4   5
ENDBRANCH   3   4
ENDBRANCH   1   3
BRANCH   1  18
HETATM   18  S   UNL     1     -43.282  56.656 -53.647  1.00  0.00     0.241 S 
HETATM   19  O   UNL     1     -43.501  56.928 -52.244  1.00  0.00    -0.206 OA
HETATM   20  O   UNL     1     -44.342  56.756 -54.623  1.00  0.00    -0.206 OA
BRANCH  18  21
HETATM   21  C   UNL     1     -42.513  55.067 -53.774  1.00  0.00     0.075 A 
HETATM   22  C   UNL     1     -41.922  54.499 -52.646  1.00  0.00     0.034 A 
HETATM   23  C   UNL     1     -41.224  53.271 -52.718  1.00  0.00    -0.030 A 
HETATM   24  C   UNL     1     -41.178  52.597 -53.946  1.00  0.00     0.041 A 
HETATM   25  C   UNL     1     -40.621  52.786 -51.429  1.00  0.00     0.041 C 
HETATM   26  N   UNL     1     -40.536  51.379 -54.220  1.00  0.00    -0.327 N 
HETATM   27  C   UNL     1     -41.821  53.173 -55.064  1.00  0.00     0.031 A 
HETATM   28  C   UNL     1     -39.778  50.509 -53.512  1.00  0.00     0.222 C 
HETATM   29  H   UNL     1     -40.612  51.044 -55.175  1.00  0.00     0.169 HD
HETATM   30  O   UNL     1     -39.371  49.505 -54.107  1.00  0.00    -0.273 OA
HETATM   31  C   UNL     1     -39.480  50.671 -52.050  1.00  0.00     0.103 C 
HETATM   32  C   UNL     1     -39.280  52.096 -51.591  1.00  0.00     0.014 C 
HETATM   33  C   UNL     1     -42.480  54.400 -54.989  1.00  0.00     0.027 A 
ENDBRANCH  18  21
ENDBRANCH   1  18
TORSDOF 8
ENDMDL
