MODEL 1
REMARK VINA RESULT:      -7.9      0.000      0.000
REMARK  6 active torsions:
REMARK  status: ('A' for Active; 'I' for Inactive)
REMARK    1  A    between atoms: C_2  and  C_3 
REMARK       I    between atoms: C_3  and  N_4 
REMARK    2  A    between atoms: N_4  and  C_5 
REMARK    3  A    between atoms: N_6  and  C_7 
REMARK    4  A    between atoms: C_7  and  C_8 
REMARK    5  A    between atoms: C_11  and  O_12 
REMARK    6  A    between atoms: C_20  and  C_21 
ROOT
HETATM    1  C   UNL     1     -42.369  57.476 -53.934  1.00  0.00     0.125 A 
HETATM    2  N   UNL     1     -43.123  58.341 -54.709  1.00  0.00    -0.332 N 
HETATM    3  C   UNL     1     -43.417  57.717 -55.924  1.00  0.00     0.017 A 
HETATM    4  C   UNL     1     -44.160  58.379 -57.043  1.00  0.00     0.069 C 
HETATM    5  C   UNL     1     -42.895  56.430 -55.898  1.00  0.00    -0.022 A 
HETATM    6  C   UNL     1     -42.992  55.431 -56.998  1.00  0.00     0.051 C 
HETATM    7  C   UNL     1     -42.238  56.288 -54.644  1.00  0.00     0.062 A 
ENDROOT
BRANCH   7   8
HETATM    8  C   UNL     1     -41.516  55.094 -54.084  1.00  0.00     0.143 A 
HETATM    9  N   UNL     1     -41.295  54.915 -52.791  1.00  0.00    -0.228 NA
HETATM   10  C   UNL     1     -40.684  53.691 -52.682  1.00  0.00     0.086 A 
HETATM   11  C   UNL     1     -40.503  53.116 -53.932  1.00  0.00     0.062 A 
HETATM   12  C   UNL     1     -40.259  52.999 -51.539  1.00  0.00     0.034 A 
HETATM   13  N   UNL     1     -41.025  54.035 -54.804  1.00  0.00    -0.338 N 
HETATM   14  C   UNL     1     -39.914  51.863 -54.123  1.00  0.00     0.032 A 
HETATM   15  H   UNL     1     -41.081  53.927 -55.803  1.00  0.00     0.167 HD
HETATM   16  C   UNL     1     -39.500  51.184 -52.971  1.00  0.00     0.002 A 
HETATM   17  C   UNL     1     -39.668  51.739 -51.700  1.00  0.00     0.002 A 
ENDBRANCH   7   8
BRANCH   1  18
HETATM   18  N   UNL     1     -41.759  57.694 -52.702  1.00  0.00    -0.312 N 
HETATM   19  C   UNL     1     -40.672  58.485 -52.413  1.00  0.00     0.222 C 
HETATM   20  O   UNL     1     -40.060  59.204 -53.194  1.00  0.00    -0.273 OA
HETATM   21  H   UNL     1     -42.374  57.465 -51.917  1.00  0.00     0.170 HD
BRANCH  19  22
HETATM   22  C   UNL     1     -40.211  58.365 -50.968  1.00  0.00     0.099 C 
HETATM   23  C   UNL     1     -40.461  59.602 -50.124  1.00  0.00     0.014 C 
ENDBRANCH  19  22
ENDBRANCH   1  18
BRANCH   2  24
HETATM   24  C   UNL     1     -43.412  59.755 -54.446  1.00  0.00     0.169 C 
BRANCH  24  25
HETATM   25  C   UNL     1     -44.045  60.053 -53.098  1.00  0.00    -0.040 A 
HETATM   26  C   UNL     1     -45.281  59.458 -52.803  1.00  0.00     0.011 A 
HETATM   27  C   UNL     1     -45.893  59.649 -51.559  1.00  0.00     0.037 A 
HETATM   28  C   UNL     1     -45.280  60.424 -50.577  1.00  0.00     0.068 A 
HETATM   29  C   UNL     1     -44.062  61.036 -50.861  1.00  0.00     0.037 A 
HETATM   30  C   UNL     1     -43.454  60.856 -52.110  1.00  0.00     0.011 A 
BRANCH  28  31
HETATM   31  O   UNL     1     -45.967  60.512 -49.397  1.00  0.00    -0.356 OA
HETATM   32  C   UNL     1     -45.413  61.359 -48.398  1.00  0.00     0.210 C 
ENDBRANCH  28  31
ENDBRANCH  24  25
ENDBRANCH   2  24
TORSDOF 6
ENDMDL
MODEL 2
REMARK VINA RESULT:      -7.8      2.618      6.675
REMARK  6 active torsions:
REMARK  status: ('A' for Active; 'I' for Inactive)
REMARK    1  A    between atoms: C_2  and  C_3 
REMARK       I    between atoms: C_3  and  N_4 
REMARK    2  A    between atoms: N_4  and  C_5 
REMARK    3  A    between atoms: N_6  and  C_7 
REMARK    4  A    between atoms: C_7  and  C_8 
REMARK    5  A    between atoms: C_11  and  O_12 
REMARK    6  A    between atoms: C_20  and  C_21 
ROOT
HETATM    1  C   UNL     1     -42.638  57.447 -53.557  1.00  0.00     0.125 A 
HETATM    2  N   UNL     1     -42.998  57.796 -52.267  1.00  0.00    -0.332 N 
HETATM    3  C   UNL     1     -44.034  58.731 -52.325  1.00  0.00     0.017 A 
HETATM    4  C   UNL     1     -44.633  59.388 -51.121  1.00  0.00     0.069 C 
HETATM    5  C   UNL     1     -44.371  58.934 -53.658  1.00  0.00    -0.022 A 
HETATM    6  C   UNL     1     -45.432  59.854 -54.155  1.00  0.00     0.051 C 
HETATM    7  C   UNL     1     -43.489  58.124 -54.424  1.00  0.00     0.062 A 
ENDROOT
BRANCH   7   8
HETATM    8  C   UNL     1     -43.421  57.946 -55.916  1.00  0.00     0.143 A 
HETATM    9  N   UNL     1     -42.411  58.377 -56.656  1.00  0.00    -0.228 NA
HETATM   10  C   UNL     1     -42.684  57.964 -57.936  1.00  0.00     0.086 A 
HETATM   11  C   UNL     1     -43.895  57.287 -57.990  1.00  0.00     0.062 A 
HETATM   12  C   UNL     1     -41.934  58.124 -59.110  1.00  0.00     0.034 A 
HETATM   13  N   UNL     1     -44.348  57.306 -56.696  1.00  0.00    -0.338 N 
HETATM   14  C   UNL     1     -44.421  56.744 -59.165  1.00  0.00     0.032 A 
HETATM   15  H   UNL     1     -45.198  56.878 -56.369  1.00  0.00     0.167 HD
HETATM   16  C   UNL     1     -43.657  56.909 -60.327  1.00  0.00     0.002 A 
HETATM   17  C   UNL     1     -42.435  57.587 -60.303  1.00  0.00     0.002 A 
ENDBRANCH   7   8
BRANCH   1  18
HETATM   18  N   UNL     1     -41.594  56.637 -53.998  1.00  0.00    -0.312 N 
HETATM   19  C   UNL     1     -41.651  55.342 -54.456  1.00  0.00     0.222 C 
HETATM   20  O   UNL     1     -42.659  54.665 -54.620  1.00  0.00    -0.273 OA
HETATM   21  H   UNL     1     -40.770  57.179 -54.269  1.00  0.00     0.170 HD
BRANCH  19  22
HETATM   22  C   UNL     1     -40.278  54.741 -54.722  1.00  0.00     0.099 C 
HETATM   23  C   UNL     1     -40.223  53.228 -54.612  1.00  0.00     0.014 C 
ENDBRANCH  19  22
ENDBRANCH   1  18
BRANCH   2  24
HETATM   24  C   UNL     1     -42.307  57.445 -51.020  1.00  0.00     0.169 C 
BRANCH  24  25
HETATM   25  C   UNL     1     -41.884  55.992 -50.894  1.00  0.00    -0.040 A 
HETATM   26  C   UNL     1     -40.559  55.720 -50.521  1.00  0.00     0.011 A 
HETATM   27  C   UNL     1     -40.118  54.405 -50.336  1.00  0.00     0.037 A 
HETATM   28  C   UNL     1     -40.993  53.332 -50.504  1.00  0.00     0.068 A 
HETATM   29  C   UNL     1     -42.306  53.585 -50.891  1.00  0.00     0.037 A 
HETATM   30  C   UNL     1     -42.745  54.901 -51.089  1.00  0.00     0.011 A 
BRANCH  28  31
HETATM   31  O   UNL     1     -40.447  52.100 -50.269  1.00  0.00    -0.356 OA
HETATM   32  C   UNL     1     -39.749  51.497 -51.351  1.00  0.00     0.210 C 
ENDBRANCH  28  31
ENDBRANCH  24  25
ENDBRANCH   2  24
TORSDOF 6
ENDMDL
MODEL 3
REMARK VINA RESULT:      -7.6      2.039      7.285
REMARK  6 active torsions:
REMARK  status: ('A' for Active; 'I' for Inactive)
REMARK    1  A    between atoms: C_2  and  C_3 
REMARK       I    between atoms: C_3  and  N_4 
REMARK    2  A    between atoms: N_4  and  C_5 
REMARK    3  A    between atoms: N_6  and  C_7 
REMARK    4  A    between atoms: C_7  and  C_8 
REMARK    5  A    between atoms: C_11  and  O_12 
REMARK    6  A    between atoms: C_20  and  C_21 
ROOT
HETATM    1  C   UNL     1     -42.237  57.597 -53.483  1.00  0.00     0.125 A 
HETATM    2  N   UNL     1     -41.880  56.775 -54.538  1.00  0.00    -0.332 N 
HETATM    3  C   UNL     1     -43.002  56.561 -55.342  1.00  0.00     0.017 A 
HETATM    4  C   UNL     1     -43.009  55.663 -56.540  1.00  0.00     0.069 C 
HETATM    5  C   UNL     1     -44.062  57.296 -54.826  1.00  0.00    -0.022 A 
HETATM    6  C   UNL     1     -45.439  57.347 -55.391  1.00  0.00     0.051 C 
HETATM    7  C   UNL     1     -43.572  57.943 -53.658  1.00  0.00     0.062 A 
ENDROOT
BRANCH   7   8
HETATM    8  C   UNL     1     -44.290  58.874 -52.720  1.00  0.00     0.143 A 
HETATM    9  N   UNL     1     -44.096  58.883 -51.411  1.00  0.00    -0.228 NA
HETATM   10  C   UNL     1     -44.868  59.908 -50.926  1.00  0.00     0.086 A 
HETATM   11  C   UNL     1     -45.569  60.528 -51.952  1.00  0.00     0.062 A 
HETATM   12  C   UNL     1     -45.015  60.376 -49.612  1.00  0.00     0.034 A 
HETATM   13  N   UNL     1     -45.195  59.840 -53.077  1.00  0.00    -0.338 N 
HETATM   14  C   UNL     1     -46.427  61.612 -51.751  1.00  0.00     0.032 A 
HETATM   15  H   UNL     1     -45.500  60.043 -54.014  1.00  0.00     0.167 HD
HETATM   16  C   UNL     1     -46.559  62.069 -50.434  1.00  0.00     0.002 A 
HETATM   17  C   UNL     1     -45.866  61.465 -49.381  1.00  0.00     0.002 A 
ENDBRANCH   7   8
BRANCH   1  18
HETATM   18  N   UNL     1     -41.490  57.996 -52.378  1.00  0.00    -0.312 N 
HETATM   19  C   UNL     1     -40.403  58.837 -52.338  1.00  0.00     0.222 C 
HETATM   20  O   UNL     1     -39.914  59.450 -53.280  1.00  0.00    -0.273 OA
HETATM   21  H   UNL     1     -41.997  57.870 -51.498  1.00  0.00     0.170 HD
BRANCH  19  22
HETATM   22  C   UNL     1     -39.766  58.929 -50.959  1.00  0.00     0.099 C 
HETATM   23  C   UNL     1     -40.624  59.620 -49.915  1.00  0.00     0.014 C 
ENDBRANCH  19  22
ENDBRANCH   1  18
BRANCH   2  24
HETATM   24  C   UNL     1     -40.617  56.048 -54.717  1.00  0.00     0.169 C 
BRANCH  24  25
HETATM   25  C   UNL     1     -40.539  54.696 -54.029  1.00  0.00    -0.040 A 
HETATM   26  C   UNL     1     -40.207  53.577 -54.808  1.00  0.00     0.011 A 
HETATM   27  C   UNL     1     -40.067  52.312 -54.227  1.00  0.00     0.037 A 
HETATM   28  C   UNL     1     -40.238  52.137 -52.855  1.00  0.00     0.068 A 
HETATM   29  C   UNL     1     -40.586  53.234 -52.071  1.00  0.00     0.037 A 
HETATM   30  C   UNL     1     -40.739  54.499 -52.654  1.00  0.00     0.011 A 
BRANCH  28  31
HETATM   31  O   UNL     1     -40.049  50.858 -52.408  1.00  0.00    -0.356 OA
HETATM   32  C   UNL     1     -39.702  49.886 -53.386  1.00  0.00     0.210 C 
ENDBRANCH  28  31
ENDBRANCH  24  25
ENDBRANCH   2  24
TORSDOF 6
ENDMDL
MODEL 4
REMARK VINA RESULT:      -7.4      3.348      8.169
REMARK  6 active torsions:
REMARK  status: ('A' for Active; 'I' for Inactive)
REMARK    1  A    between atoms: C_2  and  C_3 
REMARK       I    between atoms: C_3  and  N_4 
REMARK    2  A    between atoms: N_4  and  C_5 
REMARK    3  A    between atoms: N_6  and  C_7 
REMARK    4  A    between atoms: C_7  and  C_8 
REMARK    5  A    between atoms: C_11  and  O_12 
REMARK    6  A    between atoms: C_20  and  C_21 
ROOT
HETATM    1  C   UNL     1     -43.210  57.393 -56.006  1.00  0.00     0.125 A 
HETATM    2  N   UNL     1     -43.615  56.840 -54.803  1.00  0.00    -0.332 N 
HETATM    3  C   UNL     1     -43.578  57.828 -53.817  1.00  0.00     0.017 A 
HETATM    4  C   UNL     1     -43.885  57.578 -52.373  1.00  0.00     0.069 C 
HETATM    5  C   UNL     1     -43.201  59.028 -54.408  1.00  0.00    -0.022 A 
HETATM    6  C   UNL     1     -43.045  60.331 -53.704  1.00  0.00     0.051 C 
HETATM    7  C   UNL     1     -42.972  58.745 -55.783  1.00  0.00     0.062 A 
ENDROOT
BRANCH   7   8
HETATM    8  C   UNL     1     -42.560  59.679 -56.886  1.00  0.00     0.143 A 
HETATM    9  N   UNL     1     -41.430  60.368 -56.875  1.00  0.00    -0.228 NA
HETATM   10  C   UNL     1     -41.388  61.035 -58.073  1.00  0.00     0.086 A 
HETATM   11  C   UNL     1     -42.523  60.771 -58.827  1.00  0.00     0.062 A 
HETATM   12  C   UNL     1     -40.399  61.883 -58.593  1.00  0.00     0.034 A 
HETATM   13  N   UNL     1     -43.258  59.921 -58.042  1.00  0.00    -0.338 N 
HETATM   14  C   UNL     1     -42.744  61.308 -60.098  1.00  0.00     0.032 A 
HETATM   15  H   UNL     1     -44.139  59.508 -58.294  1.00  0.00     0.167 HD
HETATM   16  C   UNL     1     -41.745  62.149 -60.604  1.00  0.00     0.002 A 
HETATM   17  C   UNL     1     -40.592  62.434 -59.867  1.00  0.00     0.002 A 
ENDBRANCH   7   8
BRANCH   1  18
HETATM   18  N   UNL     1     -42.987  56.777 -57.234  1.00  0.00    -0.312 N 
HETATM   19  C   UNL     1     -43.838  56.683 -58.310  1.00  0.00     0.222 C 
HETATM   20  O   UNL     1     -44.951  57.184 -58.412  1.00  0.00    -0.273 OA
HETATM   21  H   UNL     1     -41.992  56.648 -57.430  1.00  0.00     0.170 HD
BRANCH  19  22
HETATM   22  C   UNL     1     -43.290  55.813 -59.433  1.00  0.00     0.099 C 
HETATM   23  C   UNL     1     -44.339  55.309 -60.406  1.00  0.00     0.014 C 
ENDBRANCH  19  22
ENDBRANCH   1  18
BRANCH   2  24
HETATM   24  C   UNL     1     -43.847  55.421 -54.504  1.00  0.00     0.169 C 
BRANCH  24  25
HETATM   25  C   UNL     1     -42.607  54.617 -54.153  1.00  0.00    -0.040 A 
HETATM   26  C   UNL     1     -42.484  54.132 -52.841  1.00  0.00     0.011 A 
HETATM   27  C   UNL     1     -41.394  53.341 -52.466  1.00  0.00     0.037 A 
HETATM   28  C   UNL     1     -40.409  53.001 -53.393  1.00  0.00     0.068 A 
HETATM   29  C   UNL     1     -40.508  53.489 -54.694  1.00  0.00     0.037 A 
HETATM   30  C   UNL     1     -41.593  54.292 -55.067  1.00  0.00     0.011 A 
BRANCH  28  31
HETATM   31  O   UNL     1     -39.410  52.202 -52.908  1.00  0.00    -0.356 OA
HETATM   32  C   UNL     1     -39.640  51.592 -51.644  1.00  0.00     0.210 C 
ENDBRANCH  28  31
ENDBRANCH  24  25
ENDBRANCH   2  24
TORSDOF 6
ENDMDL
MODEL 5
REMARK VINA RESULT:      -7.4      2.924      5.920
REMARK  6 active torsions:
REMARK  status: ('A' for Active; 'I' for Inactive)
REMARK    1  A    between atoms: C_2  and  C_3 
REMARK       I    between atoms: C_3  and  N_4 
REMARK    2  A    between atoms: N_4  and  C_5 
REMARK    3  A    between atoms: N_6  and  C_7 
REMARK    4  A    between atoms: C_7  and  C_8 
REMARK    5  A    between atoms: C_11  and  O_12 
REMARK    6  A    between atoms: C_20  and  C_21 
ROOT
HETATM    1  C   UNL     1     -42.054  57.066 -54.453  1.00  0.00     0.125 A 
HETATM    2  N   UNL     1     -42.621  58.094 -55.188  1.00  0.00    -0.332 N 
HETATM    3  C   UNL     1     -43.549  58.762 -54.385  1.00  0.00     0.017 A 
HETATM    4  C   UNL     1     -44.409  59.890 -54.867  1.00  0.00     0.069 C 
HETATM    5  C   UNL     1     -43.530  58.192 -53.118  1.00  0.00    -0.022 A 
HETATM    6  C   UNL     1     -44.369  58.615 -51.963  1.00  0.00     0.051 C 
HETATM    7  C   UNL     1     -42.588  57.128 -53.171  1.00  0.00     0.062 A 
ENDROOT
BRANCH   7   8
HETATM    8  C   UNL     1     -42.161  56.187 -52.079  1.00  0.00     0.143 A 
HETATM    9  N   UNL     1     -41.880  54.910 -52.284  1.00  0.00    -0.228 NA
HETATM   10  C   UNL     1     -41.466  54.419 -51.071  1.00  0.00     0.086 A 
HETATM   11  C   UNL     1     -41.514  55.405 -50.095  1.00  0.00     0.062 A 
HETATM   12  C   UNL     1     -41.022  53.134 -50.728  1.00  0.00     0.034 A 
HETATM   13  N   UNL     1     -41.975  56.512 -50.759  1.00  0.00    -0.338 N 
HETATM   14  C   UNL     1     -41.138  55.190 -48.767  1.00  0.00     0.032 A 
HETATM   15  H   UNL     1     -42.109  57.422 -50.354  1.00  0.00     0.167 HD
HETATM   16  C   UNL     1     -40.693  53.903 -48.443  1.00  0.00     0.002 A 
HETATM   17  C   UNL     1     -40.635  52.890 -49.404  1.00  0.00     0.002 A 
ENDBRANCH   7   8
BRANCH   1  18
HETATM   18  N   UNL     1     -41.166  56.073 -54.858  1.00  0.00    -0.312 N 
HETATM   19  C   UNL     1     -41.448  54.801 -55.298  1.00  0.00     0.222 C 
HETATM   20  O   UNL     1     -42.559  54.314 -55.472  1.00  0.00    -0.273 OA
HETATM   21  H   UNL     1     -40.253  56.451 -55.120  1.00  0.00     0.170 HD
BRANCH  19  22
HETATM   22  C   UNL     1     -40.202  53.956 -55.525  1.00  0.00     0.099 C 
HETATM   23  C   UNL     1     -40.063  52.776 -54.581  1.00  0.00     0.014 C 
ENDBRANCH  19  22
ENDBRANCH   1  18
BRANCH   2  24
HETATM   24  C   UNL     1     -42.475  58.352 -56.625  1.00  0.00     0.169 C 
BRANCH  24  25
HETATM   25  C   UNL     1     -43.353  57.507 -57.533  1.00  0.00    -0.040 A 
HETATM   26  C   UNL     1     -44.643  57.975 -57.827  1.00  0.00     0.011 A 
HETATM   27  C   UNL     1     -45.482  57.272 -58.697  1.00  0.00     0.037 A 
HETATM   28  C   UNL     1     -45.050  56.094 -59.306  1.00  0.00     0.068 A 
HETATM   29  C   UNL     1     -43.780  55.607 -59.010  1.00  0.00     0.037 A 
HETATM   30  C   UNL     1     -42.942  56.304 -58.128  1.00  0.00     0.011 A 
BRANCH  28  31
HETATM   31  O   UNL     1     -45.955  55.517 -60.154  1.00  0.00    -0.356 OA
HETATM   32  C   UNL     1     -47.103  56.289 -60.481  1.00  0.00     0.210 C 
ENDBRANCH  28  31
ENDBRANCH  24  25
ENDBRANCH   2  24
TORSDOF 6
ENDMDL
MODEL 6
REMARK VINA RESULT:      -7.3      1.737      3.970
REMARK  6 active torsions:
REMARK  status: ('A' for Active; 'I' for Inactive)
REMARK    1  A    between atoms: C_2  and  C_3 
REMARK       I    between atoms: C_3  and  N_4 
REMARK    2  A    between atoms: N_4  and  C_5 
REMARK    3  A    between atoms: N_6  and  C_7 
REMARK    4  A    between atoms: C_7  and  C_8 
REMARK    5  A    between atoms: C_11  and  O_12 
REMARK    6  A    between atoms: C_20  and  C_21 
ROOT
HETATM    1  C   UNL     1     -41.315  56.168 -53.057  1.00  0.00     0.125 A 
HETATM    2  N   UNL     1     -41.426  57.412 -52.459  1.00  0.00    -0.332 N 
HETATM    3  C   UNL     1     -41.134  57.286 -51.099  1.00  0.00     0.017 A 
HETATM    4  C   UNL     1     -41.220  58.415 -50.119  1.00  0.00     0.069 C 
HETATM    5  C   UNL     1     -40.781  55.966 -50.843  1.00  0.00    -0.022 A 
HETATM    6  C   UNL     1     -40.395  55.413 -49.516  1.00  0.00     0.051 C 
HETATM    7  C   UNL     1     -40.899  55.272 -52.079  1.00  0.00     0.062 A 
ENDROOT
BRANCH   7   8
HETATM    8  C   UNL     1     -40.624  53.825 -52.382  1.00  0.00     0.143 A 
HETATM    9  N   UNL     1     -40.705  53.306 -53.597  1.00  0.00    -0.228 NA
HETATM   10  C   UNL     1     -40.314  51.996 -53.470  1.00  0.00     0.086 A 
HETATM   11  C   UNL     1     -40.010  51.697 -52.149  1.00  0.00     0.062 A 
HETATM   12  C   UNL     1     -40.186  51.000 -54.448  1.00  0.00     0.034 A 
HETATM   13  N   UNL     1     -40.232  52.871 -51.478  1.00  0.00    -0.338 N 
HETATM   14  C   UNL     1     -39.574  50.438 -51.728  1.00  0.00     0.032 A 
HETATM   15  H   UNL     1     -40.085  53.018 -50.494  1.00  0.00     0.167 HD
HETATM   16  C   UNL     1     -39.448  49.456 -52.718  1.00  0.00     0.002 A 
HETATM   17  C   UNL     1     -39.748  49.729 -54.055  1.00  0.00     0.002 A 
ENDBRANCH   7   8
BRANCH   1  18
HETATM   18  N   UNL     1     -41.611  55.783 -54.362  1.00  0.00    -0.312 N 
HETATM   19  C   UNL     1     -42.842  55.686 -54.966  1.00  0.00     0.222 C 
HETATM   20  O   UNL     1     -43.926  55.980 -54.476  1.00  0.00    -0.273 OA
HETATM   21  H   UNL     1     -40.806  55.871 -54.986  1.00  0.00     0.170 HD
BRANCH  19  22
HETATM   22  C   UNL     1     -42.776  55.100 -56.370  1.00  0.00     0.099 C 
HETATM   23  C   UNL     1     -43.083  56.089 -57.479  1.00  0.00     0.014 C 
ENDBRANCH  19  22
ENDBRANCH   1  18
BRANCH   2  24
HETATM   24  C   UNL     1     -41.962  58.644 -53.050  1.00  0.00     0.169 C 
BRANCH  24  25
HETATM   25  C   UNL     1     -43.207  59.201 -52.382  1.00  0.00    -0.040 A 
HETATM   26  C   UNL     1     -43.253  60.578 -52.114  1.00  0.00     0.011 A 
HETATM   27  C   UNL     1     -44.391  61.163 -51.548  1.00  0.00     0.037 A 
HETATM   28  C   UNL     1     -45.514  60.392 -51.251  1.00  0.00     0.068 A 
HETATM   29  C   UNL     1     -45.477  59.022 -51.494  1.00  0.00     0.037 A 
HETATM   30  C   UNL     1     -44.333  58.433 -52.049  1.00  0.00     0.011 A 
BRANCH  28  31
HETATM   31  O   UNL     1     -46.569  61.088 -50.726  1.00  0.00    -0.356 OA
HETATM   32  C   UNL     1     -46.264  62.036 -49.711  1.00  0.00     0.210 C 
ENDBRANCH  28  31
ENDBRANCH  24  25
ENDBRANCH   2  24
TORSDOF 6
ENDMDL
MODEL 7
REMARK VINA RESULT:      -7.2      3.401      5.699
REMARK  6 active torsions:
REMARK  status: ('A' for Active; 'I' for Inactive)
REMARK    1  A    between atoms: C_2  and  C_3 
REMARK       I    between atoms: C_3  and  N_4 
REMARK    2  A    between atoms: N_4  and  C_5 
REMARK    3  A    between atoms: N_6  and  C_7 
REMARK    4  A    between atoms: C_7  and  C_8 
REMARK    5  A    between atoms: C_11  and  O_12 
REMARK    6  A    between atoms: C_20  and  C_21 
ROOT
HETATM    1  C   UNL     1     -43.033  58.393 -56.511  1.00  0.00     0.125 A 
HETATM    2  N   UNL     1     -43.698  58.969 -57.580  1.00  0.00    -0.332 N 
HETATM    3  C   UNL     1     -43.965  57.981 -58.530  1.00  0.00     0.017 A 
HETATM    4  C   UNL     1     -44.613  58.250 -59.853  1.00  0.00     0.069 C 
HETATM    5  C   UNL     1     -43.519  56.761 -58.037  1.00  0.00    -0.022 A 
HETATM    6  C   UNL     1     -43.617  55.452 -58.740  1.00  0.00     0.051 C 
HETATM    7  C   UNL     1     -42.934  57.030 -56.768  1.00  0.00     0.062 A 
ENDROOT
BRANCH   7   8
HETATM    8  C   UNL     1     -42.309  56.073 -55.792  1.00  0.00     0.143 A 
HETATM    9  N   UNL     1     -42.636  56.021 -54.510  1.00  0.00    -0.228 NA
HETATM   10  C   UNL     1     -41.909  54.984 -53.981  1.00  0.00     0.086 A 
HETATM   11  C   UNL     1     -41.102  54.401 -54.949  1.00  0.00     0.062 A 
HETATM   12  C   UNL     1     -41.894  54.474 -52.675  1.00  0.00     0.034 A 
HETATM   13  N   UNL     1     -41.364  55.123 -56.084  1.00  0.00    -0.338 N 
HETATM   14  C   UNL     1     -40.261  53.315 -54.695  1.00  0.00     0.032 A 
HETATM   15  H   UNL     1     -40.964  54.952 -56.990  1.00  0.00     0.167 HD
HETATM   16  C   UNL     1     -40.261  52.816 -53.387  1.00  0.00     0.002 A 
HETATM   17  C   UNL     1     -41.062  53.383 -52.392  1.00  0.00     0.002 A 
ENDBRANCH   7   8
BRANCH   1  18
HETATM   18  N   UNL     1     -42.474  58.995 -55.387  1.00  0.00    -0.312 N 
HETATM   19  C   UNL     1     -43.117  59.591 -54.327  1.00  0.00     0.222 C 
HETATM   20  O   UNL     1     -44.327  59.656 -54.144  1.00  0.00    -0.273 OA
HETATM   21  H   UNL     1     -41.512  58.690 -55.220  1.00  0.00     0.170 HD
BRANCH  19  22
HETATM   22  C   UNL     1     -42.162  60.260 -53.348  1.00  0.00     0.099 C 
HETATM   23  C   UNL     1     -42.807  60.708 -52.049  1.00  0.00     0.014 C 
ENDBRANCH  19  22
ENDBRANCH   1  18
BRANCH   2  24
HETATM   24  C   UNL     1     -43.919  60.399 -57.830  1.00  0.00     0.169 C 
BRANCH  24  25
HETATM   25  C   UNL     1     -42.795  61.117 -58.556  1.00  0.00    -0.040 A 
HETATM   26  C   UNL     1     -41.624  61.406 -57.838  1.00  0.00     0.011 A 
HETATM   27  C   UNL     1     -40.531  62.018 -58.461  1.00  0.00     0.037 A 
HETATM   28  C   UNL     1     -40.575  62.342 -59.817  1.00  0.00     0.068 A 
HETATM   29  C   UNL     1     -41.736  62.077 -60.538  1.00  0.00     0.037 A 
HETATM   30  C   UNL     1     -42.836  61.476 -59.912  1.00  0.00     0.011 A 
BRANCH  28  31
HETATM   31  O   UNL     1     -39.433  62.912 -60.311  1.00  0.00    -0.356 OA
HETATM   32  C   UNL     1     -39.382  63.116 -61.717  1.00  0.00     0.210 C 
ENDBRANCH  28  31
ENDBRANCH  24  25
ENDBRANCH   2  24
TORSDOF 6
ENDMDL
MODEL 8
REMARK VINA RESULT:      -7.2      2.539      4.824
REMARK  6 active torsions:
REMARK  status: ('A' for Active; 'I' for Inactive)
REMARK    1  A    between atoms: C_2  and  C_3 
REMARK       I    between atoms: C_3  and  N_4 
REMARK    2  A    between atoms: N_4  and  C_5 
REMARK    3  A    between atoms: N_6  and  C_7 
REMARK    4  A    between atoms: C_7  and  C_8 
REMARK    5  A    between atoms: C_11  and  O_12 
REMARK    6  A    between atoms: C_20  and  C_21 
ROOT
HETATM    1  C   UNL     1     -41.268  56.702 -53.419  1.00  0.00     0.125 A 
HETATM    2  N   UNL     1     -41.428  57.969 -52.884  1.00  0.00    -0.332 N 
HETATM    3  C   UNL     1     -41.372  57.880 -51.491  1.00  0.00     0.017 A 
HETATM    4  C   UNL     1     -41.576  59.045 -50.572  1.00  0.00     0.069 C 
HETATM    5  C   UNL     1     -41.117  56.560 -51.141  1.00  0.00    -0.022 A 
HETATM    6  C   UNL     1     -40.978  56.040 -49.753  1.00  0.00     0.051 C 
HETATM    7  C   UNL     1     -41.054  55.827 -52.359  1.00  0.00     0.062 A 
ENDROOT
BRANCH   7   8
HETATM    8  C   UNL     1     -40.789  54.362 -52.570  1.00  0.00     0.143 A 
HETATM    9  N   UNL     1     -41.054  53.728 -53.701  1.00  0.00    -0.228 NA
HETATM   10  C   UNL     1     -40.608  52.443 -53.522  1.00  0.00     0.086 A 
HETATM   11  C   UNL     1     -40.079  52.275 -52.249  1.00  0.00     0.062 A 
HETATM   12  C   UNL     1     -40.613  51.359 -54.412  1.00  0.00     0.034 A 
HETATM   13  N   UNL     1     -40.223  53.505 -51.661  1.00  0.00    -0.338 N 
HETATM   14  C   UNL     1     -39.540  51.070 -51.794  1.00  0.00     0.032 A 
HETATM   15  H   UNL     1     -39.919  53.748 -50.734  1.00  0.00     0.167 HD
HETATM   16  C   UNL     1     -39.549  49.999 -52.696  1.00  0.00     0.002 A 
HETATM   17  C   UNL     1     -40.076  50.138 -53.984  1.00  0.00     0.002 A 
ENDBRANCH   7   8
BRANCH   1  18
HETATM   18  N   UNL     1     -41.357  56.281 -54.743  1.00  0.00    -0.312 N 
HETATM   19  C   UNL     1     -42.448  55.771 -55.406  1.00  0.00     0.222 C 
HETATM   20  O   UNL     1     -43.583  55.641 -54.962  1.00  0.00    -0.273 OA
HETATM   21  H   UNL     1     -40.615  56.673 -55.327  1.00  0.00     0.170 HD
BRANCH  19  22
HETATM   22  C   UNL     1     -42.124  55.296 -56.816  1.00  0.00     0.099 C 
HETATM   23  C   UNL     1     -43.117  55.743 -57.873  1.00  0.00     0.014 C 
ENDBRANCH  19  22
ENDBRANCH   1  18
BRANCH   2  24
HETATM   24  C   UNL     1     -41.811  59.196 -53.592  1.00  0.00     0.169 C 
BRANCH  24  25
HETATM   25  C   UNL     1     -43.046  59.086 -54.469  1.00  0.00    -0.040 A 
HETATM   26  C   UNL     1     -42.896  59.293 -55.849  1.00  0.00     0.011 A 
HETATM   27  C   UNL     1     -43.983  59.155 -56.720  1.00  0.00     0.037 A 
HETATM   28  C   UNL     1     -45.239  58.792 -56.237  1.00  0.00     0.068 A 
HETATM   29  C   UNL     1     -45.408  58.601 -54.868  1.00  0.00     0.037 A 
HETATM   30  C   UNL     1     -44.323  58.752 -53.994  1.00  0.00     0.011 A 
BRANCH  28  31
HETATM   31  O   UNL     1     -46.211  58.665 -57.192  1.00  0.00    -0.356 OA
HETATM   32  C   UNL     1     -45.773  58.641 -58.545  1.00  0.00     0.210 C 
ENDBRANCH  28  31
ENDBRANCH  24  25
ENDBRANCH   2  24
TORSDOF 6
ENDMDL
MODEL 9
REMARK VINA RESULT:      -7.2     16.837     19.128
REMARK  6 active torsions:
REMARK  status: ('A' for Active; 'I' for Inactive)
REMARK    1  A    between atoms: C_2  and  C_3 
REMARK       I    between atoms: C_3  and  N_4 
REMARK    2  A    between atoms: N_4  and  C_5 
REMARK    3  A    between atoms: N_6  and  C_7 
REMARK    4  A    between atoms: C_7  and  C_8 
REMARK    5  A    between atoms: C_11  and  O_12 
REMARK    6  A    between atoms: C_20  and  C_21 
ROOT
HETATM    1  C   UNL     1     -35.287  41.184 -53.448  1.00  0.00     0.125 A 
HETATM    2  N   UNL     1     -34.350  41.094 -52.433  1.00  0.00    -0.332 N 
HETATM    3  C   UNL     1     -33.155  40.605 -52.966  1.00  0.00     0.017 A 
HETATM    4  C   UNL     1     -31.936  40.311 -52.147  1.00  0.00     0.069 C 
HETATM    5  C   UNL     1     -33.316  40.438 -54.336  1.00  0.00    -0.022 A 
HETATM    6  C   UNL     1     -32.277  39.940 -55.279  1.00  0.00     0.051 C 
HETATM    7  C   UNL     1     -34.659  40.804 -54.629  1.00  0.00     0.062 A 
ENDROOT
BRANCH   7   8
HETATM    8  C   UNL     1     -35.366  40.827 -55.957  1.00  0.00     0.143 A 
HETATM    9  N   UNL     1     -35.906  41.918 -56.476  1.00  0.00    -0.228 NA
HETATM   10  C   UNL     1     -36.381  41.549 -57.710  1.00  0.00     0.086 A 
HETATM   11  C   UNL     1     -36.149  40.200 -57.945  1.00  0.00     0.062 A 
HETATM   12  C   UNL     1     -37.017  42.319 -58.693  1.00  0.00     0.034 A 
HETATM   13  N   UNL     1     -35.519  39.764 -56.809  1.00  0.00    -0.338 N 
HETATM   14  C   UNL     1     -36.517  39.552 -59.127  1.00  0.00     0.032 A 
HETATM   15  H   UNL     1     -35.183  38.830 -56.649  1.00  0.00     0.167 HD
HETATM   16  C   UNL     1     -37.148  40.337 -60.100  1.00  0.00     0.002 A 
HETATM   17  C   UNL     1     -37.395  41.696 -59.890  1.00  0.00     0.002 A 
ENDBRANCH   7   8
BRANCH   1  18
HETATM   18  N   UNL     1     -36.638  41.514 -53.380  1.00  0.00    -0.312 N 
HETATM   19  C   UNL     1     -37.705  40.696 -53.089  1.00  0.00     0.222 C 
HETATM   20  O   UNL     1     -37.658  39.513 -52.774  1.00  0.00    -0.273 OA
HETATM   21  H   UNL     1     -36.788  42.517 -53.250  1.00  0.00     0.170 HD
BRANCH  19  22
HETATM   22  C   UNL     1     -39.051  41.391 -53.242  1.00  0.00     0.099 C 
HETATM   23  C   UNL     1     -40.157  40.814 -52.377  1.00  0.00     0.014 C 
ENDBRANCH  19  22
ENDBRANCH   1  18
BRANCH   2  24
HETATM   24  C   UNL     1     -34.574  41.260 -50.992  1.00  0.00     0.169 C 
BRANCH  24  25
HETATM   25  C   UNL     1     -35.211  40.073 -50.289  1.00  0.00    -0.040 A 
HETATM   26  C   UNL     1     -36.509  40.227 -49.778  1.00  0.00     0.011 A 
HETATM   27  C   UNL     1     -37.172  39.159 -49.166  1.00  0.00     0.037 A 
HETATM   28  C   UNL     1     -36.564  37.908 -49.063  1.00  0.00     0.068 A 
HETATM   29  C   UNL     1     -35.269  37.745 -49.550  1.00  0.00     0.037 A 
HETATM   30  C   UNL     1     -34.599  38.818 -50.152  1.00  0.00     0.011 A 
BRANCH  28  31
HETATM   31  O   UNL     1     -37.327  36.941 -48.467  1.00  0.00    -0.356 OA
HETATM   32  C   UNL     1     -38.149  37.358 -47.384  1.00  0.00     0.210 C 
ENDBRANCH  28  31
ENDBRANCH  24  25
ENDBRANCH   2  24
TORSDOF 6
ENDMDL
MODEL 10
REMARK VINA RESULT:      -7.1      3.098      6.166
REMARK  6 active torsions:
REMARK  status: ('A' for Active; 'I' for Inactive)
REMARK    1  A    between atoms: C_2  and  C_3 
REMARK       I    between atoms: C_3  and  N_4 
REMARK    2  A    between atoms: N_4  and  C_5 
REMARK    3  A    between atoms: N_6  and  C_7 
REMARK    4  A    between atoms: C_7  and  C_8 
REMARK    5  A    between atoms: C_11  and  O_12 
REMARK    6  A    between atoms: C_20  and  C_21 
ROOT
HETATM    1  C   UNL     1     -42.789  58.133 -55.446  1.00  0.00     0.125 A 
HETATM    2  N   UNL     1     -43.035  59.495 -55.418  1.00  0.00    -0.332 N 
HETATM    3  C   UNL     1     -42.554  60.015 -54.214  1.00  0.00     0.017 A 
HETATM    4  C   UNL     1     -42.707  61.447 -53.804  1.00  0.00     0.069 C 
HETATM    5  C   UNL     1     -41.950  58.989 -53.499  1.00  0.00    -0.022 A 
HETATM    6  C   UNL     1     -41.306  59.123 -52.163  1.00  0.00     0.051 C 
HETATM    7  C   UNL     1     -42.103  57.810 -54.281  1.00  0.00     0.062 A 
ENDROOT
BRANCH   7   8
HETATM    8  C   UNL     1     -41.624  56.414 -53.993  1.00  0.00     0.143 A 
HETATM    9  N   UNL     1     -41.161  55.595 -54.923  1.00  0.00    -0.228 NA
HETATM   10  C   UNL     1     -40.764  54.462 -54.259  1.00  0.00     0.086 A 
HETATM   11  C   UNL     1     -41.007  54.575 -52.897  1.00  0.00     0.062 A 
HETATM   12  C   UNL     1     -40.174  53.291 -54.757  1.00  0.00     0.034 A 
HETATM   13  N   UNL     1     -41.569  55.818 -52.759  1.00  0.00    -0.338 N 
HETATM   14  C   UNL     1     -40.692  53.575 -51.974  1.00  0.00     0.032 A 
HETATM   15  H   UNL     1     -41.850  56.238 -51.890  1.00  0.00     0.167 HD
HETATM   16  C   UNL     1     -40.100  52.415 -52.487  1.00  0.00     0.002 A 
HETATM   17  C   UNL     1     -39.844  52.272 -53.854  1.00  0.00     0.002 A 
ENDBRANCH   7   8
BRANCH   1  18
HETATM   18  N   UNL     1     -43.179  57.182 -56.385  1.00  0.00    -0.312 N 
HETATM   19  C   UNL     1     -42.775  57.055 -57.693  1.00  0.00     0.222 C 
HETATM   20  O   UNL     1     -41.935  57.735 -58.271  1.00  0.00    -0.273 OA
HETATM   21  H   UNL     1     -43.575  56.345 -55.950  1.00  0.00     0.170 HD
BRANCH  19  22
HETATM   22  C   UNL     1     -43.524  55.967 -58.449  1.00  0.00     0.099 C 
HETATM   23  C   UNL     1     -43.447  56.085 -59.960  1.00  0.00     0.014 C 
ENDBRANCH  19  22
ENDBRANCH   1  18
BRANCH   2  24
HETATM   24  C   UNL     1     -43.847  60.277 -56.359  1.00  0.00     0.169 C 
BRANCH  24  25
HETATM   25  C   UNL     1     -43.102  60.829 -57.562  1.00  0.00    -0.040 A 
HETATM   26  C   UNL     1     -41.750  61.171 -57.402  1.00  0.00     0.011 A 
HETATM   27  C   UNL     1     -40.992  61.635 -58.482  1.00  0.00     0.037 A 
HETATM   28  C   UNL     1     -41.561  61.756 -59.749  1.00  0.00     0.068 A 
HETATM   29  C   UNL     1     -42.906  61.438 -59.920  1.00  0.00     0.037 A 
HETATM   30  C   UNL     1     -43.669  60.985 -58.836  1.00  0.00     0.011 A 
BRANCH  28  31
HETATM   31  O   UNL     1     -40.708  62.196 -60.725  1.00  0.00    -0.356 OA
HETATM   32  C   UNL     1     -41.205  62.181 -62.057  1.00  0.00     0.210 C 
ENDBRANCH  28  31
ENDBRANCH  24  25
ENDBRANCH   2  24
TORSDOF 6
ENDMDL
