MODEL 1
REMARK VINA RESULT:      -9.9      0.000      0.000
REMARK  7 active torsions:
REMARK  status: ('A' for Active; 'I' for Inactive)
REMARK    1  A    between atoms: C_3  and  S_4 
REMARK    2  A    between atoms: S_4  and  N_5 
REMARK    3  A    between atoms: N_5  and  C_6 
REMARK    4  A    between atoms: C_6  and  C_7 
REMARK    5  A    between atoms: C_20  and  C_21 
REMARK    6  A    between atoms: C_25  and  N_26 
REMARK    7  A    between atoms: N_26  and  C_27 
ROOT
HETATM    1  C   UNL     1     -39.114  50.727 -51.356  1.00  0.00     0.050 C 
HETATM    2  C   UNL     1     -39.826  51.741 -52.206  1.00  0.00    -0.039 A 
HETATM    3  C   UNL     1     -40.409  52.918 -51.705  1.00  0.00     0.081 A 
HETATM    4  C   UNL     1     -41.092  53.794 -52.569  1.00  0.00     0.039 A 
HETATM    5  C   UNL     1     -41.160  53.557 -53.951  1.00  0.00    -0.003 A 
HETATM    6  C   UNL     1     -40.588  52.378 -54.443  1.00  0.00     0.014 A 
HETATM    7  C   UNL     1     -39.940  51.484 -53.584  1.00  0.00     0.009 A 
ENDROOT
BRANCH   5   8
HETATM    8  C   UNL     1     -41.838  54.509 -54.845  1.00  0.00     0.098 A 
HETATM    9  N   UNL     1     -42.678  53.918 -55.716  1.00  0.00    -0.172 NA
HETATM   10  N   UNL     1     -43.412  54.678 -56.507  1.00  0.00    -0.262 N 
HETATM   11  H   UNL     1     -44.045  54.209 -57.146  1.00  0.00     0.191 HD
HETATM   12  C   UNL     1     -43.379  56.021 -56.520  1.00  0.00     0.129 A 
HETATM   13  C   UNL     1     -42.505  56.679 -55.613  1.00  0.00     0.022 A 
HETATM   14  C   UNL     1     -41.689  55.902 -54.767  1.00  0.00     0.009 A 
HETATM   15  C   UNL     1     -42.426  58.091 -55.504  1.00  0.00     0.016 A 
HETATM   16  C   UNL     1     -40.781  56.557 -53.895  1.00  0.00     0.015 A 
HETATM   17  C   UNL     1     -40.714  57.946 -53.821  1.00  0.00     0.001 A 
HETATM   18  C   UNL     1     -41.545  58.715 -54.619  1.00  0.00     0.001 A 
BRANCH  12  19
HETATM   19  N   UNL     1     -44.224  56.748 -57.357  1.00  0.00    -0.370 N 
HETATM   20  H   UNL     1     -44.743  57.458 -56.834  1.00  0.00     0.161 HD
BRANCH  19  21
HETATM   21  C   UNL     1     -43.897  57.177 -58.723  1.00  0.00     0.083 C 
HETATM   22  C   UNL     1     -43.481  55.977 -59.589  1.00  0.00     0.025 C 
HETATM   23  C   UNL     1     -44.637  55.015 -59.862  1.00  0.00     0.002 C 
HETATM   24  C   UNL     1     -45.833  55.734 -60.476  1.00  0.00     0.000 C 
HETATM   25  C   UNL     1     -46.275  56.919 -59.625  1.00  0.00     0.002 C 
HETATM   26  C   UNL     1     -45.118  57.879 -59.343  1.00  0.00     0.025 C 
ENDBRANCH  19  21
ENDBRANCH  12  19
ENDBRANCH   5   8
BRANCH   3  27
HETATM   27  S   UNL     1     -40.343  53.387 -49.974  1.00  0.00     0.242 S 
HETATM   28  O   UNL     1     -40.616  52.200 -49.192  1.00  0.00    -0.206 OA
HETATM   29  O   UNL     1     -39.160  54.182 -49.753  1.00  0.00    -0.206 OA
BRANCH  27  30
HETATM   30  N   UNL     1     -41.683  54.417 -49.857  1.00  0.00    -0.208 NA
HETATM   31  H   UNL     1     -42.382  54.028 -49.218  1.00  0.00     0.140 HD
BRANCH  30  32
HETATM   32  C   UNL     1     -41.356  55.817 -49.538  1.00  0.00     0.182 C 
BRANCH  32  33
HETATM   33  C   UNL     1     -42.192  56.706 -50.389  1.00  0.00     0.119 A 
HETATM   34  N   UNL     1     -43.155  56.330 -51.210  1.00  0.00    -0.232 NA
HETATM   35  C   UNL     1     -43.661  57.498 -51.736  1.00  0.00     0.085 A 
HETATM   36  C   UNL     1     -42.968  58.602 -51.249  1.00  0.00     0.062 A 
HETATM   37  C   UNL     1     -44.717  57.696 -52.638  1.00  0.00     0.034 A 
HETATM   38  N   UNL     1     -42.032  58.070 -50.403  1.00  0.00    -0.342 N 
HETATM   39  C   UNL     1     -43.263  59.916 -51.617  1.00  0.00     0.032 A 
HETATM   40  H   UNL     1     -41.341  58.589 -49.878  1.00  0.00     0.167 HD
HETATM   41  C   UNL     1     -44.321  60.095 -52.516  1.00  0.00     0.002 A 
HETATM   42  C   UNL     1     -45.039  59.006 -53.018  1.00  0.00     0.002 A 
ENDBRANCH  32  33
ENDBRANCH  30  32
ENDBRANCH  27  30
ENDBRANCH   3  27
TORSDOF 7
ENDMDL
MODEL 2
REMARK VINA RESULT:      -9.3      0.902      1.476
REMARK  7 active torsions:
REMARK  status: ('A' for Active; 'I' for Inactive)
REMARK    1  A    between atoms: C_3  and  S_4 
REMARK    2  A    between atoms: S_4  and  N_5 
REMARK    3  A    between atoms: N_5  and  C_6 
REMARK    4  A    between atoms: C_6  and  C_7 
REMARK    5  A    between atoms: C_20  and  C_21 
REMARK    6  A    between atoms: C_25  and  N_26 
REMARK    7  A    between atoms: N_26  and  C_27 
ROOT
HETATM    1  C   UNL     1     -39.268  51.169 -51.337  1.00  0.00     0.050 C 
HETATM    2  C   UNL     1     -39.921  52.176 -52.241  1.00  0.00    -0.039 A 
HETATM    3  C   UNL     1     -40.380  53.435 -51.815  1.00  0.00     0.081 A 
HETATM    4  C   UNL     1     -41.016  54.302 -52.723  1.00  0.00     0.039 A 
HETATM    5  C   UNL     1     -41.158  53.969 -54.079  1.00  0.00    -0.003 A 
HETATM    6  C   UNL     1     -40.710  52.710 -54.495  1.00  0.00     0.014 A 
HETATM    7  C   UNL     1     -40.110  51.828 -53.590  1.00  0.00     0.009 A 
ENDROOT
BRANCH   5   8
HETATM    8  C   UNL     1     -41.783  54.908 -55.022  1.00  0.00     0.098 A 
HETATM    9  N   UNL     1     -42.519  54.300 -55.973  1.00  0.00    -0.172 NA
HETATM   10  N   UNL     1     -43.203  55.044 -56.821  1.00  0.00    -0.262 N 
HETATM   11  H   UNL     1     -43.758  54.563 -57.520  1.00  0.00     0.191 HD
HETATM   12  C   UNL     1     -43.216  56.388 -56.818  1.00  0.00     0.129 A 
HETATM   13  C   UNL     1     -42.452  57.064 -55.828  1.00  0.00     0.022 A 
HETATM   14  C   UNL     1     -41.691  56.305 -54.918  1.00  0.00     0.009 A 
HETATM   15  C   UNL     1     -42.433  58.476 -55.699  1.00  0.00     0.016 A 
HETATM   16  C   UNL     1     -40.890  56.979 -53.960  1.00  0.00     0.015 A 
HETATM   17  C   UNL     1     -40.879  58.369 -53.867  1.00  0.00     0.001 A 
HETATM   18  C   UNL     1     -41.660  59.119 -54.732  1.00  0.00     0.001 A 
BRANCH  12  19
HETATM   19  N   UNL     1     -44.006  57.096 -57.723  1.00  0.00    -0.370 N 
HETATM   20  H   UNL     1     -43.974  58.101 -57.535  1.00  0.00     0.161 HD
BRANCH  19  21
HETATM   21  C   UNL     1     -44.132  56.792 -59.154  1.00  0.00     0.083 C 
HETATM   22  C   UNL     1     -45.098  57.772 -59.839  1.00  0.00     0.025 C 
HETATM   23  C   UNL     1     -44.549  59.197 -59.900  1.00  0.00     0.002 C 
HETATM   24  C   UNL     1     -43.175  59.243 -60.560  1.00  0.00     0.000 C 
HETATM   25  C   UNL     1     -42.195  58.290 -59.886  1.00  0.00     0.002 C 
HETATM   26  C   UNL     1     -42.746  56.865 -59.816  1.00  0.00     0.025 C 
ENDBRANCH  19  21
ENDBRANCH  12  19
ENDBRANCH   5   8
BRANCH   3  27
HETATM   27  S   UNL     1     -40.205  54.025 -50.129  1.00  0.00     0.242 S 
HETATM   28  O   UNL     1     -41.017  53.173 -49.285  1.00  0.00    -0.206 OA
HETATM   29  O   UNL     1     -38.807  54.247 -49.856  1.00  0.00    -0.206 OA
BRANCH  27  30
HETATM   30  N   UNL     1     -40.957  55.540 -50.228  1.00  0.00    -0.208 NA
HETATM   31  H   UNL     1     -40.702  56.013 -51.099  1.00  0.00     0.140 HD
BRANCH  30  32
HETATM   32  C   UNL     1     -42.414  55.518 -50.012  1.00  0.00     0.182 C 
BRANCH  32  33
HETATM   33  C   UNL     1     -43.034  56.578 -50.853  1.00  0.00     0.119 A 
HETATM   34  N   UNL     1     -43.858  56.395 -51.867  1.00  0.00    -0.232 NA
HETATM   35  C   UNL     1     -44.194  57.660 -52.295  1.00  0.00     0.085 A 
HETATM   36  C   UNL     1     -43.534  58.629 -51.546  1.00  0.00     0.062 A 
HETATM   37  C   UNL     1     -45.062  58.062 -53.321  1.00  0.00     0.034 A 
HETATM   38  N   UNL     1     -42.794  57.914 -50.643  1.00  0.00    -0.342 N 
HETATM   39  C   UNL     1     -43.682  59.999 -51.764  1.00  0.00     0.032 A 
HETATM   40  H   UNL     1     -42.177  58.300 -49.941  1.00  0.00     0.167 HD
HETATM   41  C   UNL     1     -44.554  60.382 -52.791  1.00  0.00     0.002 A 
HETATM   42  C   UNL     1     -45.235  59.432 -53.556  1.00  0.00     0.002 A 
ENDBRANCH  32  33
ENDBRANCH  30  32
ENDBRANCH  27  30
ENDBRANCH   3  27
TORSDOF 7
ENDMDL
MODEL 3
REMARK VINA RESULT:      -9.1      3.651      7.476
REMARK  7 active torsions:
REMARK  status: ('A' for Active; 'I' for Inactive)
REMARK    1  A    between atoms: C_3  and  S_4 
REMARK    2  A    between atoms: S_4  and  N_5 
REMARK    3  A    between atoms: N_5  and  C_6 
REMARK    4  A    between atoms: C_6  and  C_7 
REMARK    5  A    between atoms: C_20  and  C_21 
REMARK    6  A    between atoms: C_25  and  N_26 
REMARK    7  A    between atoms: N_26  and  C_27 
ROOT
HETATM    1  C   UNL     1     -43.452  57.967 -60.353  1.00  0.00     0.050 C 
HETATM    2  C   UNL     1     -43.261  57.394 -58.977  1.00  0.00    -0.039 A 
HETATM    3  C   UNL     1     -42.964  58.163 -57.838  1.00  0.00     0.081 A 
HETATM    4  C   UNL     1     -42.763  57.538 -56.594  1.00  0.00     0.039 A 
HETATM    5  C   UNL     1     -42.910  56.151 -56.436  1.00  0.00    -0.003 A 
HETATM    6  C   UNL     1     -43.194  55.389 -57.575  1.00  0.00     0.014 A 
HETATM    7  C   UNL     1     -43.359  56.000 -58.823  1.00  0.00     0.009 A 
ENDROOT
BRANCH   5   8
HETATM    8  C   UNL     1     -42.741  55.522 -55.118  1.00  0.00     0.098 A 
HETATM    9  N   UNL     1     -41.952  54.431 -55.143  1.00  0.00    -0.172 NA
HETATM   10  N   UNL     1     -41.653  53.836 -54.004  1.00  0.00    -0.262 N 
HETATM   11  H   UNL     1     -41.047  53.023 -54.048  1.00  0.00     0.191 HD
HETATM   12  C   UNL     1     -42.092  54.232 -52.797  1.00  0.00     0.129 A 
HETATM   13  C   UNL     1     -42.927  55.381 -52.732  1.00  0.00     0.022 A 
HETATM   14  C   UNL     1     -43.286  56.032 -53.929  1.00  0.00     0.009 A 
HETATM   15  C   UNL     1     -43.405  55.918 -51.510  1.00  0.00     0.016 A 
HETATM   16  C   UNL     1     -44.158  57.149 -53.869  1.00  0.00     0.015 A 
HETATM   17  C   UNL     1     -44.625  57.646 -52.654  1.00  0.00     0.001 A 
HETATM   18  C   UNL     1     -44.240  57.036 -51.472  1.00  0.00     0.001 A 
BRANCH  12  19
HETATM   19  N   UNL     1     -41.689  53.572 -51.638  1.00  0.00    -0.370 N 
HETATM   20  H   UNL     1     -42.182  52.683 -51.527  1.00  0.00     0.161 HD
BRANCH  19  21
HETATM   21  C   UNL     1     -40.313  53.522 -51.128  1.00  0.00     0.083 C 
HETATM   22  C   UNL     1     -39.957  54.818 -50.383  1.00  0.00     0.025 C 
HETATM   23  C   UNL     1     -40.737  54.983 -49.079  1.00  0.00     0.002 C 
HETATM   24  C   UNL     1     -40.570  53.773 -48.166  1.00  0.00     0.000 C 
HETATM   25  C   UNL     1     -40.933  52.475 -48.880  1.00  0.00     0.002 C 
HETATM   26  C   UNL     1     -40.160  52.312 -50.189  1.00  0.00     0.025 C 
ENDBRANCH  19  21
ENDBRANCH  12  19
ENDBRANCH   5   8
BRANCH   3  27
HETATM   27  S   UNL     1     -42.813  59.951 -57.873  1.00  0.00     0.242 S 
HETATM   28  O   UNL     1     -41.420  60.274 -57.651  1.00  0.00    -0.206 OA
HETATM   29  O   UNL     1     -43.533  60.456 -59.016  1.00  0.00    -0.206 OA
BRANCH  27  30
HETATM   30  N   UNL     1     -43.683  60.385 -56.486  1.00  0.00    -0.208 NA
HETATM   31  H   UNL     1     -43.916  59.556 -55.932  1.00  0.00     0.140 HD
BRANCH  30  32
HETATM   32  C   UNL     1     -43.054  61.438 -55.671  1.00  0.00     0.182 C 
BRANCH  32  33
HETATM   33  C   UNL     1     -42.533  60.824 -54.420  1.00  0.00     0.119 A 
HETATM   34  N   UNL     1     -42.850  61.165 -53.185  1.00  0.00    -0.232 NA
HETATM   35  C   UNL     1     -42.155  60.293 -52.377  1.00  0.00     0.085 A 
HETATM   36  C   UNL     1     -41.376  59.427 -53.137  1.00  0.00     0.062 A 
HETATM   37  C   UNL     1     -42.141  60.178 -50.979  1.00  0.00     0.034 A 
HETATM   38  N   UNL     1     -41.625  59.793 -54.433  1.00  0.00    -0.342 N 
HETATM   39  C   UNL     1     -40.562  58.439 -52.581  1.00  0.00     0.032 A 
HETATM   40  H   UNL     1     -41.215  59.378 -55.259  1.00  0.00     0.167 HD
HETATM   41  C   UNL     1     -40.562  58.337 -51.185  1.00  0.00     0.002 A 
HETATM   42  C   UNL     1     -41.338  59.189 -50.395  1.00  0.00     0.002 A 
ENDBRANCH  32  33
ENDBRANCH  30  32
ENDBRANCH  27  30
ENDBRANCH   3  27
TORSDOF 7
ENDMDL
MODEL 4
REMARK VINA RESULT:      -8.8      1.439      2.121
REMARK  7 active torsions:
REMARK  status: ('A' for Active; 'I' for Inactive)
REMARK    1  A    between atoms: C_3  and  S_4 
REMARK    2  A    between atoms: S_4  and  N_5 
REMARK    3  A    between atoms: N_5  and  C_6 
REMARK    4  A    between atoms: C_6  and  C_7 
REMARK    5  A    between atoms: C_20  and  C_21 
REMARK    6  A    between atoms: C_25  and  N_26 
REMARK    7  A    between atoms: N_26  and  C_27 
ROOT
HETATM    1  C   UNL     1     -39.854  51.832 -51.130  1.00  0.00     0.050 C 
HETATM    2  C   UNL     1     -40.490  52.830 -52.057  1.00  0.00    -0.039 A 
HETATM    3  C   UNL     1     -41.003  54.072 -51.645  1.00  0.00     0.081 A 
HETATM    4  C   UNL     1     -41.618  54.929 -52.577  1.00  0.00     0.039 A 
HETATM    5  C   UNL     1     -41.685  54.604 -53.940  1.00  0.00    -0.003 A 
HETATM    6  C   UNL     1     -41.184  53.361 -54.343  1.00  0.00     0.014 A 
HETATM    7  C   UNL     1     -40.604  52.487 -53.416  1.00  0.00     0.009 A 
ENDROOT
BRANCH   5   8
HETATM    8  C   UNL     1     -42.290  55.533 -54.906  1.00  0.00     0.098 A 
HETATM    9  N   UNL     1     -41.858  55.350 -56.168  1.00  0.00    -0.172 NA
HETATM   10  N   UNL     1     -42.399  56.064 -57.136  1.00  0.00    -0.262 N 
HETATM   11  H   UNL     1     -42.064  55.899 -58.080  1.00  0.00     0.191 HD
HETATM   12  C   UNL     1     -43.359  56.987 -56.959  1.00  0.00     0.129 A 
HETATM   13  C   UNL     1     -43.842  57.207 -55.640  1.00  0.00     0.022 A 
HETATM   14  C   UNL     1     -43.274  56.479 -54.576  1.00  0.00     0.009 A 
HETATM   15  C   UNL     1     -44.887  58.118 -55.343  1.00  0.00     0.016 A 
HETATM   16  C   UNL     1     -43.721  56.733 -53.253  1.00  0.00     0.015 A 
HETATM   17  C   UNL     1     -44.739  57.645 -52.989  1.00  0.00     0.001 A 
HETATM   18  C   UNL     1     -45.331  58.332 -54.037  1.00  0.00     0.001 A 
BRANCH  12  19
HETATM   19  N   UNL     1     -43.909  57.664 -58.046  1.00  0.00    -0.370 N 
HETATM   20  H   UNL     1     -43.700  58.665 -58.003  1.00  0.00     0.161 HD
BRANCH  19  21
HETATM   21  C   UNL     1     -43.959  57.155 -59.422  1.00  0.00     0.083 C 
HETATM   22  C   UNL     1     -45.143  56.192 -59.607  1.00  0.00     0.025 C 
HETATM   23  C   UNL     1     -46.497  56.895 -59.516  1.00  0.00     0.002 C 
HETATM   24  C   UNL     1     -46.592  58.061 -60.493  1.00  0.00     0.000 C 
HETATM   25  C   UNL     1     -45.436  59.040 -60.317  1.00  0.00     0.002 C 
HETATM   26  C   UNL     1     -44.080  58.337 -60.400  1.00  0.00     0.025 C 
ENDBRANCH  19  21
ENDBRANCH  12  19
ENDBRANCH   5   8
BRANCH   3  27
HETATM   27  S   UNL     1     -40.927  54.652 -49.948  1.00  0.00     0.242 S 
HETATM   28  O   UNL     1     -41.813  53.818 -49.164  1.00  0.00    -0.206 OA
HETATM   29  O   UNL     1     -39.545  54.839 -49.582  1.00  0.00    -0.206 OA
BRANCH  27  30
HETATM   30  N   UNL     1     -41.633  56.186 -50.089  1.00  0.00    -0.208 NA
HETATM   31  H   UNL     1     -42.324  56.335 -49.349  1.00  0.00     0.140 HD
BRANCH  30  32
HETATM   32  C   UNL     1     -40.671  57.297 -50.184  1.00  0.00     0.182 C 
BRANCH  32  33
HETATM   33  C   UNL     1     -41.237  58.339 -51.083  1.00  0.00     0.119 A 
HETATM   34  N   UNL     1     -40.943  58.523 -52.356  1.00  0.00    -0.232 NA
HETATM   35  C   UNL     1     -41.743  59.566 -52.767  1.00  0.00     0.085 A 
HETATM   36  C   UNL     1     -42.513  60.046 -51.713  1.00  0.00     0.062 A 
HETATM   37  C   UNL     1     -41.868  60.161 -54.031  1.00  0.00     0.034 A 
HETATM   38  N   UNL     1     -42.164  59.256 -50.650  1.00  0.00    -0.342 N 
HETATM   39  C   UNL     1     -43.412  61.106 -51.840  1.00  0.00     0.032 A 
HETATM   40  H   UNL     1     -42.525  59.331 -49.708  1.00  0.00     0.167 HD
HETATM   41  C   UNL     1     -43.526  61.686 -53.109  1.00  0.00     0.002 A 
HETATM   42  C   UNL     1     -42.769  61.222 -54.188  1.00  0.00     0.002 A 
ENDBRANCH  32  33
ENDBRANCH  30  32
ENDBRANCH  27  30
ENDBRANCH   3  27
TORSDOF 7
ENDMDL
MODEL 5
REMARK VINA RESULT:      -8.7      4.677      7.936
REMARK  7 active torsions:
REMARK  status: ('A' for Active; 'I' for Inactive)
REMARK    1  A    between atoms: C_3  and  S_4 
REMARK    2  A    between atoms: S_4  and  N_5 
REMARK    3  A    between atoms: N_5  and  C_6 
REMARK    4  A    between atoms: C_6  and  C_7 
REMARK    5  A    between atoms: C_20  and  C_21 
REMARK    6  A    between atoms: C_25  and  N_26 
REMARK    7  A    between atoms: N_26  and  C_27 
ROOT
HETATM    1  C   UNL     1     -43.374  62.152 -50.348  1.00  0.00     0.050 C 
HETATM    2  C   UNL     1     -43.044  60.725 -50.686  1.00  0.00    -0.039 A 
HETATM    3  C   UNL     1     -44.007  59.718 -50.877  1.00  0.00     0.081 A 
HETATM    4  C   UNL     1     -43.606  58.398 -51.153  1.00  0.00     0.039 A 
HETATM    5  C   UNL     1     -42.253  58.058 -51.306  1.00  0.00    -0.003 A 
HETATM    6  C   UNL     1     -41.298  59.061 -51.103  1.00  0.00     0.014 A 
HETATM    7  C   UNL     1     -41.688  60.368 -50.791  1.00  0.00     0.009 A 
ENDROOT
BRANCH   5   8
HETATM    8  C   UNL     1     -41.856  56.682 -51.640  1.00  0.00     0.098 A 
HETATM    9  N   UNL     1     -41.160  56.073 -50.661  1.00  0.00    -0.172 NA
HETATM   10  N   UNL     1     -40.830  54.804 -50.810  1.00  0.00    -0.262 N 
HETATM   11  H   UNL     1     -40.316  54.365 -50.054  1.00  0.00     0.191 HD
HETATM   12  C   UNL     1     -41.129  54.059 -51.888  1.00  0.00     0.129 A 
HETATM   13  C   UNL     1     -41.864  54.668 -52.941  1.00  0.00     0.022 A 
HETATM   14  C   UNL     1     -42.217  56.028 -52.829  1.00  0.00     0.009 A 
HETATM   15  C   UNL     1     -42.278  53.964 -54.101  1.00  0.00     0.016 A 
HETATM   16  C   UNL     1     -42.908  56.650 -53.901  1.00  0.00     0.015 A 
HETATM   17  C   UNL     1     -43.289  55.937 -55.035  1.00  0.00     0.001 A 
HETATM   18  C   UNL     1     -42.982  54.589 -55.131  1.00  0.00     0.001 A 
BRANCH  12  19
HETATM   19  N   UNL     1     -40.781  52.711 -51.943  1.00  0.00    -0.370 N 
HETATM   20  H   UNL     1     -41.490  52.164 -52.436  1.00  0.00     0.161 HD
BRANCH  19  21
HETATM   21  C   UNL     1     -39.422  52.196 -52.155  1.00  0.00     0.083 C 
HETATM   22  C   UNL     1     -39.158  50.965 -51.272  1.00  0.00     0.025 C 
HETATM   23  C   UNL     1     -39.989  49.751 -51.687  1.00  0.00     0.002 C 
HETATM   24  C   UNL     1     -39.791  49.411 -53.160  1.00  0.00     0.000 C 
HETATM   25  C   UNL     1     -40.063  50.614 -54.057  1.00  0.00     0.002 C 
HETATM   26  C   UNL     1     -39.239  51.833 -53.638  1.00  0.00     0.025 C 
ENDBRANCH  19  21
ENDBRANCH  12  19
ENDBRANCH   5   8
BRANCH   3  27
HETATM   27  S   UNL     1     -45.774  60.019 -50.781  1.00  0.00     0.242 S 
HETATM   28  O   UNL     1     -46.127  60.887 -51.883  1.00  0.00    -0.206 OA
HETATM   29  O   UNL     1     -46.448  58.763 -50.561  1.00  0.00    -0.206 OA
BRANCH  27  30
HETATM   30  N   UNL     1     -45.880  60.916 -49.347  1.00  0.00    -0.208 NA
HETATM   31  H   UNL     1     -46.685  61.548 -49.375  1.00  0.00     0.140 HD
BRANCH  30  32
HETATM   32  C   UNL     1     -45.849  60.110 -48.115  1.00  0.00     0.182 C 
BRANCH  32  33
HETATM   33  C   UNL     1     -45.449  60.989 -46.983  1.00  0.00     0.119 A 
HETATM   34  N   UNL     1     -45.772  62.258 -46.820  1.00  0.00    -0.232 NA
HETATM   35  C   UNL     1     -45.213  62.624 -45.617  1.00  0.00     0.085 A 
HETATM   36  C   UNL     1     -44.508  61.565 -45.054  1.00  0.00     0.062 A 
HETATM   37  C   UNL     1     -45.264  63.850 -44.936  1.00  0.00     0.034 A 
HETATM   38  N   UNL     1     -44.665  60.539 -45.948  1.00  0.00    -0.342 N 
HETATM   39  C   UNL     1     -43.834  61.654 -43.835  1.00  0.00     0.032 A 
HETATM   40  H   UNL     1     -44.273  59.611 -45.863  1.00  0.00     0.167 HD
HETATM   41  C   UNL     1     -43.899  62.883 -43.168  1.00  0.00     0.002 A 
HETATM   42  C   UNL     1     -44.603  63.963 -43.706  1.00  0.00     0.002 A 
ENDBRANCH  32  33
ENDBRANCH  30  32
ENDBRANCH  27  30
ENDBRANCH   3  27
TORSDOF 7
ENDMDL
MODEL 6
REMARK VINA RESULT:      -8.4      3.128      7.413
REMARK  7 active torsions:
REMARK  status: ('A' for Active; 'I' for Inactive)
REMARK    1  A    between atoms: C_3  and  S_4 
REMARK    2  A    between atoms: S_4  and  N_5 
REMARK    3  A    between atoms: N_5  and  C_6 
REMARK    4  A    between atoms: C_6  and  C_7 
REMARK    5  A    between atoms: C_20  and  C_21 
REMARK    6  A    between atoms: C_25  and  N_26 
REMARK    7  A    between atoms: N_26  and  C_27 
ROOT
HETATM    1  C   UNL     1     -43.418  62.018 -50.298  1.00  0.00     0.050 C 
HETATM    2  C   UNL     1     -43.033  60.602 -50.623  1.00  0.00    -0.039 A 
HETATM    3  C   UNL     1     -43.934  59.627 -51.085  1.00  0.00     0.081 A 
HETATM    4  C   UNL     1     -43.493  58.313 -51.327  1.00  0.00     0.039 A 
HETATM    5  C   UNL     1     -42.145  57.951 -51.176  1.00  0.00    -0.003 A 
HETATM    6  C   UNL     1     -41.255  58.923 -50.704  1.00  0.00     0.014 A 
HETATM    7  C   UNL     1     -41.694  60.222 -50.426  1.00  0.00     0.009 A 
ENDROOT
BRANCH   5   8
HETATM    8  C   UNL     1     -41.695  56.584 -51.479  1.00  0.00     0.098 A 
HETATM    9  N   UNL     1     -41.469  55.840 -50.379  1.00  0.00    -0.172 NA
HETATM   10  N   UNL     1     -41.150  54.568 -50.526  1.00  0.00    -0.262 N 
HETATM   11  H   UNL     1     -40.996  54.026 -49.683  1.00  0.00     0.191 HD
HETATM   12  C   UNL     1     -41.019  53.946 -51.711  1.00  0.00     0.129 A 
HETATM   13  C   UNL     1     -41.252  54.700 -52.893  1.00  0.00     0.022 A 
HETATM   14  C   UNL     1     -41.573  56.067 -52.778  1.00  0.00     0.009 A 
HETATM   15  C   UNL     1     -41.192  54.135 -54.193  1.00  0.00     0.016 A 
HETATM   16  C   UNL     1     -41.758  56.832 -53.959  1.00  0.00     0.015 A 
HETATM   17  C   UNL     1     -41.678  56.253 -55.223  1.00  0.00     0.001 A 
HETATM   18  C   UNL     1     -41.405  54.900 -55.340  1.00  0.00     0.001 A 
BRANCH  12  19
HETATM   19  N   UNL     1     -40.725  52.586 -51.774  1.00  0.00    -0.370 N 
HETATM   20  H   UNL     1     -41.384  52.091 -52.379  1.00  0.00     0.161 HD
BRANCH  19  21
HETATM   21  C   UNL     1     -39.373  52.014 -51.824  1.00  0.00     0.083 C 
HETATM   22  C   UNL     1     -39.320  50.665 -51.091  1.00  0.00     0.025 C 
HETATM   23  C   UNL     1     -40.116  49.572 -51.804  1.00  0.00     0.002 C 
HETATM   24  C   UNL     1     -39.678  49.415 -53.256  1.00  0.00     0.000 C 
HETATM   25  C   UNL     1     -39.737  50.739 -54.009  1.00  0.00     0.002 C 
HETATM   26  C   UNL     1     -38.948  51.836 -53.292  1.00  0.00     0.025 C 
ENDBRANCH  19  21
ENDBRANCH  12  19
ENDBRANCH   5   8
BRANCH   3  27
HETATM   27  S   UNL     1     -45.671  59.962 -51.390  1.00  0.00     0.242 S 
HETATM   28  O   UNL     1     -46.439  59.036 -50.585  1.00  0.00    -0.206 OA
HETATM   29  O   UNL     1     -45.889  61.386 -51.321  1.00  0.00    -0.206 OA
BRANCH  27  30
HETATM   30  N   UNL     1     -45.818  59.498 -53.013  1.00  0.00    -0.208 NA
HETATM   31  H   UNL     1     -46.775  59.200 -53.218  1.00  0.00     0.140 HD
BRANCH  30  32
HETATM   32  C   UNL     1     -45.324  60.491 -53.982  1.00  0.00     0.182 C 
BRANCH  32  33
HETATM   33  C   UNL     1     -44.657  59.772 -55.101  1.00  0.00     0.119 A 
HETATM   34  N   UNL     1     -45.112  58.706 -55.733  1.00  0.00    -0.232 NA
HETATM   35  C   UNL     1     -44.178  58.435 -56.708  1.00  0.00     0.085 A 
HETATM   36  C   UNL     1     -43.119  59.335 -56.644  1.00  0.00     0.062 A 
HETATM   37  C   UNL     1     -44.166  57.433 -57.690  1.00  0.00     0.034 A 
HETATM   38  N   UNL     1     -43.443  60.168 -55.607  1.00  0.00    -0.342 N 
HETATM   39  C   UNL     1     -42.025  59.294 -57.510  1.00  0.00     0.032 A 
HETATM   40  H   UNL     1     -42.887  60.942 -55.269  1.00  0.00     0.167 HD
HETATM   41  C   UNL     1     -42.031  58.290 -58.485  1.00  0.00     0.002 A 
HETATM   42  C   UNL     1     -43.083  57.375 -58.577  1.00  0.00     0.002 A 
ENDBRANCH  32  33
ENDBRANCH  30  32
ENDBRANCH  27  30
ENDBRANCH   3  27
TORSDOF 7
ENDMDL
MODEL 7
REMARK VINA RESULT:      -8.4      4.330      7.694
REMARK  7 active torsions:
REMARK  status: ('A' for Active; 'I' for Inactive)
REMARK    1  A    between atoms: C_3  and  S_4 
REMARK    2  A    between atoms: S_4  and  N_5 
REMARK    3  A    between atoms: N_5  and  C_6 
REMARK    4  A    between atoms: C_6  and  C_7 
REMARK    5  A    between atoms: C_20  and  C_21 
REMARK    6  A    between atoms: C_25  and  N_26 
REMARK    7  A    between atoms: N_26  and  C_27 
ROOT
HETATM    1  C   UNL     1     -44.378  60.264 -61.418  1.00  0.00     0.050 C 
HETATM    2  C   UNL     1     -43.946  59.502 -60.197  1.00  0.00    -0.039 A 
HETATM    3  C   UNL     1     -44.656  59.492 -58.983  1.00  0.00     0.081 A 
HETATM    4  C   UNL     1     -44.156  58.782 -57.876  1.00  0.00     0.039 A 
HETATM    5  C   UNL     1     -42.981  58.019 -57.963  1.00  0.00    -0.003 A 
HETATM    6  C   UNL     1     -42.272  58.042 -59.170  1.00  0.00     0.014 A 
HETATM    7  C   UNL     1     -42.743  58.777 -60.263  1.00  0.00     0.009 A 
ENDROOT
BRANCH   5   8
HETATM    8  C   UNL     1     -42.500  57.246 -56.808  1.00  0.00     0.098 A 
HETATM    9  N   UNL     1     -42.494  55.916 -57.021  1.00  0.00    -0.172 NA
HETATM   10  N   UNL     1     -41.996  55.125 -56.090  1.00  0.00    -0.262 N 
HETATM   11  H   UNL     1     -41.993  54.128 -56.278  1.00  0.00     0.191 HD
HETATM   12  C   UNL     1     -41.494  55.548 -54.917  1.00  0.00     0.129 A 
HETATM   13  C   UNL     1     -41.483  56.946 -54.658  1.00  0.00     0.022 A 
HETATM   14  C   UNL     1     -42.026  57.822 -55.619  1.00  0.00     0.009 A 
HETATM   15  C   UNL     1     -40.932  57.508 -53.478  1.00  0.00     0.016 A 
HETATM   16  C   UNL     1     -42.059  59.213 -55.341  1.00  0.00     0.015 A 
HETATM   17  C   UNL     1     -41.524  59.735 -54.166  1.00  0.00     0.001 A 
HETATM   18  C   UNL     1     -40.950  58.882 -53.237  1.00  0.00     0.001 A 
BRANCH  12  19
HETATM   19  N   UNL     1     -40.945  54.646 -54.008  1.00  0.00    -0.370 N 
HETATM   20  H   UNL     1     -40.321  55.117 -53.348  1.00  0.00     0.161 HD
BRANCH  19  21
HETATM   21  C   UNL     1     -41.659  53.516 -53.401  1.00  0.00     0.083 C 
HETATM   22  C   UNL     1     -40.682  52.574 -52.678  1.00  0.00     0.025 C 
HETATM   23  C   UNL     1     -40.055  53.211 -51.439  1.00  0.00     0.002 C 
HETATM   24  C   UNL     1     -41.117  53.730 -50.475  1.00  0.00     0.000 C 
HETATM   25  C   UNL     1     -42.089  54.680 -51.167  1.00  0.00     0.002 C 
HETATM   26  C   UNL     1     -42.711  54.048 -52.413  1.00  0.00     0.025 C 
ENDBRANCH  19  21
ENDBRANCH  12  19
ENDBRANCH   5   8
BRANCH   3  27
HETATM   27  S   UNL     1     -46.207  60.363 -58.746  1.00  0.00     0.242 S 
HETATM   28  O   UNL     1     -45.922  61.781 -58.802  1.00  0.00    -0.206 OA
HETATM   29  O   UNL     1     -47.212  59.761 -59.587  1.00  0.00    -0.206 OA
BRANCH  27  30
HETATM   30  N   UNL     1     -46.571  59.961 -57.141  1.00  0.00    -0.208 NA
HETATM   31  H   UNL     1     -46.125  59.077 -56.881  1.00  0.00     0.140 HD
BRANCH  30  32
HETATM   32  C   UNL     1     -46.302  61.029 -56.164  1.00  0.00     0.182 C 
BRANCH  32  33
HETATM   33  C   UNL     1     -45.710  60.417 -54.943  1.00  0.00     0.119 A 
HETATM   34  N   UNL     1     -45.267  61.058 -53.878  1.00  0.00    -0.232 NA
HETATM   35  C   UNL     1     -44.859  60.075 -53.005  1.00  0.00     0.085 A 
HETATM   36  C   UNL     1     -45.029  58.813 -53.565  1.00  0.00     0.062 A 
HETATM   37  C   UNL     1     -44.333  60.183 -51.709  1.00  0.00     0.034 A 
HETATM   38  N   UNL     1     -45.561  59.059 -54.803  1.00  0.00    -0.342 N 
HETATM   39  C   UNL     1     -44.694  57.629 -52.905  1.00  0.00     0.032 A 
HETATM   40  H   UNL     1     -45.804  58.363 -55.495  1.00  0.00     0.167 HD
HETATM   41  C   UNL     1     -44.173  57.756 -51.612  1.00  0.00     0.002 A 
HETATM   42  C   UNL     1     -43.996  59.010 -51.021  1.00  0.00     0.002 A 
ENDBRANCH  32  33
ENDBRANCH  30  32
ENDBRANCH  27  30
ENDBRANCH   3  27
TORSDOF 7
ENDMDL
MODEL 8
REMARK VINA RESULT:      -8.3      1.721      2.626
REMARK  7 active torsions:
REMARK  status: ('A' for Active; 'I' for Inactive)
REMARK    1  A    between atoms: C_3  and  S_4 
REMARK    2  A    between atoms: S_4  and  N_5 
REMARK    3  A    between atoms: N_5  and  C_6 
REMARK    4  A    between atoms: C_6  and  C_7 
REMARK    5  A    between atoms: C_20  and  C_21 
REMARK    6  A    between atoms: C_25  and  N_26 
REMARK    7  A    between atoms: N_26  and  C_27 
ROOT
HETATM    1  C   UNL     1     -39.874  52.674 -52.275  1.00  0.00     0.050 C 
HETATM    2  C   UNL     1     -40.600  53.542 -53.265  1.00  0.00    -0.039 A 
HETATM    3  C   UNL     1     -41.661  54.401 -52.929  1.00  0.00     0.081 A 
HETATM    4  C   UNL     1     -42.310  55.149 -53.928  1.00  0.00     0.039 A 
HETATM    5  C   UNL     1     -41.887  55.110 -55.266  1.00  0.00    -0.003 A 
HETATM    6  C   UNL     1     -40.838  54.244 -55.596  1.00  0.00     0.014 A 
HETATM    7  C   UNL     1     -40.212  53.469 -54.614  1.00  0.00     0.009 A 
ENDROOT
BRANCH   5   8
HETATM    8  C   UNL     1     -42.548  55.935 -56.288  1.00  0.00     0.098 A 
HETATM    9  N   UNL     1     -43.167  55.212 -57.241  1.00  0.00    -0.172 NA
HETATM   10  N   UNL     1     -43.872  55.842 -58.160  1.00  0.00    -0.262 N 
HETATM   11  H   UNL     1     -44.339  55.275 -58.860  1.00  0.00     0.191 HD
HETATM   12  C   UNL     1     -44.016  57.177 -58.230  1.00  0.00     0.129 A 
HETATM   13  C   UNL     1     -43.378  57.973 -57.240  1.00  0.00     0.022 A 
HETATM   14  C   UNL     1     -42.597  57.338 -56.254  1.00  0.00     0.009 A 
HETATM   15  C   UNL     1     -43.503  59.384 -57.186  1.00  0.00     0.016 A 
HETATM   16  C   UNL     1     -41.920  58.134 -55.294  1.00  0.00     0.015 A 
HETATM   17  C   UNL     1     -42.050  59.521 -55.275  1.00  0.00     0.001 A 
HETATM   18  C   UNL     1     -42.850  60.146 -56.217  1.00  0.00     0.001 A 
BRANCH  12  19
HETATM   19  N   UNL     1     -44.820  57.758 -59.209  1.00  0.00    -0.370 N 
HETATM   20  H   UNL     1     -44.319  57.844 -60.097  1.00  0.00     0.161 HD
BRANCH  19  21
HETATM   21  C   UNL     1     -46.253  57.497 -59.392  1.00  0.00     0.083 C 
HETATM   22  C   UNL     1     -47.032  57.783 -58.098  1.00  0.00     0.025 C 
HETATM   23  C   UNL     1     -47.058  59.269 -57.740  1.00  0.00     0.002 C 
HETATM   24  C   UNL     1     -47.593  60.115 -58.890  1.00  0.00     0.000 C 
HETATM   25  C   UNL     1     -46.824  59.861 -60.182  1.00  0.00     0.002 C 
HETATM   26  C   UNL     1     -46.789  58.374 -60.538  1.00  0.00     0.025 C 
ENDBRANCH  19  21
ENDBRANCH  12  19
ENDBRANCH   5   8
BRANCH   3  27
HETATM   27  S   UNL     1     -42.265  54.606 -51.251  1.00  0.00     0.242 S 
HETATM   28  O   UNL     1     -42.347  53.290 -50.655  1.00  0.00    -0.206 OA
HETATM   29  O   UNL     1     -41.533  55.677 -50.621  1.00  0.00    -0.206 OA
BRANCH  27  30
HETATM   30  N   UNL     1     -43.842  55.157 -51.532  1.00  0.00    -0.208 NA
HETATM   31  H   UNL     1     -44.491  54.370 -51.615  1.00  0.00     0.140 HD
BRANCH  30  32
HETATM   32  C   UNL     1     -44.318  56.169 -50.574  1.00  0.00     0.182 C 
BRANCH  32  33
HETATM   33  C   UNL     1     -44.238  57.508 -51.218  1.00  0.00     0.119 A 
HETATM   34  N   UNL     1     -45.109  58.028 -52.063  1.00  0.00    -0.232 NA
HETATM   35  C   UNL     1     -44.633  59.288 -52.347  1.00  0.00     0.085 A 
HETATM   36  C   UNL     1     -43.431  59.525 -51.688  1.00  0.00     0.062 A 
HETATM   37  C   UNL     1     -45.175  60.293 -53.162  1.00  0.00     0.034 A 
HETATM   38  N   UNL     1     -43.196  58.373 -50.985  1.00  0.00    -0.342 N 
HETATM   39  C   UNL     1     -42.719  60.720 -51.797  1.00  0.00     0.032 A 
HETATM   40  H   UNL     1     -42.396  58.188 -50.395  1.00  0.00     0.167 HD
HETATM   41  C   UNL     1     -43.276  61.712 -52.612  1.00  0.00     0.002 A 
HETATM   42  C   UNL     1     -44.484  61.505 -53.283  1.00  0.00     0.002 A 
ENDBRANCH  32  33
ENDBRANCH  30  32
ENDBRANCH  27  30
ENDBRANCH   3  27
TORSDOF 7
ENDMDL
MODEL 9
REMARK VINA RESULT:      -8.1      2.539      6.665
REMARK  7 active torsions:
REMARK  status: ('A' for Active; 'I' for Inactive)
REMARK    1  A    between atoms: C_3  and  S_4 
REMARK    2  A    between atoms: S_4  and  N_5 
REMARK    3  A    between atoms: N_5  and  C_6 
REMARK    4  A    between atoms: C_6  and  C_7 
REMARK    5  A    between atoms: C_20  and  C_21 
REMARK    6  A    between atoms: C_25  and  N_26 
REMARK    7  A    between atoms: N_26  and  C_27 
ROOT
HETATM    1  C   UNL     1     -39.910  52.442 -51.483  1.00  0.00     0.050 C 
HETATM    2  C   UNL     1     -40.464  53.840 -51.480  1.00  0.00    -0.039 A 
HETATM    3  C   UNL     1     -40.963  54.491 -52.621  1.00  0.00     0.081 A 
HETATM    4  C   UNL     1     -41.426  55.817 -52.535  1.00  0.00     0.039 A 
HETATM    5  C   UNL     1     -41.462  56.504 -51.312  1.00  0.00    -0.003 A 
HETATM    6  C   UNL     1     -40.953  55.855 -50.181  1.00  0.00     0.014 A 
HETATM    7  C   UNL     1     -40.456  54.550 -50.267  1.00  0.00     0.009 A 
ENDROOT
BRANCH   5   8
HETATM    8  C   UNL     1     -41.994  57.873 -51.234  1.00  0.00     0.098 A 
HETATM    9  N   UNL     1     -41.239  58.697 -50.482  1.00  0.00    -0.172 NA
HETATM   10  N   UNL     1     -41.566  59.973 -50.413  1.00  0.00    -0.262 N 
HETATM   11  H   UNL     1     -40.976  60.576 -49.850  1.00  0.00     0.191 HD
HETATM   12  C   UNL     1     -42.621  60.526 -51.038  1.00  0.00     0.129 A 
HETATM   13  C   UNL     1     -43.439  59.686 -51.841  1.00  0.00     0.022 A 
HETATM   14  C   UNL     1     -43.135  58.313 -51.922  1.00  0.00     0.009 A 
HETATM   15  C   UNL     1     -44.546  60.170 -52.585  1.00  0.00     0.016 A 
HETATM   16  C   UNL     1     -43.980  57.465 -52.685  1.00  0.00     0.015 A 
HETATM   17  C   UNL     1     -45.069  57.967 -53.393  1.00  0.00     0.001 A 
HETATM   18  C   UNL     1     -45.347  59.323 -53.351  1.00  0.00     0.001 A 
BRANCH  12  19
HETATM   19  N   UNL     1     -42.867  61.895 -50.948  1.00  0.00    -0.370 N 
HETATM   20  H   UNL     1     -43.367  62.236 -51.772  1.00  0.00     0.161 HD
BRANCH  19  21
HETATM   21  C   UNL     1     -43.245  62.608 -49.721  1.00  0.00     0.083 C 
HETATM   22  C   UNL     1     -43.685  64.046 -50.037  1.00  0.00     0.025 C 
HETATM   23  C   UNL     1     -44.999  64.105 -50.814  1.00  0.00     0.002 C 
HETATM   24  C   UNL     1     -46.111  63.345 -50.099  1.00  0.00     0.000 C 
HETATM   25  C   UNL     1     -45.702  61.909 -49.790  1.00  0.00     0.002 C 
HETATM   26  C   UNL     1     -44.383  61.847 -49.018  1.00  0.00     0.025 C 
ENDBRANCH  19  21
ENDBRANCH  12  19
ENDBRANCH   5   8
BRANCH   3  27
HETATM   27  S   UNL     1     -41.044  53.715 -54.238  1.00  0.00     0.242 S 
HETATM   28  O   UNL     1     -39.965  54.258 -55.035  1.00  0.00    -0.206 OA
HETATM   29  O   UNL     1     -41.213  52.293 -54.063  1.00  0.00    -0.206 OA
BRANCH  27  30
HETATM   30  N   UNL     1     -42.504  54.337 -54.832  1.00  0.00    -0.208 NA
HETATM   31  H   UNL     1     -42.893  55.026 -54.183  1.00  0.00     0.140 HD
BRANCH  30  32
HETATM   32  C   UNL     1     -42.437  54.847 -56.212  1.00  0.00     0.182 C 
BRANCH  32  33
HETATM   33  C   UNL     1     -42.692  56.313 -56.188  1.00  0.00     0.119 A 
HETATM   34  N   UNL     1     -41.942  57.233 -55.611  1.00  0.00    -0.232 NA
HETATM   35  C   UNL     1     -42.555  58.433 -55.895  1.00  0.00     0.085 A 
HETATM   36  C   UNL     1     -43.719  58.234 -56.631  1.00  0.00     0.062 A 
HETATM   37  C   UNL     1     -42.175  59.740 -55.557  1.00  0.00     0.034 A 
HETATM   38  N   UNL     1     -43.789  56.876 -56.795  1.00  0.00    -0.342 N 
HETATM   39  C   UNL     1     -44.547  59.275 -57.054  1.00  0.00     0.032 A 
HETATM   40  H   UNL     1     -44.520  56.372 -57.278  1.00  0.00     0.167 HD
HETATM   41  C   UNL     1     -44.150  60.573 -56.710  1.00  0.00     0.002 A 
HETATM   42  C   UNL     1     -42.984  60.804 -55.976  1.00  0.00     0.002 A 
ENDBRANCH  32  33
ENDBRANCH  30  32
ENDBRANCH  27  30
ENDBRANCH   3  27
TORSDOF 7
ENDMDL
MODEL 10
REMARK VINA RESULT:      -7.9      3.973      7.006
REMARK  7 active torsions:
REMARK  status: ('A' for Active; 'I' for Inactive)
REMARK    1  A    between atoms: C_3  and  S_4 
REMARK    2  A    between atoms: S_4  and  N_5 
REMARK    3  A    between atoms: N_5  and  C_6 
REMARK    4  A    between atoms: C_6  and  C_7 
REMARK    5  A    between atoms: C_20  and  C_21 
REMARK    6  A    between atoms: C_25  and  N_26 
REMARK    7  A    between atoms: N_26  and  C_27 
ROOT
HETATM    1  C   UNL     1     -44.730  57.694 -51.445  1.00  0.00     0.050 C 
HETATM    2  C   UNL     1     -44.163  58.202 -52.741  1.00  0.00    -0.039 A 
HETATM    3  C   UNL     1     -42.789  58.255 -53.032  1.00  0.00     0.081 A 
HETATM    4  C   UNL     1     -42.344  58.784 -54.258  1.00  0.00     0.039 A 
HETATM    5  C   UNL     1     -43.247  59.213 -55.243  1.00  0.00    -0.003 A 
HETATM    6  C   UNL     1     -44.613  59.170 -54.943  1.00  0.00     0.014 A 
HETATM    7  C   UNL     1     -45.061  58.680 -53.711  1.00  0.00     0.009 A 
ENDROOT
BRANCH   5   8
HETATM    8  C   UNL     1     -42.764  59.719 -56.536  1.00  0.00     0.098 A 
HETATM    9  N   UNL     1     -42.390  61.013 -56.499  1.00  0.00    -0.172 NA
HETATM   10  N   UNL     1     -41.853  61.551 -57.577  1.00  0.00    -0.262 N 
HETATM   11  H   UNL     1     -41.569  62.524 -57.520  1.00  0.00     0.191 HD
HETATM   12  C   UNL     1     -41.655  60.902 -58.737  1.00  0.00     0.129 A 
HETATM   13  C   UNL     1     -42.036  59.535 -58.813  1.00  0.00     0.022 A 
HETATM   14  C   UNL     1     -42.633  58.930 -57.690  1.00  0.00     0.009 A 
HETATM   15  C   UNL     1     -41.828  58.739 -59.968  1.00  0.00     0.016 A 
HETATM   16  C   UNL     1     -43.058  57.579 -57.781  1.00  0.00     0.015 A 
HETATM   17  C   UNL     1     -42.854  56.826 -58.934  1.00  0.00     0.001 A 
HETATM   18  C   UNL     1     -42.229  57.403 -60.027  1.00  0.00     0.001 A 
BRANCH  12  19
HETATM   19  N   UNL     1     -41.037  61.536 -59.814  1.00  0.00    -0.370 N 
HETATM   20  H   UNL     1     -40.911  60.893 -60.599  1.00  0.00     0.161 HD
BRANCH  19  21
HETATM   21  C   UNL     1     -41.298  62.914 -60.247  1.00  0.00     0.083 C 
HETATM   22  C   UNL     1     -40.414  63.907 -59.475  1.00  0.00     0.025 C 
HETATM   23  C   UNL     1     -38.932  63.776 -59.825  1.00  0.00     0.002 C 
HETATM   24  C   UNL     1     -38.696  63.897 -61.326  1.00  0.00     0.000 C 
HETATM   25  C   UNL     1     -39.551  62.909 -62.113  1.00  0.00     0.002 C 
HETATM   26  C   UNL     1     -41.034  63.033 -61.758  1.00  0.00     0.025 C 
ENDBRANCH  19  21
ENDBRANCH  12  19
ENDBRANCH   5   8
BRANCH   3  27
HETATM   27  S   UNL     1     -41.522  57.678 -51.898  1.00  0.00     0.242 S 
HETATM   28  O   UNL     1     -40.239  57.932 -52.516  1.00  0.00    -0.206 OA
HETATM   29  O   UNL     1     -41.832  58.156 -50.573  1.00  0.00    -0.206 OA
BRANCH  27  30
HETATM   30  N   UNL     1     -41.797  56.006 -51.918  1.00  0.00    -0.208 NA
HETATM   31  H   UNL     1     -41.837  55.658 -52.880  1.00  0.00     0.140 HD
BRANCH  30  32
HETATM   32  C   UNL     1     -40.871  55.222 -51.083  1.00  0.00     0.182 C 
BRANCH  32  33
HETATM   33  C   UNL     1     -40.614  53.919 -51.753  1.00  0.00     0.119 A 
HETATM   34  N   UNL     1     -40.764  53.652 -53.037  1.00  0.00    -0.232 NA
HETATM   35  C   UNL     1     -40.366  52.342 -53.185  1.00  0.00     0.085 A 
HETATM   36  C   UNL     1     -39.998  51.794 -51.960  1.00  0.00     0.062 A 
HETATM   37  C   UNL     1     -40.289  51.549 -54.339  1.00  0.00     0.034 A 
HETATM   38  N   UNL     1     -40.176  52.814 -51.064  1.00  0.00    -0.342 N 
HETATM   39  C   UNL     1     -39.557  50.478 -51.810  1.00  0.00     0.032 A 
HETATM   40  H   UNL     1     -40.013  52.766 -50.067  1.00  0.00     0.167 HD
HETATM   41  C   UNL     1     -39.484  49.703 -52.973  1.00  0.00     0.002 A 
HETATM   42  C   UNL     1     -39.842  50.227 -54.218  1.00  0.00     0.002 A 
ENDBRANCH  32  33
ENDBRANCH  30  32
ENDBRANCH  27  30
ENDBRANCH   3  27
TORSDOF 7
ENDMDL
