MODEL 1
REMARK VINA RESULT:      -8.0      0.000      0.000
REMARK  11 active torsions:
REMARK  status: ('A' for Active; 'I' for Inactive)
REMARK    1  A    between atoms: C_6  and  C_7 
REMARK    2  A    between atoms: C_7  and  C_8 
REMARK       I    between atoms: C_8  and  N_9 
REMARK    3  A    between atoms: N_9  and  C_10 
REMARK    4  A    between atoms: C_10  and  C_11 
REMARK    5  A    between atoms: C_11  and  N_12 
REMARK    6  A    between atoms: C_17  and  C_18 
REMARK    7  A    between atoms: C_21  and  C_22 
REMARK    8  A    between atoms: C_29  and  C_30 
REMARK    9  A    between atoms: C_30  and  O_31 
REMARK   10  A    between atoms: O_31  and  C_32 
REMARK   11  A    between atoms: C_32  and  C_33 
ROOT
HETATM    1  C   UNL     1     -42.979  61.371 -53.105  1.00  0.00     0.071 C 
HETATM    2  C   UNL     1     -43.123  60.201 -54.057  1.00  0.00     0.048 C 
HETATM    3  N   UNL     1     -43.801  60.518 -55.215  1.00  0.00    -0.229 NA
HETATM    4  C   UNL     1     -43.642  59.740 -56.230  1.00  0.00     0.170 C 
HETATM    5  N   UNL     1     -42.990  58.306 -56.182  1.00  0.00    -0.319 N 
HETATM    6  C   UNL     1     -42.893  57.824 -57.385  1.00  0.00     0.011 C 
HETATM    7  C   UNL     1     -42.898  57.841 -54.772  1.00  0.00     0.166 C 
HETATM    8  S   UNL     1     -44.139  60.170 -57.830  1.00  0.00    -0.086 SA
HETATM    9  C   UNL     1     -43.142  58.818 -58.503  1.00  0.00     0.135 C 
HETATM   10  C   UNL     1     -42.548  58.991 -53.882  1.00  0.00     0.069 C 
ENDROOT
BRANCH   6  11
HETATM   11  C   UNL     1     -42.584  56.391 -57.707  1.00  0.00     0.156 C 
BRANCH  11  12
HETATM   12  C   UNL     1     -43.090  55.896 -59.048  1.00  0.00     0.223 C 
HETATM   13  N   UNL     1     -44.380  55.423 -59.007  1.00  0.00    -0.359 N 
HETATM   14  H   UNL     1     -44.804  55.316 -58.087  1.00  0.00     0.162 HD
HETATM   15  O   UNL     1     -42.414  55.925 -60.071  1.00  0.00    -0.273 OA
BRANCH  13  16
HETATM   16  C   UNL     1     -45.054  54.676 -60.070  1.00  0.00     0.150 C 
BRANCH  16  17
HETATM   17  C   UNL     1     -45.796  55.498 -61.145  1.00  0.00     0.253 C 
BRANCH  17  18
HETATM   18  N   UNL     1     -47.057  56.156 -60.620  1.00  0.00    -0.077 N 
HETATM   19  H   UNL     1     -47.581  55.418 -60.108  1.00  0.00     0.279 HD
HETATM   20  C   UNL     1     -46.801  57.285 -59.660  1.00  0.00     0.269 C 
HETATM   21  C   UNL     1     -47.948  56.614 -61.744  1.00  0.00     0.269 C 
ENDBRANCH  17  18
ENDBRANCH  16  17
ENDBRANCH  13  16
ENDBRANCH  11  12
ENDBRANCH   6  11
BRANCH   7  22
HETATM   22  C   UNL     1     -42.185  56.520 -54.563  1.00  0.00    -0.030 A 
HETATM   23  C   UNL     1     -40.791  56.376 -54.576  1.00  0.00     0.010 A 
HETATM   24  C   UNL     1     -40.206  55.105 -54.480  1.00  0.00     0.008 A 
HETATM   25  C   UNL     1     -40.992  53.949 -54.369  1.00  0.00    -0.055 A 
HETATM   26  C   UNL     1     -42.379  54.099 -54.283  1.00  0.00     0.008 A 
HETATM   27  C   UNL     1     -42.965  55.361 -54.375  1.00  0.00     0.010 A 
BRANCH  25  28
HETATM   28  C   UNL     1     -40.340  52.576 -54.302  1.00  0.00     0.010 C 
HETATM   29  C   UNL     1     -39.568  52.395 -52.995  1.00  0.00     0.015 C 
HETATM   30  C   UNL     1     -41.351  51.437 -54.493  1.00  0.00     0.015 C 
ENDBRANCH  25  28
ENDBRANCH   7  22
BRANCH  10  31
HETATM   31  C   UNL     1     -41.361  58.955 -53.013  1.00  0.00     0.294 C 
HETATM   32  O   UNL     1     -40.217  59.152 -53.351  1.00  0.00    -0.259 OA
BRANCH  31  33
HETATM   33  O   UNL     1     -41.840  58.549 -51.814  1.00  0.00    -0.313 OA
BRANCH  33  34
HETATM   34  C   UNL     1     -40.997  57.671 -51.051  1.00  0.00     0.217 C 
BRANCH  34  35
HETATM   35  C   UNL     1     -41.735  56.354 -50.931  1.00  0.00    -0.034 A 
HETATM   36  C   UNL     1     -41.032  55.143 -50.808  1.00  0.00     0.009 A 
HETATM   37  C   UNL     1     -41.705  53.927 -50.669  1.00  0.00     0.001 A 
HETATM   38  C   UNL     1     -43.096  53.905 -50.641  1.00  0.00     0.000 A 
HETATM   39  C   UNL     1     -43.808  55.098 -50.744  1.00  0.00     0.001 A 
HETATM   40  C   UNL     1     -43.135  56.315 -50.886  1.00  0.00     0.009 A 
ENDBRANCH  34  35
ENDBRANCH  33  34
ENDBRANCH  31  33
ENDBRANCH  10  31
TORSDOF 11
ENDMDL
MODEL 2
REMARK VINA RESULT:      -7.1      3.336      7.415
REMARK  11 active torsions:
REMARK  status: ('A' for Active; 'I' for Inactive)
REMARK    1  A    between atoms: C_6  and  C_7 
REMARK    2  A    between atoms: C_7  and  C_8 
REMARK       I    between atoms: C_8  and  N_9 
REMARK    3  A    between atoms: N_9  and  C_10 
REMARK    4  A    between atoms: C_10  and  C_11 
REMARK    5  A    between atoms: C_11  and  N_12 
REMARK    6  A    between atoms: C_17  and  C_18 
REMARK    7  A    between atoms: C_21  and  C_22 
REMARK    8  A    between atoms: C_29  and  C_30 
REMARK    9  A    between atoms: C_30  and  O_31 
REMARK   10  A    between atoms: O_31  and  C_32 
REMARK   11  A    between atoms: C_32  and  C_33 
ROOT
HETATM    1  C   UNL     1     -42.984  60.210 -58.210  1.00  0.00     0.071 C 
HETATM    2  C   UNL     1     -42.832  60.354 -56.710  1.00  0.00     0.048 C 
HETATM    3  N   UNL     1     -42.831  61.666 -56.284  1.00  0.00    -0.229 NA
HETATM    4  C   UNL     1     -43.098  61.889 -55.044  1.00  0.00     0.170 C 
HETATM    5  N   UNL     1     -43.130  60.794 -53.909  1.00  0.00    -0.319 N 
HETATM    6  C   UNL     1     -43.523  61.327 -52.791  1.00  0.00     0.011 C 
HETATM    7  C   UNL     1     -42.483  59.546 -54.395  1.00  0.00     0.166 C 
HETATM    8  S   UNL     1     -43.465  63.464 -54.430  1.00  0.00    -0.086 SA
HETATM    9  C   UNL     1     -44.105  62.722 -52.909  1.00  0.00     0.135 C 
HETATM   10  C   UNL     1     -42.827  59.325 -55.834  1.00  0.00     0.069 C 
ENDROOT
BRANCH   6  11
HETATM   11  C   UNL     1     -43.412  60.669 -51.447  1.00  0.00     0.156 C 
BRANCH  11  12
HETATM   12  C   UNL     1     -44.698  60.587 -50.649  1.00  0.00     0.223 C 
HETATM   13  N   UNL     1     -44.709  61.403 -49.542  1.00  0.00    -0.359 N 
HETATM   14  H   UNL     1     -43.832  61.854 -49.292  1.00  0.00     0.162 HD
HETATM   15  O   UNL     1     -45.639  59.867 -50.966  1.00  0.00    -0.273 OA
BRANCH  13  16
HETATM   16  C   UNL     1     -45.699  61.371 -48.464  1.00  0.00     0.150 C 
BRANCH  16  17
HETATM   17  C   UNL     1     -45.216  61.774 -47.054  1.00  0.00     0.253 C 
BRANCH  17  18
HETATM   18  N   UNL     1     -44.982  60.582 -46.147  1.00  0.00    -0.077 N 
HETATM   19  H   UNL     1     -44.317  59.959 -46.647  1.00  0.00     0.279 HD
HETATM   20  C   UNL     1     -44.367  60.937 -44.821  1.00  0.00     0.269 C 
HETATM   21  C   UNL     1     -46.245  59.787 -45.944  1.00  0.00     0.269 C 
ENDBRANCH  17  18
ENDBRANCH  16  17
ENDBRANCH  13  16
ENDBRANCH  11  12
ENDBRANCH   6  11
BRANCH   7  22
HETATM   22  C   UNL     1     -42.541  58.365 -53.447  1.00  0.00    -0.030 A 
HETATM   23  C   UNL     1     -43.728  57.710 -53.090  1.00  0.00     0.010 A 
HETATM   24  C   UNL     1     -43.716  56.692 -52.126  1.00  0.00     0.008 A 
HETATM   25  C   UNL     1     -42.526  56.303 -51.494  1.00  0.00    -0.055 A 
HETATM   26  C   UNL     1     -41.333  56.905 -51.902  1.00  0.00     0.008 A 
HETATM   27  C   UNL     1     -41.340  57.916 -52.864  1.00  0.00     0.010 A 
BRANCH  25  28
HETATM   28  C   UNL     1     -42.539  55.221 -50.424  1.00  0.00     0.010 C 
HETATM   29  C   UNL     1     -43.660  54.212 -50.673  1.00  0.00     0.015 C 
HETATM   30  C   UNL     1     -41.188  54.505 -50.298  1.00  0.00     0.015 C 
ENDBRANCH  25  28
ENDBRANCH   7  22
BRANCH  10  31
HETATM   31  C   UNL     1     -43.474  58.084 -56.287  1.00  0.00     0.294 C 
HETATM   32  O   UNL     1     -44.661  57.855 -56.299  1.00  0.00    -0.259 OA
BRANCH  31  33
HETATM   33  O   UNL     1     -42.441  57.254 -56.566  1.00  0.00    -0.313 OA
BRANCH  33  34
HETATM   34  C   UNL     1     -42.777  55.887 -56.855  1.00  0.00     0.217 C 
BRANCH  34  35
HETATM   35  C   UNL     1     -42.192  55.049 -55.737  1.00  0.00    -0.034 A 
HETATM   36  C   UNL     1     -40.829  55.141 -55.405  1.00  0.00     0.009 A 
HETATM   37  C   UNL     1     -40.287  54.393 -54.358  1.00  0.00     0.001 A 
HETATM   38  C   UNL     1     -41.105  53.545 -53.618  1.00  0.00     0.000 A 
HETATM   39  C   UNL     1     -42.462  53.454 -53.923  1.00  0.00     0.001 A 
HETATM   40  C   UNL     1     -43.004  54.203 -54.973  1.00  0.00     0.009 A 
ENDBRANCH  34  35
ENDBRANCH  33  34
ENDBRANCH  31  33
ENDBRANCH  10  31
TORSDOF 11
ENDMDL
MODEL 3
REMARK VINA RESULT:      -7.1      3.121      6.667
REMARK  11 active torsions:
REMARK  status: ('A' for Active; 'I' for Inactive)
REMARK    1  A    between atoms: C_6  and  C_7 
REMARK    2  A    between atoms: C_7  and  C_8 
REMARK       I    between atoms: C_8  and  N_9 
REMARK    3  A    between atoms: N_9  and  C_10 
REMARK    4  A    between atoms: C_10  and  C_11 
REMARK    5  A    between atoms: C_11  and  N_12 
REMARK    6  A    between atoms: C_17  and  C_18 
REMARK    7  A    between atoms: C_21  and  C_22 
REMARK    8  A    between atoms: C_29  and  C_30 
REMARK    9  A    between atoms: C_30  and  O_31 
REMARK   10  A    between atoms: O_31  and  C_32 
REMARK   11  A    between atoms: C_32  and  C_33 
ROOT
HETATM    1  C   UNL     1     -42.661  53.923 -51.135  1.00  0.00     0.071 C 
HETATM    2  C   UNL     1     -42.698  55.309 -51.745  1.00  0.00     0.048 C 
HETATM    3  N   UNL     1     -42.388  56.310 -50.850  1.00  0.00    -0.229 NA
HETATM    4  C   UNL     1     -42.013  57.444 -51.331  1.00  0.00     0.170 C 
HETATM    5  N   UNL     1     -42.164  57.888 -52.836  1.00  0.00    -0.319 N 
HETATM    6  C   UNL     1     -41.604  59.047 -53.015  1.00  0.00     0.011 C 
HETATM    7  C   UNL     1     -43.095  56.967 -53.542  1.00  0.00     0.166 C 
HETATM    8  S   UNL     1     -41.276  58.677 -50.366  1.00  0.00    -0.086 SA
HETATM    9  C   UNL     1     -40.735  59.529 -51.868  1.00  0.00     0.135 C 
HETATM   10  C   UNL     1     -42.884  55.567 -53.059  1.00  0.00     0.069 C 
ENDROOT
BRANCH   6  11
HETATM   11  C   UNL     1     -41.786  59.904 -54.232  1.00  0.00     0.156 C 
BRANCH  11  12
HETATM   12  C   UNL     1     -43.067  60.713 -54.281  1.00  0.00     0.223 C 
HETATM   13  N   UNL     1     -43.549  61.051 -53.038  1.00  0.00    -0.359 N 
HETATM   14  H   UNL     1     -43.101  60.617 -52.235  1.00  0.00     0.162 HD
HETATM   15  O   UNL     1     -43.613  61.041 -55.329  1.00  0.00    -0.273 OA
BRANCH  13  16
HETATM   16  C   UNL     1     -44.869  61.620 -52.757  1.00  0.00     0.150 C 
BRANCH  16  17
HETATM   17  C   UNL     1     -46.049  60.632 -52.636  1.00  0.00     0.253 C 
BRANCH  17  18
HETATM   18  N   UNL     1     -46.214  60.078 -51.234  1.00  0.00    -0.077 N 
HETATM   19  H   UNL     1     -47.232  59.907 -51.105  1.00  0.00     0.279 HD
HETATM   20  C   UNL     1     -45.498  58.776 -51.004  1.00  0.00     0.269 C 
HETATM   21  C   UNL     1     -45.814  61.089 -50.192  1.00  0.00     0.269 C 
ENDBRANCH  17  18
ENDBRANCH  16  17
ENDBRANCH  13  16
ENDBRANCH  11  12
ENDBRANCH   6  11
BRANCH   7  22
HETATM   22  C   UNL     1     -43.248  57.204 -55.031  1.00  0.00    -0.030 A 
HETATM   23  C   UNL     1     -42.205  57.056 -55.955  1.00  0.00     0.010 A 
HETATM   24  C   UNL     1     -42.395  57.394 -57.303  1.00  0.00     0.008 A 
HETATM   25  C   UNL     1     -43.625  57.888 -57.762  1.00  0.00    -0.055 A 
HETATM   26  C   UNL     1     -44.685  57.968 -56.855  1.00  0.00     0.008 A 
HETATM   27  C   UNL     1     -44.502  57.628 -55.515  1.00  0.00     0.010 A 
BRANCH  25  28
HETATM   28  C   UNL     1     -43.801  58.284 -59.221  1.00  0.00     0.010 C 
HETATM   29  C   UNL     1     -42.471  58.232 -59.971  1.00  0.00     0.015 C 
HETATM   30  C   UNL     1     -44.857  57.431 -59.936  1.00  0.00     0.015 C 
ENDBRANCH  25  28
ENDBRANCH   7  22
BRANCH  10  31
HETATM   31  C   UNL     1     -42.552  54.476 -53.989  1.00  0.00     0.294 C 
HETATM   32  O   UNL     1     -43.334  53.808 -54.622  1.00  0.00    -0.259 OA
BRANCH  31  33
HETATM   33  O   UNL     1     -41.210  54.338 -53.871  1.00  0.00    -0.313 OA
BRANCH  33  34
HETATM   34  C   UNL     1     -40.586  53.378 -54.739  1.00  0.00     0.217 C 
BRANCH  34  35
HETATM   35  C   UNL     1     -40.235  52.180 -53.883  1.00  0.00    -0.034 A 
HETATM   36  C   UNL     1     -40.185  50.889 -54.436  1.00  0.00     0.009 A 
HETATM   37  C   UNL     1     -39.835  49.782 -53.660  1.00  0.00     0.001 A 
HETATM   38  C   UNL     1     -39.519  49.952 -52.316  1.00  0.00     0.000 A 
HETATM   39  C   UNL     1     -39.547  51.227 -51.755  1.00  0.00     0.001 A 
HETATM   40  C   UNL     1     -39.899  52.335 -52.532  1.00  0.00     0.009 A 
ENDBRANCH  34  35
ENDBRANCH  33  34
ENDBRANCH  31  33
ENDBRANCH  10  31
TORSDOF 11
ENDMDL
MODEL 4
REMARK VINA RESULT:      -6.8      3.217      7.235
REMARK  11 active torsions:
REMARK  status: ('A' for Active; 'I' for Inactive)
REMARK    1  A    between atoms: C_6  and  C_7 
REMARK    2  A    between atoms: C_7  and  C_8 
REMARK       I    between atoms: C_8  and  N_9 
REMARK    3  A    between atoms: N_9  and  C_10 
REMARK    4  A    between atoms: C_10  and  C_11 
REMARK    5  A    between atoms: C_11  and  N_12 
REMARK    6  A    between atoms: C_17  and  C_18 
REMARK    7  A    between atoms: C_21  and  C_22 
REMARK    8  A    between atoms: C_29  and  C_30 
REMARK    9  A    between atoms: C_30  and  O_31 
REMARK   10  A    between atoms: O_31  and  C_32 
REMARK   11  A    between atoms: C_32  and  C_33 
ROOT
HETATM    1  C   UNL     1     -41.351  60.262 -50.217  1.00  0.00     0.071 C 
HETATM    2  C   UNL     1     -41.642  59.040 -51.062  1.00  0.00     0.048 C 
HETATM    3  N   UNL     1     -41.296  57.855 -50.448  1.00  0.00    -0.229 NA
HETATM    4  C   UNL     1     -41.842  56.774 -50.889  1.00  0.00     0.170 C 
HETATM    5  N   UNL     1     -42.631  56.643 -52.248  1.00  0.00    -0.319 N 
HETATM    6  C   UNL     1     -43.135  55.450 -52.353  1.00  0.00     0.011 C 
HETATM    7  C   UNL     1     -42.368  57.833 -53.100  1.00  0.00     0.166 C 
HETATM    8  S   UNL     1     -41.781  55.273 -50.031  1.00  0.00    -0.086 SA
HETATM    9  C   UNL     1     -43.096  54.616 -51.086  1.00  0.00     0.135 C 
HETATM   10  C   UNL     1     -42.292  59.060 -52.247  1.00  0.00     0.069 C 
ENDROOT
BRANCH   6  11
HETATM   11  C   UNL     1     -43.706  54.874 -53.615  1.00  0.00     0.156 C 
BRANCH  11  12
HETATM   12  C   UNL     1     -42.715  54.177 -54.527  1.00  0.00     0.223 C 
HETATM   13  N   UNL     1     -41.756  53.461 -53.849  1.00  0.00    -0.359 N 
HETATM   14  H   UNL     1     -41.716  53.584 -52.840  1.00  0.00     0.162 HD
HETATM   15  O   UNL     1     -42.771  54.240 -55.750  1.00  0.00    -0.273 OA
BRANCH  13  16
HETATM   16  C   UNL     1     -40.546  52.883 -54.434  1.00  0.00     0.150 C 
BRANCH  16  17
HETATM   17  C   UNL     1     -40.377  51.352 -54.330  1.00  0.00     0.253 C 
BRANCH  17  18
HETATM   18  N   UNL     1     -39.412  50.937 -53.236  1.00  0.00    -0.077 N 
HETATM   19  H   UNL     1     -38.456  51.070 -53.623  1.00  0.00     0.279 HD
HETATM   20  C   UNL     1     -39.518  51.764 -51.984  1.00  0.00     0.269 C 
HETATM   21  C   UNL     1     -39.544  49.472 -52.912  1.00  0.00     0.269 C 
ENDBRANCH  17  18
ENDBRANCH  16  17
ENDBRANCH  13  16
ENDBRANCH  11  12
ENDBRANCH   6  11
BRANCH   7  22
HETATM   22  C   UNL     1     -43.153  57.899 -54.395  1.00  0.00    -0.030 A 
HETATM   23  C   UNL     1     -44.543  58.061 -54.456  1.00  0.00     0.010 A 
HETATM   24  C   UNL     1     -45.213  58.007 -55.687  1.00  0.00     0.008 A 
HETATM   25  C   UNL     1     -44.516  57.790 -56.885  1.00  0.00    -0.055 A 
HETATM   26  C   UNL     1     -43.122  57.701 -56.831  1.00  0.00     0.008 A 
HETATM   27  C   UNL     1     -42.452  57.758 -55.609  1.00  0.00     0.010 A 
BRANCH  25  28
HETATM   28  C   UNL     1     -45.263  57.700 -58.207  1.00  0.00     0.010 C 
HETATM   29  C   UNL     1     -46.654  58.324 -58.098  1.00  0.00     0.015 C 
HETATM   30  C   UNL     1     -44.480  58.326 -59.368  1.00  0.00     0.015 C 
ENDBRANCH  25  28
ENDBRANCH   7  22
BRANCH  10  31
HETATM   31  C   UNL     1     -43.169  60.216 -52.487  1.00  0.00     0.294 C 
HETATM   32  O   UNL     1     -44.296  60.362 -52.075  1.00  0.00    -0.259 OA
BRANCH  31  33
HETATM   33  O   UNL     1     -42.466  60.993 -53.346  1.00  0.00    -0.313 OA
BRANCH  33  34
HETATM   34  C   UNL     1     -43.106  62.201 -53.787  1.00  0.00     0.217 C 
BRANCH  34  35
HETATM   35  C   UNL     1     -43.736  61.896 -55.130  1.00  0.00    -0.034 A 
HETATM   36  C   UNL     1     -45.132  61.920 -55.292  1.00  0.00     0.009 A 
HETATM   37  C   UNL     1     -45.720  61.667 -56.533  1.00  0.00     0.001 A 
HETATM   38  C   UNL     1     -44.917  61.395 -57.637  1.00  0.00     0.000 A 
HETATM   39  C   UNL     1     -43.531  61.383 -57.497  1.00  0.00     0.001 A 
HETATM   40  C   UNL     1     -42.942  61.634 -56.253  1.00  0.00     0.009 A 
ENDBRANCH  34  35
ENDBRANCH  33  34
ENDBRANCH  31  33
ENDBRANCH  10  31
TORSDOF 11
ENDMDL
MODEL 5
REMARK VINA RESULT:      -6.7      3.007      7.241
REMARK  11 active torsions:
REMARK  status: ('A' for Active; 'I' for Inactive)
REMARK    1  A    between atoms: C_6  and  C_7 
REMARK    2  A    between atoms: C_7  and  C_8 
REMARK       I    between atoms: C_8  and  N_9 
REMARK    3  A    between atoms: N_9  and  C_10 
REMARK    4  A    between atoms: C_10  and  C_11 
REMARK    5  A    between atoms: C_11  and  N_12 
REMARK    6  A    between atoms: C_17  and  C_18 
REMARK    7  A    between atoms: C_21  and  C_22 
REMARK    8  A    between atoms: C_29  and  C_30 
REMARK    9  A    between atoms: C_30  and  O_31 
REMARK   10  A    between atoms: O_31  and  C_32 
REMARK   11  A    between atoms: C_32  and  C_33 
ROOT
HETATM    1  C   UNL     1     -42.584  60.989 -51.402  1.00  0.00     0.071 C 
HETATM    2  C   UNL     1     -42.455  59.654 -52.105  1.00  0.00     0.048 C 
HETATM    3  N   UNL     1     -41.967  58.652 -51.293  1.00  0.00    -0.229 NA
HETATM    4  C   UNL     1     -42.182  57.435 -51.655  1.00  0.00     0.170 C 
HETATM    5  N   UNL     1     -42.684  56.984 -53.080  1.00  0.00    -0.319 N 
HETATM    6  C   UNL     1     -42.890  55.702 -53.091  1.00  0.00     0.011 C 
HETATM    7  C   UNL     1     -42.548  58.111 -54.041  1.00  0.00     0.166 C 
HETATM    8  S   UNL     1     -41.939  56.085 -50.600  1.00  0.00    -0.086 SA
HETATM    9  C   UNL     1     -42.883  55.032 -51.730  1.00  0.00     0.135 C 
HETATM   10  C   UNL     1     -42.887  59.400 -53.361  1.00  0.00     0.069 C 
ENDROOT
BRANCH   6  11
HETATM   11  C   UNL     1     -43.102  54.883 -54.330  1.00  0.00     0.156 C 
BRANCH  11  12
HETATM   12  C   UNL     1     -41.901  54.089 -54.806  1.00  0.00     0.223 C 
HETATM   13  N   UNL     1     -41.832  52.825 -54.270  1.00  0.00    -0.359 N 
HETATM   14  H   UNL     1     -42.484  52.604 -53.520  1.00  0.00     0.162 HD
HETATM   15  O   UNL     1     -41.077  54.531 -55.600  1.00  0.00    -0.273 OA
BRANCH  13  16
HETATM   16  C   UNL     1     -40.684  51.920 -54.354  1.00  0.00     0.150 C 
BRANCH  16  17
HETATM   17  C   UNL     1     -39.587  52.074 -53.280  1.00  0.00     0.253 C 
BRANCH  17  18
HETATM   18  N   UNL     1     -40.082  51.764 -51.880  1.00  0.00    -0.077 N 
HETATM   19  H   UNL     1     -41.109  51.621 -51.958  1.00  0.00     0.279 HD
HETATM   20  C   UNL     1     -39.490  50.515 -51.288  1.00  0.00     0.269 C 
HETATM   21  C   UNL     1     -39.879  52.933 -50.953  1.00  0.00     0.269 C 
ENDBRANCH  17  18
ENDBRANCH  16  17
ENDBRANCH  13  16
ENDBRANCH  11  12
ENDBRANCH   6  11
BRANCH   7  22
HETATM   22  C   UNL     1     -43.100  57.859 -55.429  1.00  0.00    -0.030 A 
HETATM   23  C   UNL     1     -44.468  57.831 -55.731  1.00  0.00     0.010 A 
HETATM   24  C   UNL     1     -44.906  57.487 -57.018  1.00  0.00     0.008 A 
HETATM   25  C   UNL     1     -43.996  57.162 -58.034  1.00  0.00    -0.055 A 
HETATM   26  C   UNL     1     -42.630  57.260 -57.753  1.00  0.00     0.008 A 
HETATM   27  C   UNL     1     -42.190  57.606 -56.475  1.00  0.00     0.010 A 
BRANCH  25  28
HETATM   28  C   UNL     1     -44.491  56.757 -59.414  1.00  0.00     0.010 C 
HETATM   29  C   UNL     1     -44.067  55.328 -59.755  1.00  0.00     0.015 C 
HETATM   30  C   UNL     1     -46.010  56.918 -59.563  1.00  0.00     0.015 C 
ENDBRANCH  25  28
ENDBRANCH   7  22
BRANCH  10  31
HETATM   31  C   UNL     1     -43.942  60.286 -53.876  1.00  0.00     0.294 C 
HETATM   32  O   UNL     1     -45.115  60.250 -53.588  1.00  0.00    -0.259 OA
BRANCH  31  33
HETATM   33  O   UNL     1     -43.314  61.045 -54.805  1.00  0.00    -0.313 OA
BRANCH  33  34
HETATM   34  C   UNL     1     -44.132  61.573 -55.861  1.00  0.00     0.217 C 
BRANCH  34  35
HETATM   35  C   UNL     1     -43.458  61.195 -57.164  1.00  0.00    -0.034 A 
HETATM   36  C   UNL     1     -42.059  61.088 -57.247  1.00  0.00     0.009 A 
HETATM   37  C   UNL     1     -41.432  60.713 -58.437  1.00  0.00     0.001 A 
HETATM   38  C   UNL     1     -42.198  60.429 -59.563  1.00  0.00     0.000 A 
HETATM   39  C   UNL     1     -43.587  60.514 -59.494  1.00  0.00     0.001 A 
HETATM   40  C   UNL     1     -44.215  60.891 -58.302  1.00  0.00     0.009 A 
ENDBRANCH  34  35
ENDBRANCH  33  34
ENDBRANCH  31  33
ENDBRANCH  10  31
TORSDOF 11
ENDMDL
MODEL 6
REMARK VINA RESULT:      -6.7      2.545      5.177
REMARK  11 active torsions:
REMARK  status: ('A' for Active; 'I' for Inactive)
REMARK    1  A    between atoms: C_6  and  C_7 
REMARK    2  A    between atoms: C_7  and  C_8 
REMARK       I    between atoms: C_8  and  N_9 
REMARK    3  A    between atoms: N_9  and  C_10 
REMARK    4  A    between atoms: C_10  and  C_11 
REMARK    5  A    between atoms: C_11  and  N_12 
REMARK    6  A    between atoms: C_17  and  C_18 
REMARK    7  A    between atoms: C_21  and  C_22 
REMARK    8  A    between atoms: C_29  and  C_30 
REMARK    9  A    between atoms: C_30  and  O_31 
REMARK   10  A    between atoms: O_31  and  C_32 
REMARK   11  A    between atoms: C_32  and  C_33 
ROOT
HETATM    1  C   UNL     1     -43.490  55.367 -50.509  1.00  0.00     0.071 C 
HETATM    2  C   UNL     1     -43.927  56.413 -51.513  1.00  0.00     0.048 C 
HETATM    3  N   UNL     1     -44.850  57.304 -51.008  1.00  0.00    -0.229 NA
HETATM    4  C   UNL     1     -44.988  58.429 -51.620  1.00  0.00     0.170 C 
HETATM    5  N   UNL     1     -44.424  58.759 -53.055  1.00  0.00    -0.319 N 
HETATM    6  C   UNL     1     -44.652  60.004 -53.345  1.00  0.00     0.011 C 
HETATM    7  C   UNL     1     -44.014  57.501 -53.736  1.00  0.00     0.166 C 
HETATM    8  S   UNL     1     -45.839  59.772 -50.938  1.00  0.00    -0.086 SA
HETATM    9  C   UNL     1     -45.113  60.865 -52.184  1.00  0.00     0.135 C 
HETATM   10  C   UNL     1     -43.393  56.568 -52.745  1.00  0.00     0.069 C 
ENDROOT
BRANCH   6  11
HETATM   11  C   UNL     1     -44.510  60.601 -54.714  1.00  0.00     0.156 C 
BRANCH  11  12
HETATM   12  C   UNL     1     -45.771  60.620 -55.556  1.00  0.00     0.223 C 
HETATM   13  N   UNL     1     -45.857  59.569 -56.438  1.00  0.00    -0.359 N 
HETATM   14  H   UNL     1     -45.030  58.985 -56.543  1.00  0.00     0.162 HD
HETATM   15  O   UNL     1     -46.633  61.486 -55.451  1.00  0.00    -0.273 OA
BRANCH  13  16
HETATM   16  C   UNL     1     -46.825  59.443 -57.529  1.00  0.00     0.150 C 
BRANCH  16  17
HETATM   17  C   UNL     1     -47.170  58.014 -58.001  1.00  0.00     0.253 C 
BRANCH  17  18
HETATM   18  N   UNL     1     -46.310  57.553 -59.163  1.00  0.00    -0.077 N 
HETATM   19  H   UNL     1     -45.479  57.088 -58.745  1.00  0.00     0.279 HD
HETATM   20  C   UNL     1     -46.988  56.556 -60.063  1.00  0.00     0.269 C 
HETATM   21  C   UNL     1     -45.795  58.719 -59.964  1.00  0.00     0.269 C 
ENDBRANCH  17  18
ENDBRANCH  16  17
ENDBRANCH  13  16
ENDBRANCH  11  12
ENDBRANCH   6  11
BRANCH   7  22
HETATM   22  C   UNL     1     -43.345  57.674 -55.085  1.00  0.00    -0.030 A 
HETATM   23  C   UNL     1     -42.391  58.664 -55.360  1.00  0.00     0.010 A 
HETATM   24  C   UNL     1     -41.892  58.829 -56.661  1.00  0.00     0.008 A 
HETATM   25  C   UNL     1     -42.331  58.017 -57.716  1.00  0.00    -0.055 A 
HETATM   26  C   UNL     1     -43.228  56.985 -57.427  1.00  0.00     0.008 A 
HETATM   27  C   UNL     1     -43.723  56.814 -56.134  1.00  0.00     0.010 A 
BRANCH  25  28
HETATM   28  C   UNL     1     -41.806  58.235 -59.127  1.00  0.00     0.010 C 
HETATM   29  C   UNL     1     -42.314  57.152 -60.079  1.00  0.00     0.015 C 
HETATM   30  C   UNL     1     -42.144  59.631 -59.670  1.00  0.00     0.015 C 
ENDBRANCH  25  28
ENDBRANCH   7  22
BRANCH  10  31
HETATM   31  C   UNL     1     -42.033  56.040 -52.934  1.00  0.00     0.294 C 
HETATM   32  O   UNL     1     -41.000  56.650 -52.793  1.00  0.00    -0.259 OA
BRANCH  31  33
HETATM   33  O   UNL     1     -42.227  54.784 -53.401  1.00  0.00    -0.313 OA
BRANCH  33  34
HETATM   34  C   UNL     1     -41.244  54.283 -54.321  1.00  0.00     0.217 C 
BRANCH  34  35
HETATM   35  C   UNL     1     -40.656  53.036 -53.695  1.00  0.00    -0.034 A 
HETATM   36  C   UNL     1     -40.387  51.897 -54.473  1.00  0.00     0.009 A 
HETATM   37  C   UNL     1     -39.819  50.753 -53.909  1.00  0.00     0.001 A 
HETATM   38  C   UNL     1     -39.501  50.735 -52.555  1.00  0.00     0.000 A 
HETATM   39  C   UNL     1     -39.745  51.861 -51.772  1.00  0.00     0.001 A 
HETATM   40  C   UNL     1     -40.316  53.006 -52.337  1.00  0.00     0.009 A 
ENDBRANCH  34  35
ENDBRANCH  33  34
ENDBRANCH  31  33
ENDBRANCH  10  31
TORSDOF 11
ENDMDL
MODEL 7
REMARK VINA RESULT:      -6.7      2.887      6.011
REMARK  11 active torsions:
REMARK  status: ('A' for Active; 'I' for Inactive)
REMARK    1  A    between atoms: C_6  and  C_7 
REMARK    2  A    between atoms: C_7  and  C_8 
REMARK       I    between atoms: C_8  and  N_9 
REMARK    3  A    between atoms: N_9  and  C_10 
REMARK    4  A    between atoms: C_10  and  C_11 
REMARK    5  A    between atoms: C_11  and  N_12 
REMARK    6  A    between atoms: C_17  and  C_18 
REMARK    7  A    between atoms: C_21  and  C_22 
REMARK    8  A    between atoms: C_29  and  C_30 
REMARK    9  A    between atoms: C_30  and  O_31 
REMARK   10  A    between atoms: O_31  and  C_32 
REMARK   11  A    between atoms: C_32  and  C_33 
ROOT
HETATM    1  C   UNL     1     -43.441  54.932 -51.125  1.00  0.00     0.071 C 
HETATM    2  C   UNL     1     -43.707  56.208 -51.896  1.00  0.00     0.048 C 
HETATM    3  N   UNL     1     -43.582  57.347 -51.129  1.00  0.00    -0.229 NA
HETATM    4  C   UNL     1     -43.401  58.463 -51.746  1.00  0.00     0.170 C 
HETATM    5  N   UNL     1     -43.608  58.691 -53.292  1.00  0.00    -0.319 N 
HETATM    6  C   UNL     1     -43.253  59.899 -53.613  1.00  0.00     0.011 C 
HETATM    7  C   UNL     1     -44.361  57.548 -53.874  1.00  0.00     0.166 C 
HETATM    8  S   UNL     1     -42.895  59.910 -50.943  1.00  0.00    -0.086 SA
HETATM    9  C   UNL     1     -42.491  60.656 -52.541  1.00  0.00     0.135 C 
HETATM   10  C   UNL     1     -43.920  56.272 -53.229  1.00  0.00     0.069 C 
ENDROOT
BRANCH   6  11
HETATM   11  C   UNL     1     -43.565  60.561 -54.923  1.00  0.00     0.156 C 
BRANCH  11  12
HETATM   12  C   UNL     1     -42.489  60.454 -55.985  1.00  0.00     0.223 C 
HETATM   13  N   UNL     1     -42.848  61.015 -57.189  1.00  0.00    -0.359 N 
HETATM   14  H   UNL     1     -43.818  61.303 -57.292  1.00  0.00     0.162 HD
HETATM   15  O   UNL     1     -41.400  59.927 -55.785  1.00  0.00    -0.273 OA
BRANCH  13  16
HETATM   16  C   UNL     1     -42.126  60.865 -58.453  1.00  0.00     0.150 C 
BRANCH  16  17
HETATM   17  C   UNL     1     -41.106  61.966 -58.815  1.00  0.00     0.253 C 
BRANCH  17  18
HETATM   18  N   UNL     1     -41.180  62.384 -60.271  1.00  0.00    -0.077 N 
HETATM   19  H   UNL     1     -41.312  61.512 -60.820  1.00  0.00     0.279 HD
HETATM   20  C   UNL     1     -42.331  63.301 -60.583  1.00  0.00     0.269 C 
HETATM   21  C   UNL     1     -39.883  62.992 -60.736  1.00  0.00     0.269 C 
ENDBRANCH  17  18
ENDBRANCH  16  17
ENDBRANCH  13  16
ENDBRANCH  11  12
ENDBRANCH   6  11
BRANCH   7  22
HETATM   22  C   UNL     1     -44.536  57.576 -55.379  1.00  0.00    -0.030 A 
HETATM   23  C   UNL     1     -43.541  57.188 -56.287  1.00  0.00     0.010 A 
HETATM   24  C   UNL     1     -43.739  57.341 -57.667  1.00  0.00     0.008 A 
HETATM   25  C   UNL     1     -44.928  57.882 -58.176  1.00  0.00    -0.055 A 
HETATM   26  C   UNL     1     -45.948  58.200 -57.275  1.00  0.00     0.008 A 
HETATM   27  C   UNL     1     -45.757  58.046 -55.901  1.00  0.00     0.010 A 
BRANCH  25  28
HETATM   28  C   UNL     1     -45.110  58.072 -59.674  1.00  0.00     0.010 C 
HETATM   29  C   UNL     1     -43.829  57.729 -60.434  1.00  0.00     0.015 C 
HETATM   30  C   UNL     1     -46.296  57.271 -60.227  1.00  0.00     0.015 C 
ENDBRANCH  25  28
ENDBRANCH   7  22
BRANCH  10  31
HETATM   31  C   UNL     1     -43.396  55.151 -54.025  1.00  0.00     0.294 C 
HETATM   32  O   UNL     1     -44.042  54.262 -54.527  1.00  0.00    -0.259 OA
BRANCH  31  33
HETATM   33  O   UNL     1     -42.051  55.297 -53.957  1.00  0.00    -0.313 OA
BRANCH  33  34
HETATM   34  C   UNL     1     -41.269  54.424 -54.788  1.00  0.00     0.217 C 
BRANCH  34  35
HETATM   35  C   UNL     1     -40.679  53.368 -53.878  1.00  0.00    -0.034 A 
HETATM   36  C   UNL     1     -40.345  52.095 -54.372  1.00  0.00     0.009 A 
HETATM   37  C   UNL     1     -39.774  51.125 -53.545  1.00  0.00     0.001 A 
HETATM   38  C   UNL     1     -39.519  51.418 -52.210  1.00  0.00     0.000 A 
HETATM   39  C   UNL     1     -39.828  52.680 -51.707  1.00  0.00     0.001 A 
HETATM   40  C   UNL     1     -40.401  53.651 -52.534  1.00  0.00     0.009 A 
ENDBRANCH  34  35
ENDBRANCH  33  34
ENDBRANCH  31  33
ENDBRANCH  10  31
TORSDOF 11
ENDMDL
MODEL 8
REMARK VINA RESULT:      -6.4      4.229      8.302
REMARK  11 active torsions:
REMARK  status: ('A' for Active; 'I' for Inactive)
REMARK    1  A    between atoms: C_6  and  C_7 
REMARK    2  A    between atoms: C_7  and  C_8 
REMARK       I    between atoms: C_8  and  N_9 
REMARK    3  A    between atoms: N_9  and  C_10 
REMARK    4  A    between atoms: C_10  and  C_11 
REMARK    5  A    between atoms: C_11  and  N_12 
REMARK    6  A    between atoms: C_17  and  C_18 
REMARK    7  A    between atoms: C_21  and  C_22 
REMARK    8  A    between atoms: C_29  and  C_30 
REMARK    9  A    between atoms: C_30  and  O_31 
REMARK   10  A    between atoms: O_31  and  C_32 
REMARK   11  A    between atoms: C_32  and  C_33 
ROOT
HETATM    1  C   UNL     1     -45.217  60.432 -56.889  1.00  0.00     0.071 C 
HETATM    2  C   UNL     1     -44.956  60.532 -55.400  1.00  0.00     0.048 C 
HETATM    3  N   UNL     1     -45.427  61.700 -54.839  1.00  0.00    -0.229 NA
HETATM    4  C   UNL     1     -45.609  61.717 -53.564  1.00  0.00     0.170 C 
HETATM    5  N   UNL     1     -45.065  60.636 -52.553  1.00  0.00    -0.319 N 
HETATM    6  C   UNL     1     -45.500  60.891 -51.356  1.00  0.00     0.011 C 
HETATM    7  C   UNL     1     -44.037  59.794 -53.222  1.00  0.00     0.166 C 
HETATM    8  S   UNL     1     -46.498  62.964 -52.758  1.00  0.00    -0.086 SA
HETATM    9  C   UNL     1     -46.602  61.932 -51.275  1.00  0.00     0.135 C 
HETATM   10  C   UNL     1     -44.435  59.542 -54.641  1.00  0.00     0.069 C 
ENDROOT
BRANCH   6  11
HETATM   11  C   UNL     1     -44.976  60.253 -50.103  1.00  0.00     0.156 C 
BRANCH  11  12
HETATM   12  C   UNL     1     -44.896  61.158 -48.890  1.00  0.00     0.223 C 
HETATM   13  N   UNL     1     -45.517  60.640 -47.777  1.00  0.00    -0.359 N 
HETATM   14  H   UNL     1     -46.078  59.801 -47.910  1.00  0.00     0.162 HD
HETATM   15  O   UNL     1     -44.324  62.242 -48.899  1.00  0.00    -0.273 OA
BRANCH  13  16
HETATM   16  C   UNL     1     -45.807  61.368 -46.541  1.00  0.00     0.150 C 
BRANCH  16  17
HETATM   17  C   UNL     1     -44.719  61.354 -45.446  1.00  0.00     0.253 C 
BRANCH  17  18
HETATM   18  N   UNL     1     -44.896  62.459 -44.423  1.00  0.00    -0.077 N 
HETATM   19  H   UNL     1     -45.815  62.292 -43.967  1.00  0.00     0.279 HD
HETATM   20  C   UNL     1     -43.846  62.467 -43.346  1.00  0.00     0.269 C 
HETATM   21  C   UNL     1     -44.983  63.811 -45.082  1.00  0.00     0.269 C 
ENDBRANCH  17  18
ENDBRANCH  16  17
ENDBRANCH  13  16
ENDBRANCH  11  12
ENDBRANCH   6  11
BRANCH   7  22
HETATM   22  C   UNL     1     -43.505  58.635 -52.402  1.00  0.00    -0.030 A 
HETATM   23  C   UNL     1     -42.158  58.488 -52.043  1.00  0.00     0.010 A 
HETATM   24  C   UNL     1     -41.722  57.336 -51.373  1.00  0.00     0.008 A 
HETATM   25  C   UNL     1     -42.613  56.304 -51.046  1.00  0.00    -0.055 A 
HETATM   26  C   UNL     1     -43.968  56.483 -51.339  1.00  0.00     0.008 A 
HETATM   27  C   UNL     1     -44.407  57.629 -52.001  1.00  0.00     0.010 A 
BRANCH  25  28
HETATM   28  C   UNL     1     -42.115  55.046 -50.351  1.00  0.00     0.010 C 
HETATM   29  C   UNL     1     -42.762  53.795 -50.943  1.00  0.00     0.015 C 
HETATM   30  C   UNL     1     -40.585  54.927 -50.380  1.00  0.00     0.015 C 
ENDBRANCH  25  28
ENDBRANCH   7  22
BRANCH  10  31
HETATM   31  C   UNL     1     -44.582  58.176 -55.166  1.00  0.00     0.294 C 
HETATM   32  O   UNL     1     -45.574  57.487 -55.110  1.00  0.00    -0.259 OA
BRANCH  31  33
HETATM   33  O   UNL     1     -43.343  57.854 -55.607  1.00  0.00    -0.313 OA
BRANCH  33  34
HETATM   34  C   UNL     1     -43.227  56.638 -56.364  1.00  0.00     0.217 C 
BRANCH  34  35
HETATM   35  C   UNL     1     -42.449  55.663 -55.505  1.00  0.00    -0.034 A 
HETATM   36  C   UNL     1     -42.854  54.322 -55.390  1.00  0.00     0.009 A 
HETATM   37  C   UNL     1     -42.127  53.410 -54.623  1.00  0.00     0.001 A 
HETATM   38  C   UNL     1     -40.974  53.824 -53.964  1.00  0.00     0.000 A 
HETATM   39  C   UNL     1     -40.549  55.146 -54.080  1.00  0.00     0.001 A 
HETATM   40  C   UNL     1     -41.278  56.060 -54.847  1.00  0.00     0.009 A 
ENDBRANCH  34  35
ENDBRANCH  33  34
ENDBRANCH  31  33
ENDBRANCH  10  31
TORSDOF 11
ENDMDL
MODEL 9
REMARK VINA RESULT:      -6.4      3.547      6.899
REMARK  11 active torsions:
REMARK  status: ('A' for Active; 'I' for Inactive)
REMARK    1  A    between atoms: C_6  and  C_7 
REMARK    2  A    between atoms: C_7  and  C_8 
REMARK       I    between atoms: C_8  and  N_9 
REMARK    3  A    between atoms: N_9  and  C_10 
REMARK    4  A    between atoms: C_10  and  C_11 
REMARK    5  A    between atoms: C_11  and  N_12 
REMARK    6  A    between atoms: C_17  and  C_18 
REMARK    7  A    between atoms: C_21  and  C_22 
REMARK    8  A    between atoms: C_29  and  C_30 
REMARK    9  A    between atoms: C_30  and  O_31 
REMARK   10  A    between atoms: O_31  and  C_32 
REMARK   11  A    between atoms: C_32  and  C_33 
ROOT
HETATM    1  C   UNL     1     -40.848  59.924 -50.211  1.00  0.00     0.071 C 
HETATM    2  C   UNL     1     -41.251  58.732 -51.054  1.00  0.00     0.048 C 
HETATM    3  N   UNL     1     -41.087  57.525 -50.408  1.00  0.00    -0.229 NA
HETATM    4  C   UNL     1     -41.743  56.513 -50.860  1.00  0.00     0.170 C 
HETATM    5  N   UNL     1     -42.477  56.455 -52.254  1.00  0.00    -0.319 N 
HETATM    6  C   UNL     1     -43.122  55.334 -52.369  1.00  0.00     0.011 C 
HETATM    7  C   UNL     1     -42.025  57.587 -53.108  1.00  0.00     0.166 C 
HETATM    8  S   UNL     1     -41.912  55.033 -49.981  1.00  0.00    -0.086 SA
HETATM    9  C   UNL     1     -43.249  54.526 -51.091  1.00  0.00     0.135 C 
HETATM   10  C   UNL     1     -41.836  58.810 -52.269  1.00  0.00     0.069 C 
ENDROOT
BRANCH   6  11
HETATM   11  C   UNL     1     -43.701  54.809 -53.650  1.00  0.00     0.156 C 
BRANCH  11  12
HETATM   12  C   UNL     1     -42.725  54.103 -54.571  1.00  0.00     0.223 C 
HETATM   13  N   UNL     1     -41.789  53.348 -53.905  1.00  0.00    -0.359 N 
HETATM   14  H   UNL     1     -41.749  53.450 -52.893  1.00  0.00     0.162 HD
HETATM   15  O   UNL     1     -42.774  54.193 -55.794  1.00  0.00    -0.273 OA
BRANCH  13  16
HETATM   16  C   UNL     1     -40.592  52.748 -54.497  1.00  0.00     0.150 C 
BRANCH  16  17
HETATM   17  C   UNL     1     -40.393  51.231 -54.295  1.00  0.00     0.253 C 
BRANCH  17  18
HETATM   18  N   UNL     1     -39.441  50.906 -53.159  1.00  0.00    -0.077 N 
HETATM   19  H   UNL     1     -38.481  50.998 -53.547  1.00  0.00     0.279 HD
HETATM   20  C   UNL     1     -39.552  51.840 -51.985  1.00  0.00     0.269 C 
HETATM   21  C   UNL     1     -39.589  49.477 -52.709  1.00  0.00     0.269 C 
ENDBRANCH  17  18
ENDBRANCH  16  17
ENDBRANCH  13  16
ENDBRANCH  11  12
ENDBRANCH   6  11
BRANCH   7  22
HETATM   22  C   UNL     1     -42.733  57.725 -54.441  1.00  0.00    -0.030 A 
HETATM   23  C   UNL     1     -44.114  57.924 -54.574  1.00  0.00     0.010 A 
HETATM   24  C   UNL     1     -44.713  57.938 -55.842  1.00  0.00     0.008 A 
HETATM   25  C   UNL     1     -43.955  57.752 -57.006  1.00  0.00    -0.055 A 
HETATM   26  C   UNL     1     -42.569  57.626 -56.878  1.00  0.00     0.008 A 
HETATM   27  C   UNL     1     -41.968  57.616 -55.620  1.00  0.00     0.010 A 
BRANCH  25  28
HETATM   28  C   UNL     1     -44.627  57.735 -58.371  1.00  0.00     0.010 C 
HETATM   29  C   UNL     1     -44.347  56.425 -59.107  1.00  0.00     0.015 C 
HETATM   30  C   UNL     1     -46.138  57.992 -58.283  1.00  0.00     0.015 C 
ENDBRANCH  25  28
ENDBRANCH   7  22
BRANCH  10  31
HETATM   31  C   UNL     1     -42.548  60.063 -52.568  1.00  0.00     0.294 C 
HETATM   32  O   UNL     1     -42.138  60.980 -53.239  1.00  0.00    -0.259 OA
BRANCH  31  33
HETATM   33  O   UNL     1     -43.684  59.982 -51.834  1.00  0.00    -0.313 OA
BRANCH  33  34
HETATM   34  C   UNL     1     -44.637  61.042 -52.010  1.00  0.00     0.217 C 
BRANCH  34  35
HETATM   35  C   UNL     1     -45.062  61.479 -50.623  1.00  0.00    -0.034 A 
HETATM   36  C   UNL     1     -46.233  62.234 -50.434  1.00  0.00     0.009 A 
HETATM   37  C   UNL     1     -46.647  62.617 -49.156  1.00  0.00     0.001 A 
HETATM   38  C   UNL     1     -45.901  62.241 -48.045  1.00  0.00     0.000 A 
HETATM   39  C   UNL     1     -44.747  61.478 -48.213  1.00  0.00     0.001 A 
HETATM   40  C   UNL     1     -44.330  61.096 -49.493  1.00  0.00     0.009 A 
ENDBRANCH  34  35
ENDBRANCH  33  34
ENDBRANCH  31  33
ENDBRANCH  10  31
TORSDOF 11
ENDMDL
MODEL 10
REMARK VINA RESULT:      -6.2      3.548      6.316
REMARK  11 active torsions:
REMARK  status: ('A' for Active; 'I' for Inactive)
REMARK    1  A    between atoms: C_6  and  C_7 
REMARK    2  A    between atoms: C_7  and  C_8 
REMARK       I    between atoms: C_8  and  N_9 
REMARK    3  A    between atoms: N_9  and  C_10 
REMARK    4  A    between atoms: C_10  and  C_11 
REMARK    5  A    between atoms: C_11  and  N_12 
REMARK    6  A    between atoms: C_17  and  C_18 
REMARK    7  A    between atoms: C_21  and  C_22 
REMARK    8  A    between atoms: C_29  and  C_30 
REMARK    9  A    between atoms: C_30  and  O_31 
REMARK   10  A    between atoms: O_31  and  C_32 
REMARK   11  A    between atoms: C_32  and  C_33 
ROOT
HETATM    1  C   UNL     1     -43.271  55.253 -50.552  1.00  0.00     0.071 C 
HETATM    2  C   UNL     1     -43.821  56.333 -51.459  1.00  0.00     0.048 C 
HETATM    3  N   UNL     1     -44.783  57.116 -50.857  1.00  0.00    -0.229 NA
HETATM    4  C   UNL     1     -45.025  58.269 -51.379  1.00  0.00     0.170 C 
HETATM    5  N   UNL     1     -44.544  58.741 -52.805  1.00  0.00    -0.319 N 
HETATM    6  C   UNL     1     -44.870  59.984 -52.993  1.00  0.00     0.011 C 
HETATM    7  C   UNL     1     -44.074  57.569 -53.591  1.00  0.00     0.166 C 
HETATM    8  S   UNL     1     -45.939  59.494 -50.569  1.00  0.00    -0.086 SA
HETATM    9  C   UNL     1     -45.343  60.724 -51.755  1.00  0.00     0.135 C 
HETATM   10  C   UNL     1     -43.350  56.615 -52.695  1.00  0.00     0.069 C 
ENDROOT
BRANCH   6  11
HETATM   11  C   UNL     1     -44.827  60.686 -54.318  1.00  0.00     0.156 C 
BRANCH  11  12
HETATM   12  C   UNL     1     -45.706  61.916 -54.439  1.00  0.00     0.223 C 
HETATM   13  N   UNL     1     -47.047  61.624 -54.532  1.00  0.00    -0.359 N 
HETATM   14  H   UNL     1     -47.299  60.646 -54.656  1.00  0.00     0.162 HD
HETATM   15  O   UNL     1     -45.262  63.059 -54.444  1.00  0.00    -0.273 OA
BRANCH  13  16
HETATM   16  C   UNL     1     -48.106  62.569 -54.887  1.00  0.00     0.150 C 
BRANCH  16  17
HETATM   17  C   UNL     1     -49.426  62.477 -54.093  1.00  0.00     0.253 C 
BRANCH  17  18
HETATM   18  N   UNL     1     -50.492  61.671 -54.810  1.00  0.00    -0.077 N 
HETATM   19  H   UNL     1     -50.339  60.678 -54.542  1.00  0.00     0.279 HD
HETATM   20  C   UNL     1     -51.898  62.038 -54.423  1.00  0.00     0.269 C 
HETATM   21  C   UNL     1     -50.324  61.742 -56.305  1.00  0.00     0.269 C 
ENDBRANCH  17  18
ENDBRANCH  16  17
ENDBRANCH  13  16
ENDBRANCH  11  12
ENDBRANCH   6  11
BRANCH   7  22
HETATM   22  C   UNL     1     -43.474  57.887 -54.946  1.00  0.00    -0.030 A 
HETATM   23  C   UNL     1     -42.467  58.840 -55.148  1.00  0.00     0.010 A 
HETATM   24  C   UNL     1     -42.035  59.154 -56.445  1.00  0.00     0.008 A 
HETATM   25  C   UNL     1     -42.594  58.531 -57.569  1.00  0.00    -0.055 A 
HETATM   26  C   UNL     1     -43.547  57.529 -57.363  1.00  0.00     0.008 A 
HETATM   27  C   UNL     1     -43.977  57.210 -56.075  1.00  0.00     0.010 A 
BRANCH  25  28
HETATM   28  C   UNL     1     -42.138  58.911 -58.970  1.00  0.00     0.010 C 
HETATM   29  C   UNL     1     -42.932  58.153 -60.034  1.00  0.00     0.015 C 
HETATM   30  C   UNL     1     -42.210  60.424 -59.219  1.00  0.00     0.015 C 
ENDBRANCH  25  28
ENDBRANCH   7  22
BRANCH  10  31
HETATM   31  C   UNL     1     -41.965  56.203 -52.971  1.00  0.00     0.294 C 
HETATM   32  O   UNL     1     -40.966  56.849 -52.756  1.00  0.00    -0.259 OA
BRANCH  31  33
HETATM   33  O   UNL     1     -42.093  55.015 -53.608  1.00  0.00    -0.313 OA
BRANCH  33  34
HETATM   34  C   UNL     1     -40.948  54.555 -54.344  1.00  0.00     0.217 C 
BRANCH  34  35
HETATM   35  C   UNL     1     -40.489  53.274 -53.680  1.00  0.00    -0.034 A 
HETATM   36  C   UNL     1     -40.178  52.137 -54.446  1.00  0.00     0.009 A 
HETATM   37  C   UNL     1     -39.727  50.960 -53.844  1.00  0.00     0.001 A 
HETATM   38  C   UNL     1     -39.570  50.906 -52.462  1.00  0.00     0.000 A 
HETATM   39  C   UNL     1     -39.858  52.029 -51.689  1.00  0.00     0.001 A 
HETATM   40  C   UNL     1     -40.312  53.207 -52.292  1.00  0.00     0.009 A 
ENDBRANCH  34  35
ENDBRANCH  33  34
ENDBRANCH  31  33
ENDBRANCH  10  31
TORSDOF 11
ENDMDL
