MODEL 1
REMARK VINA RESULT:      -7.6      0.000      0.000
REMARK  9 active torsions:
REMARK  status: ('A' for Active; 'I' for Inactive)
REMARK    1  A    between atoms: C_2  and  C_3 
REMARK    2  A    between atoms: C_3  and  O_4 
REMARK    3  A    between atoms: C_3  and  C_5 
REMARK    4  A    between atoms: C_5  and  N_6 
REMARK    5  A    between atoms: N_6  and  C_8 
REMARK    6  A    between atoms: N_6  and  C_21 
REMARK    7  A    between atoms: C_8  and  C_9 
REMARK    8  A    between atoms: C_10  and  C_11 
REMARK    9  A    between atoms: C_21  and  C_22 
ROOT
HETATM    1  N   UNL     1     -42.278  53.925 -52.192  1.00  0.00    -0.061 N 
HETATM    2  H   UNL     1     -42.587  52.953 -52.112  1.00  0.00     0.280 HD
ENDROOT
BRANCH   1   3
HETATM    3  C   UNL     1     -42.246  54.463 -50.769  1.00  0.00     0.267 C 
BRANCH   3   4
HETATM    4  C   UNL     1     -41.034  55.365 -50.439  1.00  0.00     0.143 C 
BRANCH   4   5
HETATM    5  C   UNL     1     -39.947  54.723 -49.572  1.00  0.00     0.029 C 
HETATM    6  C   UNL     1     -40.494  53.939 -48.391  1.00  0.00     0.007 C 
ENDBRANCH   4   5
BRANCH   4   7
HETATM    7  O   UNL     1     -41.492  56.554 -49.794  1.00  0.00    -0.394 OA
HETATM    8  H   UNL     1     -42.287  56.869 -50.268  1.00  0.00     0.210 HD
ENDBRANCH   4   7
ENDBRANCH   3   4
ENDBRANCH   1   3
BRANCH   1   9
HETATM    9  C   UNL     1     -43.278  54.562 -53.138  1.00  0.00     0.277 C 
BRANCH   9  10
HETATM   10  C   UNL     1     -42.824  55.106 -54.447  1.00  0.00     0.016 A 
HETATM   11  C   UNL     1     -42.260  56.413 -54.651  1.00  0.00     0.096 A 
HETATM   12  N   UNL     1     -42.009  56.632 -55.947  1.00  0.00    -0.174 NA
HETATM   13  N   UNL     1     -42.307  55.486 -56.558  1.00  0.00    -0.288 N 
HETATM   14  H   UNL     1     -42.144  55.420 -57.559  1.00  0.00     0.188 HD
HETATM   15  C   UNL     1     -42.824  54.546 -55.712  1.00  0.00     0.120 A 
BRANCH  11  16
HETATM   16  C   UNL     1     -41.992  57.458 -53.663  1.00  0.00    -0.005 A 
HETATM   17  C   UNL     1     -43.038  58.128 -53.014  1.00  0.00     0.014 A 
HETATM   18  C   UNL     1     -42.760  59.131 -52.081  1.00  0.00     0.001 A 
HETATM   19  C   UNL     1     -41.440  59.461 -51.781  1.00  0.00     0.000 A 
HETATM   20  C   UNL     1     -40.394  58.786 -52.405  1.00  0.00     0.001 A 
HETATM   21  C   UNL     1     -40.667  57.786 -53.340  1.00  0.00     0.014 A 
ENDBRANCH  11  16
ENDBRANCH   9  10
ENDBRANCH   1   9
BRANCH   1  22
HETATM   22  C   UNL     1     -40.904  53.846 -52.826  1.00  0.00     0.273 C 
BRANCH  22  23
HETATM   23  C   UNL     1     -40.404  52.432 -52.974  1.00  0.00    -0.033 A 
HETATM   24  C   UNL     1     -40.502  51.763 -54.204  1.00  0.00     0.009 A 
HETATM   25  C   UNL     1     -40.073  50.439 -54.324  1.00  0.00     0.001 A 
HETATM   26  C   UNL     1     -39.538  49.776 -53.222  1.00  0.00     0.000 A 
HETATM   27  C   UNL     1     -39.425  50.433 -52.000  1.00  0.00     0.001 A 
HETATM   28  C   UNL     1     -39.854  51.755 -51.874  1.00  0.00     0.009 A 
ENDBRANCH  22  23
ENDBRANCH   1  22
TORSDOF 9
ENDMDL
MODEL 2
REMARK VINA RESULT:      -7.3      2.032      5.467
REMARK  9 active torsions:
REMARK  status: ('A' for Active; 'I' for Inactive)
REMARK    1  A    between atoms: C_2  and  C_3 
REMARK    2  A    between atoms: C_3  and  O_4 
REMARK    3  A    between atoms: C_3  and  C_5 
REMARK    4  A    between atoms: C_5  and  N_6 
REMARK    5  A    between atoms: N_6  and  C_8 
REMARK    6  A    between atoms: N_6  and  C_21 
REMARK    7  A    between atoms: C_8  and  C_9 
REMARK    8  A    between atoms: C_10  and  C_11 
REMARK    9  A    between atoms: C_21  and  C_22 
ROOT
HETATM    1  N   UNL     1     -43.141  56.794 -51.965  1.00  0.00    -0.061 N 
HETATM    2  H   UNL     1     -42.258  56.809 -52.483  1.00  0.00     0.280 HD
ENDROOT
BRANCH   1   3
HETATM    3  C   UNL     1     -43.131  58.047 -51.102  1.00  0.00     0.267 C 
BRANCH   3   4
HETATM    4  C   UNL     1     -41.795  58.826 -51.099  1.00  0.00     0.143 C 
BRANCH   4   5
HETATM    5  C   UNL     1     -40.698  58.261 -52.006  1.00  0.00     0.029 C 
HETATM    6  C   UNL     1     -40.677  58.879 -53.394  1.00  0.00     0.007 C 
ENDBRANCH   4   5
BRANCH   4   7
HETATM    7  O   UNL     1     -41.294  58.896 -49.764  1.00  0.00    -0.394 OA
HETATM    8  H   UNL     1     -40.349  59.147 -49.808  1.00  0.00     0.210 HD
ENDBRANCH   4   7
ENDBRANCH   3   4
ENDBRANCH   1   3
BRANCH   1   9
HETATM    9  C   UNL     1     -43.127  55.464 -51.234  1.00  0.00     0.277 C 
BRANCH   9  10
HETATM   10  C   UNL     1     -41.901  55.023 -50.514  1.00  0.00     0.016 A 
HETATM   11  C   UNL     1     -40.771  54.373 -51.122  1.00  0.00     0.096 A 
HETATM   12  N   UNL     1     -39.854  54.044 -50.204  1.00  0.00    -0.174 NA
HETATM   13  N   UNL     1     -40.316  54.540 -49.056  1.00  0.00    -0.288 N 
HETATM   14  H   UNL     1     -39.742  54.438 -48.224  1.00  0.00     0.188 HD
HETATM   15  C   UNL     1     -41.550  55.113 -49.179  1.00  0.00     0.120 A 
BRANCH  11  16
HETATM   16  C   UNL     1     -40.561  54.028 -52.528  1.00  0.00    -0.005 A 
HETATM   17  C   UNL     1     -40.564  52.693 -52.954  1.00  0.00     0.014 A 
HETATM   18  C   UNL     1     -40.350  52.384 -54.301  1.00  0.00     0.001 A 
HETATM   19  C   UNL     1     -40.147  53.404 -55.229  1.00  0.00     0.000 A 
HETATM   20  C   UNL     1     -40.164  54.734 -54.818  1.00  0.00     0.001 A 
HETATM   21  C   UNL     1     -40.373  55.047 -53.473  1.00  0.00     0.014 A 
ENDBRANCH  11  16
ENDBRANCH   9  10
ENDBRANCH   1   9
BRANCH   1  22
HETATM   22  C   UNL     1     -44.218  56.816 -53.032  1.00  0.00     0.273 C 
BRANCH  22  23
HETATM   23  C   UNL     1     -43.778  56.181 -54.326  1.00  0.00    -0.033 A 
HETATM   24  C   UNL     1     -43.291  56.968 -55.381  1.00  0.00     0.009 A 
HETATM   25  C   UNL     1     -42.921  56.377 -56.590  1.00  0.00     0.001 A 
HETATM   26  C   UNL     1     -43.028  54.998 -56.756  1.00  0.00     0.000 A 
HETATM   27  C   UNL     1     -43.498  54.206 -55.712  1.00  0.00     0.001 A 
HETATM   28  C   UNL     1     -43.871  54.791 -54.501  1.00  0.00     0.009 A 
ENDBRANCH  22  23
ENDBRANCH   1  22
TORSDOF 9
ENDMDL
MODEL 3
REMARK VINA RESULT:      -7.2     14.327     16.677
REMARK  9 active torsions:
REMARK  status: ('A' for Active; 'I' for Inactive)
REMARK    1  A    between atoms: C_2  and  C_3 
REMARK    2  A    between atoms: C_3  and  O_4 
REMARK    3  A    between atoms: C_3  and  C_5 
REMARK    4  A    between atoms: C_5  and  N_6 
REMARK    5  A    between atoms: N_6  and  C_8 
REMARK    6  A    between atoms: N_6  and  C_21 
REMARK    7  A    between atoms: C_8  and  C_9 
REMARK    8  A    between atoms: C_10  and  C_11 
REMARK    9  A    between atoms: C_21  and  C_22 
ROOT
HETATM    1  N   UNL     1     -36.324  41.247 -54.492  1.00  0.00    -0.061 N 
HETATM    2  H   UNL     1     -35.892  41.941 -55.109  1.00  0.00     0.280 HD
ENDROOT
BRANCH   1   3
HETATM    3  C   UNL     1     -36.465  41.933 -53.141  1.00  0.00     0.267 C 
BRANCH   3   4
HETATM    4  C   UNL     1     -35.184  41.936 -52.275  1.00  0.00     0.143 C 
BRANCH   4   5
HETATM    5  C   UNL     1     -35.324  41.313 -50.883  1.00  0.00     0.029 C 
HETATM    6  C   UNL     1     -35.661  39.831 -50.910  1.00  0.00     0.007 C 
ENDBRANCH   4   5
BRANCH   4   7
HETATM    7  O   UNL     1     -34.715  43.277 -52.131  1.00  0.00    -0.394 OA
HETATM    8  H   UNL     1     -35.335  43.867 -52.604  1.00  0.00     0.210 HD
ENDBRANCH   4   7
ENDBRANCH   3   4
ENDBRANCH   1   3
BRANCH   1   9
HETATM    9  C   UNL     1     -35.391  40.053 -54.555  1.00  0.00     0.277 C 
BRANCH   9  10
HETATM   10  C   UNL     1     -34.071  40.173 -55.233  1.00  0.00     0.016 A 
HETATM   11  C   UNL     1     -32.794  39.980 -54.601  1.00  0.00     0.096 A 
HETATM   12  N   UNL     1     -31.793  40.219 -55.457  1.00  0.00    -0.174 NA
HETATM   13  N   UNL     1     -32.385  40.467 -56.625  1.00  0.00    -0.288 N 
HETATM   14  H   UNL     1     -31.795  40.633 -57.436  1.00  0.00     0.188 HD
HETATM   15  C   UNL     1     -33.748  40.478 -56.543  1.00  0.00     0.120 A 
BRANCH  11  16
HETATM   16  C   UNL     1     -32.505  39.615 -53.215  1.00  0.00    -0.005 A 
HETATM   17  C   UNL     1     -32.021  40.562 -52.302  1.00  0.00     0.014 A 
HETATM   18  C   UNL     1     -31.741  40.191 -50.984  1.00  0.00     0.001 A 
HETATM   19  C   UNL     1     -31.955  38.879 -50.566  1.00  0.00     0.000 A 
HETATM   20  C   UNL     1     -32.457  37.936 -51.460  1.00  0.00     0.001 A 
HETATM   21  C   UNL     1     -32.734  38.302 -52.779  1.00  0.00     0.014 A 
ENDBRANCH  11  16
ENDBRANCH   9  10
ENDBRANCH   1   9
BRANCH   1  22
HETATM   22  C   UNL     1     -37.658  40.931 -55.138  1.00  0.00     0.273 C 
BRANCH  22  23
HETATM   23  C   UNL     1     -37.617  41.014 -56.643  1.00  0.00    -0.033 A 
HETATM   24  C   UNL     1     -38.132  39.973 -57.432  1.00  0.00     0.009 A 
HETATM   25  C   UNL     1     -38.056  40.039 -58.824  1.00  0.00     0.001 A 
HETATM   26  C   UNL     1     -37.474  41.144 -59.441  1.00  0.00     0.000 A 
HETATM   27  C   UNL     1     -36.971  42.188 -58.669  1.00  0.00     0.001 A 
HETATM   28  C   UNL     1     -37.042  42.127 -57.276  1.00  0.00     0.009 A 
ENDBRANCH  22  23
ENDBRANCH   1  22
TORSDOF 9
ENDMDL
MODEL 4
REMARK VINA RESULT:      -7.2      3.030      5.693
REMARK  9 active torsions:
REMARK  status: ('A' for Active; 'I' for Inactive)
REMARK    1  A    between atoms: C_2  and  C_3 
REMARK    2  A    between atoms: C_3  and  O_4 
REMARK    3  A    between atoms: C_3  and  C_5 
REMARK    4  A    between atoms: C_5  and  N_6 
REMARK    5  A    between atoms: N_6  and  C_8 
REMARK    6  A    between atoms: N_6  and  C_21 
REMARK    7  A    between atoms: C_8  and  C_9 
REMARK    8  A    between atoms: C_10  and  C_11 
REMARK    9  A    between atoms: C_21  and  C_22 
ROOT
HETATM    1  N   UNL     1     -43.411  57.377 -54.983  1.00  0.00    -0.061 N 
HETATM    2  H   UNL     1     -42.408  57.438 -54.791  1.00  0.00     0.280 HD
ENDROOT
BRANCH   1   3
HETATM    3  C   UNL     1     -43.606  58.018 -56.350  1.00  0.00     0.267 C 
BRANCH   3   4
HETATM    4  C   UNL     1     -43.773  57.020 -57.520  1.00  0.00     0.143 C 
BRANCH   4   5
HETATM    5  C   UNL     1     -42.747  57.147 -58.650  1.00  0.00     0.029 C 
HETATM    6  C   UNL     1     -42.745  55.967 -59.607  1.00  0.00     0.007 C 
ENDBRANCH   4   5
BRANCH   4   7
HETATM    7  O   UNL     1     -45.082  57.156 -58.073  1.00  0.00    -0.394 OA
HETATM    8  H   UNL     1     -45.719  56.765 -57.442  1.00  0.00     0.210 HD
ENDBRANCH   4   7
ENDBRANCH   3   4
ENDBRANCH   1   3
BRANCH   1   9
HETATM    9  C   UNL     1     -44.064  58.075 -53.805  1.00  0.00     0.277 C 
BRANCH   9  10
HETATM   10  C   UNL     1     -43.222  58.760 -52.786  1.00  0.00     0.016 A 
HETATM   11  C   UNL     1     -42.502  58.103 -51.728  1.00  0.00     0.096 A 
HETATM   12  N   UNL     1     -41.890  58.993 -50.938  1.00  0.00    -0.174 NA
HETATM   13  N   UNL     1     -42.119  60.177 -51.504  1.00  0.00    -0.288 N 
HETATM   14  H   UNL     1     -41.699  61.000 -51.081  1.00  0.00     0.188 HD
HETATM   15  C   UNL     1     -42.933  60.099 -52.599  1.00  0.00     0.120 A 
BRANCH  11  16
HETATM   16  C   UNL     1     -42.414  56.673 -51.432  1.00  0.00    -0.005 A 
HETATM   17  C   UNL     1     -43.564  55.910 -51.190  1.00  0.00     0.014 A 
HETATM   18  C   UNL     1     -43.456  54.547 -50.898  1.00  0.00     0.001 A 
HETATM   19  C   UNL     1     -42.204  53.936 -50.861  1.00  0.00     0.000 A 
HETATM   20  C   UNL     1     -41.057  54.682 -51.122  1.00  0.00     0.001 A 
HETATM   21  C   UNL     1     -41.160  56.044 -51.410  1.00  0.00     0.014 A 
ENDBRANCH  11  16
ENDBRANCH   9  10
ENDBRANCH   1   9
BRANCH   1  22
HETATM   22  C   UNL     1     -43.720  55.893 -54.975  1.00  0.00     0.273 C 
BRANCH  22  23
HETATM   23  C   UNL     1     -42.490  55.038 -54.809  1.00  0.00    -0.033 A 
HETATM   24  C   UNL     1     -41.210  55.574 -55.022  1.00  0.00     0.009 A 
HETATM   25  C   UNL     1     -40.077  54.767 -54.904  1.00  0.00     0.001 A 
HETATM   26  C   UNL     1     -40.210  53.421 -54.569  1.00  0.00     0.000 A 
HETATM   27  C   UNL     1     -41.473  52.881 -54.344  1.00  0.00     0.001 A 
HETATM   28  C   UNL     1     -42.609  53.683 -54.462  1.00  0.00     0.009 A 
ENDBRANCH  22  23
ENDBRANCH   1  22
TORSDOF 9
ENDMDL
MODEL 5
REMARK VINA RESULT:      -7.2      1.928      3.837
REMARK  9 active torsions:
REMARK  status: ('A' for Active; 'I' for Inactive)
REMARK    1  A    between atoms: C_2  and  C_3 
REMARK    2  A    between atoms: C_3  and  O_4 
REMARK    3  A    between atoms: C_3  and  C_5 
REMARK    4  A    between atoms: C_5  and  N_6 
REMARK    5  A    between atoms: N_6  and  C_8 
REMARK    6  A    between atoms: N_6  and  C_21 
REMARK    7  A    between atoms: C_8  and  C_9 
REMARK    8  A    between atoms: C_10  and  C_11 
REMARK    9  A    between atoms: C_21  and  C_22 
ROOT
HETATM    1  N   UNL     1     -42.471  55.209 -53.826  1.00  0.00    -0.061 N 
HETATM    2  H   UNL     1     -41.573  55.573 -53.495  1.00  0.00     0.280 HD
ENDROOT
BRANCH   1   3
HETATM    3  C   UNL     1     -42.141  54.327 -55.021  1.00  0.00     0.267 C 
BRANCH   3   4
HETATM    4  C   UNL     1     -40.636  54.035 -55.220  1.00  0.00     0.143 C 
BRANCH   4   5
HETATM    5  C   UNL     1     -40.016  53.048 -54.227  1.00  0.00     0.029 C 
HETATM    6  C   UNL     1     -40.591  51.645 -54.324  1.00  0.00     0.007 C 
ENDBRANCH   4   5
BRANCH   4   7
HETATM    7  O   UNL     1     -39.905  55.261 -55.163  1.00  0.00    -0.394 OA
HETATM    8  H   UNL     1     -40.204  55.754 -54.373  1.00  0.00     0.210 HD
ENDBRANCH   4   7
ENDBRANCH   3   4
ENDBRANCH   1   3
BRANCH   1   9
HETATM    9  C   UNL     1     -43.301  56.449 -54.103  1.00  0.00     0.277 C 
BRANCH   9  10
HETATM   10  C   UNL     1     -42.732  57.560 -54.913  1.00  0.00     0.016 A 
HETATM   11  C   UNL     1     -41.982  58.670 -54.388  1.00  0.00     0.096 A 
HETATM   12  N   UNL     1     -41.660  59.535 -55.358  1.00  0.00    -0.174 NA
HETATM   13  N   UNL     1     -42.097  58.973 -56.485  1.00  0.00    -0.288 N 
HETATM   14  H   UNL     1     -41.913  59.452 -57.362  1.00  0.00     0.188 HD
HETATM   15  C   UNL     1     -42.770  57.802 -56.275  1.00  0.00     0.120 A 
BRANCH  11  16
HETATM   16  C   UNL     1     -41.601  58.943 -53.003  1.00  0.00    -0.005 A 
HETATM   17  C   UNL     1     -42.534  59.432 -52.078  1.00  0.00     0.014 A 
HETATM   18  C   UNL     1     -42.147  59.697 -50.761  1.00  0.00     0.001 A 
HETATM   19  C   UNL     1     -40.833  59.463 -50.357  1.00  0.00     0.000 A 
HETATM   20  C   UNL     1     -39.905  58.957 -51.264  1.00  0.00     0.001 A 
HETATM   21  C   UNL     1     -40.287  58.695 -52.581  1.00  0.00     0.014 A 
ENDBRANCH  11  16
ENDBRANCH   9  10
ENDBRANCH   1   9
BRANCH   1  22
HETATM   22  C   UNL     1     -43.031  54.431 -52.652  1.00  0.00     0.273 C 
BRANCH  22  23
HETATM   23  C   UNL     1     -42.170  54.525 -51.419  1.00  0.00    -0.033 A 
HETATM   24  C   UNL     1     -42.082  55.726 -50.697  1.00  0.00     0.009 A 
HETATM   25  C   UNL     1     -41.252  55.817 -49.578  1.00  0.00     0.001 A 
HETATM   26  C   UNL     1     -40.509  54.713 -49.166  1.00  0.00     0.000 A 
HETATM   27  C   UNL     1     -40.598  53.513 -49.867  1.00  0.00     0.001 A 
HETATM   28  C   UNL     1     -41.424  53.417 -50.988  1.00  0.00     0.009 A 
ENDBRANCH  22  23
ENDBRANCH   1  22
TORSDOF 9
ENDMDL
MODEL 6
REMARK VINA RESULT:      -7.1      2.304      6.242
REMARK  9 active torsions:
REMARK  status: ('A' for Active; 'I' for Inactive)
REMARK    1  A    between atoms: C_2  and  C_3 
REMARK    2  A    between atoms: C_3  and  O_4 
REMARK    3  A    between atoms: C_3  and  C_5 
REMARK    4  A    between atoms: C_5  and  N_6 
REMARK    5  A    between atoms: N_6  and  C_8 
REMARK    6  A    between atoms: N_6  and  C_21 
REMARK    7  A    between atoms: C_8  and  C_9 
REMARK    8  A    between atoms: C_10  and  C_11 
REMARK    9  A    between atoms: C_21  and  C_22 
ROOT
HETATM    1  N   UNL     1     -41.574  57.440 -54.792  1.00  0.00    -0.061 N 
HETATM    2  H   UNL     1     -40.872  57.458 -55.537  1.00  0.00     0.280 HD
ENDROOT
BRANCH   1   3
HETATM    3  C   UNL     1     -41.462  58.785 -54.090  1.00  0.00     0.267 C 
BRANCH   3   4
HETATM    4  C   UNL     1     -40.687  58.760 -52.752  1.00  0.00     0.143 C 
BRANCH   4   5
HETATM    5  C   UNL     1     -41.314  59.564 -51.609  1.00  0.00     0.029 C 
HETATM    6  C   UNL     1     -40.472  59.581 -50.344  1.00  0.00     0.007 C 
ENDBRANCH   4   5
BRANCH   4   7
HETATM    7  O   UNL     1     -39.357  59.231 -52.967  1.00  0.00    -0.394 OA
HETATM    8  H   UNL     1     -38.742  58.616 -52.520  1.00  0.00     0.210 HD
ENDBRANCH   4   7
ENDBRANCH   3   4
ENDBRANCH   1   3
BRANCH   1   9
HETATM    9  C   UNL     1     -41.222  56.213 -53.972  1.00  0.00     0.277 C 
BRANCH   9  10
HETATM   10  C   UNL     1     -42.228  55.618 -53.051  1.00  0.00     0.016 A 
HETATM   11  C   UNL     1     -42.225  54.257 -52.586  1.00  0.00     0.096 A 
HETATM   12  N   UNL     1     -43.294  54.007 -51.820  1.00  0.00    -0.174 NA
HETATM   13  N   UNL     1     -43.924  55.177 -51.709  1.00  0.00    -0.288 N 
HETATM   14  H   UNL     1     -44.752  55.221 -51.123  1.00  0.00     0.188 HD
HETATM   15  C   UNL     1     -43.344  56.170 -52.447  1.00  0.00     0.120 A 
BRANCH  11  16
HETATM   16  C   UNL     1     -41.265  53.193 -52.878  1.00  0.00    -0.005 A 
HETATM   17  C   UNL     1     -41.214  52.589 -54.141  1.00  0.00     0.014 A 
HETATM   18  C   UNL     1     -40.296  51.566 -54.396  1.00  0.00     0.001 A 
HETATM   19  C   UNL     1     -39.415  51.151 -53.398  1.00  0.00     0.000 A 
HETATM   20  C   UNL     1     -39.444  51.761 -52.147  1.00  0.00     0.001 A 
HETATM   21  C   UNL     1     -40.362  52.780 -51.886  1.00  0.00     0.014 A 
ENDBRANCH  11  16
ENDBRANCH   9  10
ENDBRANCH   1   9
BRANCH   1  22
HETATM   22  C   UNL     1     -42.896  57.253 -55.509  1.00  0.00     0.273 C 
BRANCH  22  23
HETATM   23  C   UNL     1     -42.741  57.117 -57.002  1.00  0.00    -0.033 A 
HETATM   24  C   UNL     1     -43.105  55.928 -57.655  1.00  0.00     0.009 A 
HETATM   25  C   UNL     1     -42.923  55.794 -59.032  1.00  0.00     0.001 A 
HETATM   26  C   UNL     1     -42.384  56.845 -59.771  1.00  0.00     0.000 A 
HETATM   27  C   UNL     1     -42.031  58.033 -59.137  1.00  0.00     0.001 A 
HETATM   28  C   UNL     1     -42.209  58.172 -57.760  1.00  0.00     0.009 A 
ENDBRANCH  22  23
ENDBRANCH   1  22
TORSDOF 9
ENDMDL
MODEL 7
REMARK VINA RESULT:      -7.1     14.279     16.540
REMARK  9 active torsions:
REMARK  status: ('A' for Active; 'I' for Inactive)
REMARK    1  A    between atoms: C_2  and  C_3 
REMARK    2  A    between atoms: C_3  and  O_4 
REMARK    3  A    between atoms: C_3  and  C_5 
REMARK    4  A    between atoms: C_5  and  N_6 
REMARK    5  A    between atoms: N_6  and  C_8 
REMARK    6  A    between atoms: N_6  and  C_21 
REMARK    7  A    between atoms: C_8  and  C_9 
REMARK    8  A    between atoms: C_10  and  C_11 
REMARK    9  A    between atoms: C_21  and  C_22 
ROOT
HETATM    1  N   UNL     1     -35.991  41.806 -55.246  1.00  0.00    -0.061 N 
HETATM    2  H   UNL     1     -36.067  40.786 -55.234  1.00  0.00     0.280 HD
ENDROOT
BRANCH   1   3
HETATM    3  C   UNL     1     -34.668  42.109 -55.935  1.00  0.00     0.267 C 
BRANCH   3   4
HETATM    4  C   UNL     1     -33.658  40.938 -55.950  1.00  0.00     0.143 C 
BRANCH   4   5
HETATM    5  C   UNL     1     -34.271  39.535 -55.989  1.00  0.00     0.029 C 
HETATM    6  C   UNL     1     -34.513  39.015 -57.396  1.00  0.00     0.007 C 
ENDBRANCH   4   5
BRANCH   4   7
HETATM    7  O   UNL     1     -32.807  41.034 -54.807  1.00  0.00    -0.394 OA
HETATM    8  H   UNL     1     -32.209  41.797 -54.938  1.00  0.00     0.210 HD
ENDBRANCH   4   7
ENDBRANCH   3   4
ENDBRANCH   1   3
BRANCH   1   9
HETATM    9  C   UNL     1     -36.107  42.210 -53.788  1.00  0.00     0.277 C 
BRANCH   9  10
HETATM   10  C   UNL     1     -36.798  41.316 -52.820  1.00  0.00     0.016 A 
HETATM   11  C   UNL     1     -36.151  40.332 -51.993  1.00  0.00     0.096 A 
HETATM   12  N   UNL     1     -37.046  39.643 -51.275  1.00  0.00    -0.174 NA
HETATM   13  N   UNL     1     -38.222  40.211 -51.547  1.00  0.00    -0.288 N 
HETATM   14  H   UNL     1     -39.045  39.863 -51.064  1.00  0.00     0.188 HD
HETATM   15  C   UNL     1     -38.135  41.200 -52.485  1.00  0.00     0.120 A 
BRANCH  11  16
HETATM   16  C   UNL     1     -34.727  40.011 -51.897  1.00  0.00    -0.005 A 
HETATM   17  C   UNL     1     -34.221  38.807 -52.405  1.00  0.00     0.014 A 
HETATM   18  C   UNL     1     -32.859  38.513 -52.293  1.00  0.00     0.001 A 
HETATM   19  C   UNL     1     -31.994  39.424 -51.689  1.00  0.00     0.000 A 
HETATM   20  C   UNL     1     -32.485  40.633 -51.202  1.00  0.00     0.001 A 
HETATM   21  C   UNL     1     -33.846  40.928 -51.307  1.00  0.00     0.014 A 
ENDBRANCH  11  16
ENDBRANCH   9  10
ENDBRANCH   1   9
BRANCH   1  22
HETATM   22  C   UNL     1     -37.193  42.278 -56.039  1.00  0.00     0.273 C 
BRANCH  22  23
HETATM   23  C   UNL     1     -37.396  41.503 -57.316  1.00  0.00    -0.033 A 
HETATM   24  C   UNL     1     -37.041  42.058 -58.555  1.00  0.00     0.009 A 
HETATM   25  C   UNL     1     -37.268  41.350 -59.737  1.00  0.00     0.001 A 
HETATM   26  C   UNL     1     -37.844  40.083 -59.693  1.00  0.00     0.000 A 
HETATM   27  C   UNL     1     -38.189  39.516 -58.468  1.00  0.00     0.001 A 
HETATM   28  C   UNL     1     -37.966  40.220 -57.284  1.00  0.00     0.009 A 
ENDBRANCH  22  23
ENDBRANCH   1  22
TORSDOF 9
ENDMDL
MODEL 8
REMARK VINA RESULT:      -7.1      1.801      2.657
REMARK  9 active torsions:
REMARK  status: ('A' for Active; 'I' for Inactive)
REMARK    1  A    between atoms: C_2  and  C_3 
REMARK    2  A    between atoms: C_3  and  O_4 
REMARK    3  A    between atoms: C_3  and  C_5 
REMARK    4  A    between atoms: C_5  and  N_6 
REMARK    5  A    between atoms: N_6  and  C_8 
REMARK    6  A    between atoms: N_6  and  C_21 
REMARK    7  A    between atoms: C_8  and  C_9 
REMARK    8  A    between atoms: C_10  and  C_11 
REMARK    9  A    between atoms: C_21  and  C_22 
ROOT
HETATM    1  N   UNL     1     -42.608  55.253 -52.914  1.00  0.00    -0.061 N 
HETATM    2  H   UNL     1     -42.828  54.336 -52.513  1.00  0.00     0.280 HD
ENDROOT
BRANCH   1   3
HETATM    3  C   UNL     1     -42.729  56.242 -51.763  1.00  0.00     0.267 C 
BRANCH   3   4
HETATM    4  C   UNL     1     -44.129  56.879 -51.596  1.00  0.00     0.143 C 
BRANCH   4   5
HETATM    5  C   UNL     1     -44.140  58.346 -51.157  1.00  0.00     0.029 C 
HETATM    6  C   UNL     1     -45.537  58.928 -51.014  1.00  0.00     0.007 C 
ENDBRANCH   4   5
BRANCH   4   7
HETATM    7  O   UNL     1     -44.886  56.114 -50.657  1.00  0.00    -0.394 OA
HETATM    8  H   UNL     1     -44.518  56.279 -49.766  1.00  0.00     0.210 HD
ENDBRANCH   4   7
ENDBRANCH   3   4
ENDBRANCH   1   3
BRANCH   1   9
HETATM    9  C   UNL     1     -43.595  55.411 -54.055  1.00  0.00     0.277 C 
BRANCH   9  10
HETATM   10  C   UNL     1     -43.113  55.800 -55.408  1.00  0.00     0.016 A 
HETATM   11  C   UNL     1     -42.786  57.139 -55.819  1.00  0.00     0.096 A 
HETATM   12  N   UNL     1     -42.443  57.175 -57.112  1.00  0.00    -0.174 NA
HETATM   13  N   UNL     1     -42.453  55.904 -57.511  1.00  0.00    -0.288 N 
HETATM   14  H   UNL     1     -42.174  55.699 -58.467  1.00  0.00     0.188 HD
HETATM   15  C   UNL     1     -42.873  55.040 -56.539  1.00  0.00     0.120 A 
BRANCH  11  16
HETATM   16  C   UNL     1     -42.826  58.373 -55.034  1.00  0.00    -0.005 A 
HETATM   17  C   UNL     1     -43.976  59.173 -55.000  1.00  0.00     0.014 A 
HETATM   18  C   UNL     1     -43.990  60.354 -54.252  1.00  0.00     0.001 A 
HETATM   19  C   UNL     1     -42.864  60.735 -53.524  1.00  0.00     0.000 A 
HETATM   20  C   UNL     1     -41.725  59.934 -53.534  1.00  0.00     0.001 A 
HETATM   21  C   UNL     1     -41.705  58.756 -54.283  1.00  0.00     0.014 A 
ENDBRANCH  11  16
ENDBRANCH   9  10
ENDBRANCH   1   9
BRANCH   1  22
HETATM   22  C   UNL     1     -41.191  55.120 -53.435  1.00  0.00     0.273 C 
BRANCH  22  23
HETATM   23  C   UNL     1     -40.629  53.732 -53.265  1.00  0.00    -0.033 A 
HETATM   24  C   UNL     1     -40.480  52.879 -54.369  1.00  0.00     0.009 A 
HETATM   25  C   UNL     1     -39.995  51.581 -54.199  1.00  0.00     0.001 A 
HETATM   26  C   UNL     1     -39.649  51.125 -52.929  1.00  0.00     0.000 A 
HETATM   27  C   UNL     1     -39.781  51.967 -51.827  1.00  0.00     0.001 A 
HETATM   28  C   UNL     1     -40.267  53.265 -51.991  1.00  0.00     0.009 A 
ENDBRANCH  22  23
ENDBRANCH   1  22
TORSDOF 9
ENDMDL
MODEL 9
REMARK VINA RESULT:      -6.9      3.592      5.980
REMARK  9 active torsions:
REMARK  status: ('A' for Active; 'I' for Inactive)
REMARK    1  A    between atoms: C_2  and  C_3 
REMARK    2  A    between atoms: C_3  and  O_4 
REMARK    3  A    between atoms: C_3  and  C_5 
REMARK    4  A    between atoms: C_5  and  N_6 
REMARK    5  A    between atoms: N_6  and  C_8 
REMARK    6  A    between atoms: N_6  and  C_21 
REMARK    7  A    between atoms: C_8  and  C_9 
REMARK    8  A    between atoms: C_10  and  C_11 
REMARK    9  A    between atoms: C_21  and  C_22 
ROOT
HETATM    1  N   UNL     1     -42.754  56.448 -57.387  1.00  0.00    -0.061 N 
HETATM    2  H   UNL     1     -41.755  56.618 -57.241  1.00  0.00     0.280 HD
ENDROOT
BRANCH   1   3
HETATM    3  C   UNL     1     -42.995  56.676 -58.872  1.00  0.00     0.267 C 
BRANCH   3   4
HETATM    4  C   UNL     1     -41.861  57.427 -59.609  1.00  0.00     0.143 C 
BRANCH   4   5
HETATM    5  C   UNL     1     -42.299  58.637 -60.439  1.00  0.00     0.029 C 
HETATM    6  C   UNL     1     -43.805  58.833 -60.483  1.00  0.00     0.007 C 
ENDBRANCH   4   5
BRANCH   4   7
HETATM    7  O   UNL     1     -41.166  56.515 -60.460  1.00  0.00    -0.394 OA
HETATM    8  H   UNL     1     -41.325  56.785 -61.387  1.00  0.00     0.210 HD
ENDBRANCH   4   7
ENDBRANCH   3   4
ENDBRANCH   1   3
BRANCH   1   9
HETATM    9  C   UNL     1     -43.443  57.404 -56.431  1.00  0.00     0.277 C 
BRANCH   9  10
HETATM   10  C   UNL     1     -42.799  58.699 -56.080  1.00  0.00     0.016 A 
HETATM   11  C   UNL     1     -42.356  59.075 -54.764  1.00  0.00     0.096 A 
HETATM   12  N   UNL     1     -41.876  60.324 -54.757  1.00  0.00    -0.174 NA
HETATM   13  N   UNL     1     -41.914  60.720 -56.029  1.00  0.00    -0.288 N 
HETATM   14  H   UNL     1     -41.547  61.640 -56.256  1.00  0.00     0.188 HD
HETATM   15  C   UNL     1     -42.482  59.796 -56.860  1.00  0.00     0.120 A 
BRANCH  11  16
HETATM   16  C   UNL     1     -42.411  58.301 -53.524  1.00  0.00    -0.005 A 
HETATM   17  C   UNL     1     -43.637  57.925 -52.959  1.00  0.00     0.014 A 
HETATM   18  C   UNL     1     -43.668  57.195 -51.767  1.00  0.00     0.001 A 
HETATM   19  C   UNL     1     -42.478  56.824 -51.142  1.00  0.00     0.000 A 
HETATM   20  C   UNL     1     -41.255  57.174 -51.709  1.00  0.00     0.001 A 
HETATM   21  C   UNL     1     -41.220  57.907 -52.897  1.00  0.00     0.014 A 
ENDBRANCH  11  16
ENDBRANCH   9  10
ENDBRANCH   1   9
BRANCH   1  22
HETATM   22  C   UNL     1     -42.969  55.008 -56.966  1.00  0.00     0.273 C 
BRANCH  22  23
HETATM   23  C   UNL     1     -42.339  54.684 -55.635  1.00  0.00    -0.033 A 
HETATM   24  C   UNL     1     -40.945  54.719 -55.475  1.00  0.00     0.009 A 
HETATM   25  C   UNL     1     -40.366  54.380 -54.251  1.00  0.00     0.001 A 
HETATM   26  C   UNL     1     -41.171  54.011 -53.176  1.00  0.00     0.000 A 
HETATM   27  C   UNL     1     -42.556  53.984 -53.319  1.00  0.00     0.001 A 
HETATM   28  C   UNL     1     -43.140  54.320 -54.542  1.00  0.00     0.009 A 
ENDBRANCH  22  23
ENDBRANCH   1  22
TORSDOF 9
ENDMDL
MODEL 10
REMARK VINA RESULT:      -6.8      2.562      4.992
REMARK  9 active torsions:
REMARK  status: ('A' for Active; 'I' for Inactive)
REMARK    1  A    between atoms: C_2  and  C_3 
REMARK    2  A    between atoms: C_3  and  O_4 
REMARK    3  A    between atoms: C_3  and  C_5 
REMARK    4  A    between atoms: C_5  and  N_6 
REMARK    5  A    between atoms: N_6  and  C_8 
REMARK    6  A    between atoms: N_6  and  C_21 
REMARK    7  A    between atoms: C_8  and  C_9 
REMARK    8  A    between atoms: C_10  and  C_11 
REMARK    9  A    between atoms: C_21  and  C_22 
ROOT
HETATM    1  N   UNL     1     -41.583  58.689 -51.573  1.00  0.00    -0.061 N 
HETATM    2  H   UNL     1     -42.511  58.326 -51.804  1.00  0.00     0.280 HD
ENDROOT
BRANCH   1   3
HETATM    3  C   UNL     1     -41.822  60.046 -50.926  1.00  0.00     0.267 C 
BRANCH   3   4
HETATM    4  C   UNL     1     -43.246  60.617 -51.119  1.00  0.00     0.143 C 
BRANCH   4   5
HETATM    5  C   UNL     1     -44.275  59.648 -51.709  1.00  0.00     0.029 C 
HETATM    6  C   UNL     1     -45.277  59.129 -50.691  1.00  0.00     0.007 C 
ENDBRANCH   4   5
BRANCH   4   7
HETATM    7  O   UNL     1     -43.181  61.776 -51.950  1.00  0.00    -0.394 OA
HETATM    8  H   UNL     1     -43.612  62.515 -51.475  1.00  0.00     0.210 HD
ENDBRANCH   4   7
ENDBRANCH   3   4
ENDBRANCH   1   3
BRANCH   1   9
HETATM    9  C   UNL     1     -40.838  58.688 -52.895  1.00  0.00     0.277 C 
BRANCH   9  10
HETATM   10  C   UNL     1     -41.586  58.853 -54.171  1.00  0.00     0.016 A 
HETATM   11  C   UNL     1     -42.016  57.779 -55.025  1.00  0.00     0.096 A 
HETATM   12  N   UNL     1     -42.609  58.250 -56.129  1.00  0.00    -0.174 NA
HETATM   13  N   UNL     1     -42.650  59.572 -55.965  1.00  0.00    -0.288 N 
HETATM   14  H   UNL     1     -43.108  60.130 -56.681  1.00  0.00     0.188 HD
HETATM   15  C   UNL     1     -42.029  59.990 -54.822  1.00  0.00     0.120 A 
BRANCH  11  16
HETATM   16  C   UNL     1     -41.848  56.338 -54.839  1.00  0.00    -0.005 A 
HETATM   17  C   UNL     1     -42.912  55.451 -55.049  1.00  0.00     0.014 A 
HETATM   18  C   UNL     1     -42.733  54.079 -54.854  1.00  0.00     0.001 A 
HETATM   19  C   UNL     1     -41.491  53.583 -54.465  1.00  0.00     0.000 A 
HETATM   20  C   UNL     1     -40.421  54.455 -54.275  1.00  0.00     0.001 A 
HETATM   21  C   UNL     1     -40.597  55.827 -54.464  1.00  0.00     0.014 A 
ENDBRANCH  11  16
ENDBRANCH   9  10
ENDBRANCH   1   9
BRANCH   1  22
HETATM   22  C   UNL     1     -40.994  57.672 -50.616  1.00  0.00     0.273 C 
BRANCH  22  23
HETATM   23  C   UNL     1     -41.605  56.302 -50.764  1.00  0.00    -0.033 A 
HETATM   24  C   UNL     1     -40.836  55.148 -50.552  1.00  0.00     0.009 A 
HETATM   25  C   UNL     1     -41.398  53.882 -50.729  1.00  0.00     0.001 A 
HETATM   26  C   UNL     1     -42.731  53.757 -51.113  1.00  0.00     0.000 A 
HETATM   27  C   UNL     1     -43.508  54.895 -51.314  1.00  0.00     0.001 A 
HETATM   28  C   UNL     1     -42.950  56.163 -51.141  1.00  0.00     0.009 A 
ENDBRANCH  22  23
ENDBRANCH   1  22
TORSDOF 9
ENDMDL
