MODEL 1
REMARK VINA RESULT:      -6.9      0.000      0.000
REMARK  9 active torsions:
REMARK  status: ('A' for Active; 'I' for Inactive)
REMARK    1  A    between atoms: C_2  and  O_3 
REMARK    2  A    between atoms: O_3  and  C_4 
REMARK    3  A    between atoms: C_4  and  C_5 
REMARK    4  A    between atoms: C_11  and  O_12 
REMARK    5  A    between atoms: C_13  and  C_14 
REMARK    6  A    between atoms: C_14  and  N_15 
REMARK    7  A    between atoms: N_19  and  C_20 
REMARK    8  A    between atoms: C_26  and  C_27 
REMARK    9  A    between atoms: C_27  and  N_28 
ROOT
HETATM    1  C   UNL     1     -42.460  58.887 -56.405  1.00  0.00     0.077 A 
HETATM    2  C   UNL     1     -43.105  58.061 -57.414  1.00  0.00     0.020 A 
HETATM    3  C   UNL     1     -42.980  56.737 -56.968  1.00  0.00     0.053 A 
HETATM    4  C   UNL     1     -43.424  55.641 -57.733  1.00  0.00     0.053 A 
HETATM    5  C   UNL     1     -44.009  55.882 -58.967  1.00  0.00     0.047 A 
HETATM    6 BR   UNL     1     -44.577  54.403 -60.007  1.00  0.00    -0.048 Br
HETATM    7  C   UNL     1     -44.164  57.184 -59.431  1.00  0.00     0.092 A 
HETATM    8  C   UNL     1     -43.768  58.315 -58.672  1.00  0.00     0.016 A 
HETATM    9  N   UNL     1     -42.290  56.739 -55.760  1.00  0.00    -0.312 N 
HETATM   10  C   UNL     1     -42.023  58.044 -55.373  1.00  0.00     0.060 A 
ENDROOT
BRANCH  10  11
HETATM   11  C   UNL     1     -41.357  58.375 -54.066  1.00  0.00     0.293 C 
BRANCH  11  12
HETATM   12  N   UNL     1     -42.316  58.803 -52.988  1.00  0.00    -0.066 N 
HETATM   13  H   UNL     1     -42.259  59.828 -52.915  1.00  0.00     0.280 HD
HETATM   14  C   UNL     1     -42.059  58.232 -51.609  1.00  0.00     0.235 C 
HETATM   15  C   UNL     1     -43.236  57.318 -51.344  1.00  0.00     0.029 C 
HETATM   16  C   UNL     1     -44.380  58.037 -52.027  1.00  0.00     0.029 C 
HETATM   17  C   UNL     1     -43.766  58.486 -53.338  1.00  0.00     0.235 C 
ENDBRANCH  11  12
ENDBRANCH  10  11
BRANCH   1  18
HETATM   18  C   UNL     1     -42.264  60.341 -56.456  1.00  0.00     0.296 C 
HETATM   19  O   UNL     1     -42.923  61.118 -55.782  1.00  0.00    -0.259 OA
BRANCH  18  20
HETATM   20  O   UNL     1     -41.249  60.711 -57.286  1.00  0.00    -0.318 OA
BRANCH  20  21
HETATM   21  C   UNL     1     -41.405  61.981 -57.947  1.00  0.00     0.174 C 
HETATM   22  C   UNL     1     -40.182  62.281 -58.791  1.00  0.00     0.034 C 
ENDBRANCH  20  21
ENDBRANCH  18  20
ENDBRANCH   1  18
BRANCH   9  23
HETATM   23  C   UNL     1     -41.931  55.572 -55.036  1.00  0.00     0.040 A 
HETATM   24  C   UNL     1     -40.683  54.976 -55.255  1.00  0.00     0.030 A 
HETATM   25  C   UNL     1     -40.330  53.835 -54.535  1.00  0.00     0.002 A 
HETATM   26  C   UNL     1     -41.217  53.293 -53.607  1.00  0.00     0.000 A 
HETATM   27  C   UNL     1     -42.466  53.882 -53.400  1.00  0.00     0.002 A 
HETATM   28  C   UNL     1     -42.831  55.021 -54.117  1.00  0.00     0.030 A 
ENDBRANCH   9  23
BRANCH   8  29
HETATM   29  C   UNL     1     -43.950  59.715 -59.246  1.00  0.00     0.276 C 
BRANCH  29  30
HETATM   30  N   UNL     1     -43.382  59.983 -60.622  1.00  0.00    -0.075 N 
HETATM   31  H   UNL     1     -43.911  59.346 -61.245  1.00  0.00     0.279 HD
HETATM   32  C   UNL     1     -43.634  61.372 -61.115  1.00  0.00     0.269 C 
HETATM   33  C   UNL     1     -41.939  59.595 -60.729  1.00  0.00     0.269 C 
ENDBRANCH  29  30
ENDBRANCH   8  29
BRANCH   7  34
HETATM   34  O   UNL     1     -44.712  57.393 -60.680  1.00  0.00    -0.359 OA
HETATM   35  H   UNL     1     -44.490  58.317 -60.937  1.00  0.00     0.218 HD
ENDBRANCH   7  34
TORSDOF 9
ENDMDL
MODEL 2
REMARK VINA RESULT:      -6.4      2.922      5.012
REMARK  9 active torsions:
REMARK  status: ('A' for Active; 'I' for Inactive)
REMARK    1  A    between atoms: C_2  and  O_3 
REMARK    2  A    between atoms: O_3  and  C_4 
REMARK    3  A    between atoms: C_4  and  C_5 
REMARK    4  A    between atoms: C_11  and  O_12 
REMARK    5  A    between atoms: C_13  and  C_14 
REMARK    6  A    between atoms: C_14  and  N_15 
REMARK    7  A    between atoms: N_19  and  C_20 
REMARK    8  A    between atoms: C_26  and  C_27 
REMARK    9  A    between atoms: C_27  and  N_28 
ROOT
HETATM    1  C   UNL     1     -42.727  57.759 -55.994  1.00  0.00     0.077 A 
HETATM    2  C   UNL     1     -43.709  58.668 -55.423  1.00  0.00     0.020 A 
HETATM    3  C   UNL     1     -43.547  58.589 -54.032  1.00  0.00     0.053 A 
HETATM    4  C   UNL     1     -44.385  59.281 -53.137  1.00  0.00     0.053 A 
HETATM    5  C   UNL     1     -45.403  60.071 -53.651  1.00  0.00     0.047 A 
HETATM    6 BR   UNL     1     -46.549  60.975 -52.443  1.00  0.00    -0.048 Br
HETATM    7  C   UNL     1     -45.580  60.185 -55.026  1.00  0.00     0.092 A 
HETATM    8  C   UNL     1     -44.731  59.537 -55.959  1.00  0.00     0.016 A 
HETATM    9  N   UNL     1     -42.532  57.679 -53.755  1.00  0.00    -0.312 N 
HETATM   10  C   UNL     1     -41.981  57.213 -54.940  1.00  0.00     0.060 A 
ENDROOT
BRANCH  10  11
HETATM   11  C   UNL     1     -40.807  56.274 -54.966  1.00  0.00     0.293 C 
BRANCH  11  12
HETATM   12  N   UNL     1     -41.160  54.871 -55.383  1.00  0.00    -0.066 N 
HETATM   13  H   UNL     1     -41.281  54.876 -56.405  1.00  0.00     0.280 HD
HETATM   14  C   UNL     1     -42.424  54.299 -54.776  1.00  0.00     0.235 C 
HETATM   15  C   UNL     1     -41.947  53.181 -53.875  1.00  0.00     0.029 C 
HETATM   16  C   UNL     1     -40.756  52.628 -54.626  1.00  0.00     0.029 C 
HETATM   17  C   UNL     1     -40.039  53.878 -55.096  1.00  0.00     0.235 C 
ENDBRANCH  11  12
ENDBRANCH  10  11
BRANCH   1  18
HETATM   18  C   UNL     1     -42.554  57.433 -57.415  1.00  0.00     0.296 C 
HETATM   19  O   UNL     1     -41.890  58.124 -58.173  1.00  0.00    -0.259 OA
BRANCH  18  20
HETATM   20  O   UNL     1     -43.167  56.270 -57.771  1.00  0.00    -0.318 OA
BRANCH  20  21
HETATM   21  C   UNL     1     -43.003  55.865 -59.144  1.00  0.00     0.174 C 
HETATM   22  C   UNL     1     -44.165  54.988 -59.569  1.00  0.00     0.034 C 
ENDBRANCH  20  21
ENDBRANCH  18  20
ENDBRANCH   1  18
BRANCH   9  23
HETATM   23  C   UNL     1     -42.124  57.301 -52.448  1.00  0.00     0.040 A 
HETATM   24  C   UNL     1     -42.749  56.224 -51.810  1.00  0.00     0.030 A 
HETATM   25  C   UNL     1     -42.339  55.850 -50.530  1.00  0.00     0.002 A 
HETATM   26  C   UNL     1     -41.315  56.549 -49.894  1.00  0.00     0.000 A 
HETATM   27  C   UNL     1     -40.702  57.631 -50.528  1.00  0.00     0.002 A 
HETATM   28  C   UNL     1     -41.107  58.016 -51.806  1.00  0.00     0.030 A 
ENDBRANCH   9  23
BRANCH   8  29
HETATM   29  C   UNL     1     -44.990  59.689 -57.454  1.00  0.00     0.276 C 
BRANCH  29  30
HETATM   30  N   UNL     1     -45.569  58.497 -58.184  1.00  0.00    -0.075 N 
HETATM   31  H   UNL     1     -44.969  57.704 -57.894  1.00  0.00     0.279 HD
HETATM   32  C   UNL     1     -46.963  58.156 -57.764  1.00  0.00     0.269 C 
HETATM   33  C   UNL     1     -45.438  58.621 -59.671  1.00  0.00     0.269 C 
ENDBRANCH  29  30
ENDBRANCH   8  29
BRANCH   7  34
HETATM   34  O   UNL     1     -46.626  60.943 -55.510  1.00  0.00    -0.359 OA
HETATM   35  H   UNL     1     -46.271  61.472 -56.260  1.00  0.00     0.218 HD
ENDBRANCH   7  34
TORSDOF 9
ENDMDL
MODEL 3
REMARK VINA RESULT:      -6.4      3.260      7.778
REMARK  9 active torsions:
REMARK  status: ('A' for Active; 'I' for Inactive)
REMARK    1  A    between atoms: C_2  and  O_3 
REMARK    2  A    between atoms: O_3  and  C_4 
REMARK    3  A    between atoms: C_4  and  C_5 
REMARK    4  A    between atoms: C_11  and  O_12 
REMARK    5  A    between atoms: C_13  and  C_14 
REMARK    6  A    between atoms: C_14  and  N_15 
REMARK    7  A    between atoms: N_19  and  C_20 
REMARK    8  A    between atoms: C_26  and  C_27 
REMARK    9  A    between atoms: C_27  and  N_28 
ROOT
HETATM    1  C   UNL     1     -42.606  56.114 -55.489  1.00  0.00     0.077 A 
HETATM    2  C   UNL     1     -42.642  56.946 -54.296  1.00  0.00     0.020 A 
HETATM    3  C   UNL     1     -42.798  58.265 -54.750  1.00  0.00     0.053 A 
HETATM    4  C   UNL     1     -42.799  59.367 -53.872  1.00  0.00     0.053 A 
HETATM    5  C   UNL     1     -42.643  59.137 -52.513  1.00  0.00     0.047 A 
HETATM    6 BR   UNL     1     -42.611  60.623 -51.338  1.00  0.00    -0.048 Br
HETATM    7  C   UNL     1     -42.502  57.840 -52.029  1.00  0.00     0.092 A 
HETATM    8  C   UNL     1     -42.539  56.703 -52.876  1.00  0.00     0.016 A 
HETATM    9  N   UNL     1     -42.846  58.254 -56.140  1.00  0.00    -0.312 N 
HETATM   10  C   UNL     1     -42.793  56.947 -56.601  1.00  0.00     0.060 A 
ENDROOT
BRANCH  10  11
HETATM   11  C   UNL     1     -42.907  56.604 -58.062  1.00  0.00     0.293 C 
BRANCH  11  12
HETATM   12  N   UNL     1     -44.224  55.981 -58.438  1.00  0.00    -0.066 N 
HETATM   13  H   UNL     1     -44.718  55.755 -57.565  1.00  0.00     0.280 HD
HETATM   14  C   UNL     1     -44.143  54.710 -59.259  1.00  0.00     0.235 C 
HETATM   15  C   UNL     1     -44.713  55.087 -60.610  1.00  0.00     0.029 C 
HETATM   16  C   UNL     1     -45.794  56.083 -60.253  1.00  0.00     0.029 C 
HETATM   17  C   UNL     1     -45.129  56.944 -59.198  1.00  0.00     0.235 C 
ENDBRANCH  11  12
ENDBRANCH  10  11
BRANCH   1  18
HETATM   18  C   UNL     1     -42.380  54.664 -55.541  1.00  0.00     0.296 C 
HETATM   19  O   UNL     1     -43.277  53.852 -55.376  1.00  0.00    -0.259 OA
BRANCH  18  20
HETATM   20  O   UNL     1     -41.091  54.338 -55.836  1.00  0.00    -0.318 OA
BRANCH  20  21
HETATM   21  C   UNL     1     -40.222  54.115 -54.709  1.00  0.00     0.174 C 
HETATM   22  C   UNL     1     -40.216  52.644 -54.341  1.00  0.00     0.034 C 
ENDBRANCH  20  21
ENDBRANCH  18  20
ENDBRANCH   1  18
BRANCH   9  23
HETATM   23  C   UNL     1     -42.947  59.414 -56.951  1.00  0.00     0.040 A 
HETATM   24  C   UNL     1     -44.207  59.943 -57.252  1.00  0.00     0.030 A 
HETATM   25  C   UNL     1     -44.302  61.090 -58.041  1.00  0.00     0.002 A 
HETATM   26  C   UNL     1     -43.147  61.698 -58.528  1.00  0.00     0.000 A 
HETATM   27  C   UNL     1     -41.892  61.161 -58.238  1.00  0.00     0.002 A 
HETATM   28  C   UNL     1     -41.785  60.013 -57.453  1.00  0.00     0.030 A 
ENDBRANCH   9  23
BRANCH   8  29
HETATM   29  C   UNL     1     -42.362  55.310 -52.284  1.00  0.00     0.276 C 
BRANCH  29  30
HETATM   30  N   UNL     1     -42.717  55.123 -50.825  1.00  0.00    -0.075 N 
HETATM   31  H   UNL     1     -42.715  56.084 -50.438  1.00  0.00     0.279 HD
HETATM   32  C   UNL     1     -44.092  54.577 -50.608  1.00  0.00     0.269 C 
HETATM   33  C   UNL     1     -41.674  54.351 -50.079  1.00  0.00     0.269 C 
ENDBRANCH  29  30
ENDBRANCH   8  29
BRANCH   7  34
HETATM   34  O   UNL     1     -42.307  57.643 -50.677  1.00  0.00    -0.359 OA
HETATM   35  H   UNL     1     -42.087  56.691 -50.557  1.00  0.00     0.218 HD
ENDBRANCH   7  34
TORSDOF 9
ENDMDL
MODEL 4
REMARK VINA RESULT:      -6.3      3.322      7.670
REMARK  9 active torsions:
REMARK  status: ('A' for Active; 'I' for Inactive)
REMARK    1  A    between atoms: C_2  and  O_3 
REMARK    2  A    between atoms: O_3  and  C_4 
REMARK    3  A    between atoms: C_4  and  C_5 
REMARK    4  A    between atoms: C_11  and  O_12 
REMARK    5  A    between atoms: C_13  and  C_14 
REMARK    6  A    between atoms: C_14  and  N_15 
REMARK    7  A    between atoms: N_19  and  C_20 
REMARK    8  A    between atoms: C_26  and  C_27 
REMARK    9  A    between atoms: C_27  and  N_28 
ROOT
HETATM    1  C   UNL     1     -42.980  56.804 -54.851  1.00  0.00     0.077 A 
HETATM    2  C   UNL     1     -43.522  57.660 -53.807  1.00  0.00     0.020 A 
HETATM    3  C   UNL     1     -44.509  58.444 -54.423  1.00  0.00     0.053 A 
HETATM    4  C   UNL     1     -45.206  59.454 -53.732  1.00  0.00     0.053 A 
HETATM    5  C   UNL     1     -44.908  59.677 -52.396  1.00  0.00     0.047 A 
HETATM    6 BR   UNL     1     -45.825  61.059 -51.479  1.00  0.00    -0.048 Br
HETATM    7  C   UNL     1     -43.947  58.906 -51.751  1.00  0.00     0.092 A 
HETATM    8  C   UNL     1     -43.254  57.852 -52.401  1.00  0.00     0.016 A 
HETATM    9  N   UNL     1     -44.570  58.103 -55.770  1.00  0.00    -0.312 N 
HETATM   10  C   UNL     1     -43.689  57.063 -56.032  1.00  0.00     0.060 A 
ENDROOT
BRANCH  10  11
HETATM   11  C   UNL     1     -43.586  56.420 -57.387  1.00  0.00     0.293 C 
BRANCH  11  12
HETATM   12  N   UNL     1     -42.357  56.821 -58.158  1.00  0.00    -0.066 N 
HETATM   13  H   UNL     1     -41.576  56.248 -57.812  1.00  0.00     0.280 HD
HETATM   14  C   UNL     1     -41.946  58.274 -58.037  1.00  0.00     0.235 C 
HETATM   15  C   UNL     1     -42.168  58.854 -59.417  1.00  0.00     0.029 C 
HETATM   16  C   UNL     1     -41.817  57.698 -60.328  1.00  0.00     0.029 C 
HETATM   17  C   UNL     1     -42.477  56.515 -59.647  1.00  0.00     0.235 C 
ENDBRANCH  11  12
ENDBRANCH  10  11
BRANCH   1  18
HETATM   18  C   UNL     1     -41.866  55.857 -54.719  1.00  0.00     0.296 C 
HETATM   19  O   UNL     1     -40.697  56.208 -54.752  1.00  0.00    -0.259 OA
BRANCH  18  20
HETATM   20  O   UNL     1     -42.281  54.576 -54.509  1.00  0.00    -0.318 OA
BRANCH  20  21
HETATM   21  C   UNL     1     -41.536  53.824 -53.532  1.00  0.00     0.174 C 
HETATM   22  C   UNL     1     -40.782  52.696 -54.210  1.00  0.00     0.034 C 
ENDBRANCH  20  21
ENDBRANCH  18  20
ENDBRANCH   1  18
BRANCH   9  23
HETATM   23  C   UNL     1     -45.420  58.727 -56.721  1.00  0.00     0.040 A 
HETATM   24  C   UNL     1     -45.031  59.936 -57.311  1.00  0.00     0.030 A 
HETATM   25  C   UNL     1     -45.864  60.541 -58.252  1.00  0.00     0.002 A 
HETATM   26  C   UNL     1     -47.075  59.944 -58.597  1.00  0.00     0.000 A 
HETATM   27  C   UNL     1     -47.466  58.746 -57.998  1.00  0.00     0.002 A 
HETATM   28  C   UNL     1     -46.643  58.134 -57.053  1.00  0.00     0.030 A 
ENDBRANCH   9  23
BRANCH   8  29
HETATM   29  C   UNL     1     -42.199  57.056 -51.641  1.00  0.00     0.276 C 
BRANCH  29  30
HETATM   30  N   UNL     1     -42.660  56.262 -50.438  1.00  0.00    -0.075 N 
HETATM   31  H   UNL     1     -43.099  56.967 -49.819  1.00  0.00     0.279 HD
HETATM   32  C   UNL     1     -43.718  55.254 -50.756  1.00  0.00     0.269 C 
HETATM   33  C   UNL     1     -41.517  55.665 -49.677  1.00  0.00     0.269 C 
ENDBRANCH  29  30
ENDBRANCH   8  29
BRANCH   7  34
HETATM   34  O   UNL     1     -43.640  59.177 -50.433  1.00  0.00    -0.359 OA
HETATM   35  H   UNL     1     -44.331  58.741 -49.884  1.00  0.00     0.218 HD
ENDBRANCH   7  34
TORSDOF 9
ENDMDL
MODEL 5
REMARK VINA RESULT:      -6.3      3.736      7.181
REMARK  9 active torsions:
REMARK  status: ('A' for Active; 'I' for Inactive)
REMARK    1  A    between atoms: C_2  and  O_3 
REMARK    2  A    between atoms: O_3  and  C_4 
REMARK    3  A    between atoms: C_4  and  C_5 
REMARK    4  A    between atoms: C_11  and  O_12 
REMARK    5  A    between atoms: C_13  and  C_14 
REMARK    6  A    between atoms: C_14  and  N_15 
REMARK    7  A    between atoms: N_19  and  C_20 
REMARK    8  A    between atoms: C_26  and  C_27 
REMARK    9  A    between atoms: C_27  and  N_28 
ROOT
HETATM    1  C   UNL     1     -44.169  57.643 -52.604  1.00  0.00     0.077 A 
HETATM    2  C   UNL     1     -44.639  59.005 -52.800  1.00  0.00     0.020 A 
HETATM    3  C   UNL     1     -44.562  59.246 -54.180  1.00  0.00     0.053 A 
HETATM    4  C   UNL     1     -44.869  60.501 -54.742  1.00  0.00     0.053 A 
HETATM    5  C   UNL     1     -45.263  61.530 -53.901  1.00  0.00     0.047 A 
HETATM    6 BR   UNL     1     -45.642  63.226 -54.658  1.00  0.00    -0.048 Br
HETATM    7  C   UNL     1     -45.366  61.321 -52.530  1.00  0.00     0.092 A 
HETATM    8  C   UNL     1     -45.107  60.061 -51.931  1.00  0.00     0.016 A 
HETATM    9  N   UNL     1     -44.065  58.106 -54.802  1.00  0.00    -0.312 N 
HETATM   10  C   UNL     1     -43.880  57.101 -53.864  1.00  0.00     0.060 A 
ENDROOT
BRANCH  10  11
HETATM   11  C   UNL     1     -43.426  55.719 -54.245  1.00  0.00     0.293 C 
BRANCH  11  12
HETATM   12  N   UNL     1     -42.104  55.326 -53.642  1.00  0.00    -0.066 N 
HETATM   13  H   UNL     1     -42.071  55.718 -52.691  1.00  0.00     0.280 HD
HETATM   14  C   UNL     1     -40.872  55.810 -54.379  1.00  0.00     0.235 C 
HETATM   15  C   UNL     1     -40.225  54.552 -54.917  1.00  0.00     0.029 C 
HETATM   16  C   UNL     1     -40.515  53.535 -53.836  1.00  0.00     0.029 C 
HETATM   17  C   UNL     1     -41.961  53.817 -53.482  1.00  0.00     0.235 C 
ENDBRANCH  11  12
ENDBRANCH  10  11
BRANCH   1  18
HETATM   18  C   UNL     1     -43.989  56.953 -51.320  1.00  0.00     0.296 C 
HETATM   19  O   UNL     1     -44.927  56.510 -50.674  1.00  0.00    -0.259 OA
BRANCH  18  20
HETATM   20  O   UNL     1     -42.680  56.825 -50.965  1.00  0.00    -0.318 OA
BRANCH  20  21
HETATM   21  C   UNL     1     -42.343  55.641 -50.216  1.00  0.00     0.174 C 
HETATM   22  C   UNL     1     -40.838  55.468 -50.168  1.00  0.00     0.034 C 
ENDBRANCH  20  21
ENDBRANCH  18  20
ENDBRANCH   1  18
BRANCH   9  23
HETATM   23  C   UNL     1     -43.802  57.997 -56.193  1.00  0.00     0.040 A 
HETATM   24  C   UNL     1     -42.503  58.203 -56.671  1.00  0.00     0.030 A 
HETATM   25  C   UNL     1     -42.245  58.086 -58.037  1.00  0.00     0.002 A 
HETATM   26  C   UNL     1     -43.279  57.770 -58.917  1.00  0.00     0.000 A 
HETATM   27  C   UNL     1     -44.576  57.578 -58.438  1.00  0.00     0.002 A 
HETATM   28  C   UNL     1     -44.846  57.696 -57.075  1.00  0.00     0.030 A 
ENDBRANCH   9  23
BRANCH   8  29
HETATM   29  C   UNL     1     -45.222  59.901 -50.420  1.00  0.00     0.276 C 
BRANCH  29  30
HETATM   30  N   UNL     1     -44.069  60.401 -49.578  1.00  0.00    -0.075 N 
HETATM   31  H   UNL     1     -43.837  59.601 -48.962  1.00  0.00     0.279 HD
HETATM   32  C   UNL     1     -42.836  60.703 -50.369  1.00  0.00     0.269 C 
HETATM   33  C   UNL     1     -44.464  61.536 -48.685  1.00  0.00     0.269 C 
ENDBRANCH  29  30
ENDBRANCH   8  29
BRANCH   7  34
HETATM   34  O   UNL     1     -45.720  62.374 -51.712  1.00  0.00    -0.359 OA
HETATM   35  H   UNL     1     -45.952  63.127 -52.302  1.00  0.00     0.218 HD
ENDBRANCH   7  34
TORSDOF 9
ENDMDL
MODEL 6
REMARK VINA RESULT:      -6.2      2.257      3.258
REMARK  9 active torsions:
REMARK  status: ('A' for Active; 'I' for Inactive)
REMARK    1  A    between atoms: C_2  and  O_3 
REMARK    2  A    between atoms: O_3  and  C_4 
REMARK    3  A    between atoms: C_4  and  C_5 
REMARK    4  A    between atoms: C_11  and  O_12 
REMARK    5  A    between atoms: C_13  and  C_14 
REMARK    6  A    between atoms: C_14  and  N_15 
REMARK    7  A    between atoms: N_19  and  C_20 
REMARK    8  A    between atoms: C_26  and  C_27 
REMARK    9  A    between atoms: C_27  and  N_28 
ROOT
HETATM    1  C   UNL     1     -43.633  58.632 -55.002  1.00  0.00     0.077 A 
HETATM    2  C   UNL     1     -43.932  58.122 -56.331  1.00  0.00     0.020 A 
HETATM    3  C   UNL     1     -43.371  56.837 -56.387  1.00  0.00     0.053 A 
HETATM    4  C   UNL     1     -43.396  56.057 -57.559  1.00  0.00     0.053 A 
HETATM    5  C   UNL     1     -44.000  56.577 -58.694  1.00  0.00     0.047 A 
HETATM    6 BR   UNL     1     -44.003  55.537 -60.279  1.00  0.00    -0.048 Br
HETATM    7  C   UNL     1     -44.581  57.840 -58.667  1.00  0.00     0.092 A 
HETATM    8  C   UNL     1     -44.614  58.638 -57.495  1.00  0.00     0.016 A 
HETATM    9  N   UNL     1     -42.752  56.570 -55.171  1.00  0.00    -0.312 N 
HETATM   10  C   UNL     1     -42.956  57.627 -54.296  1.00  0.00     0.060 A 
ENDROOT
BRANCH  10  11
HETATM   11  C   UNL     1     -42.474  57.598 -52.872  1.00  0.00     0.293 C 
BRANCH  11  12
HETATM   12  N   UNL     1     -41.792  58.866 -52.436  1.00  0.00    -0.066 N 
HETATM   13  H   UNL     1     -42.066  59.606 -53.096  1.00  0.00     0.280 HD
HETATM   14  C   UNL     1     -40.279  58.824 -52.399  1.00  0.00     0.235 C 
HETATM   15  C   UNL     1     -39.925  58.936 -50.932  1.00  0.00     0.029 C 
HETATM   16  C   UNL     1     -41.000  59.857 -50.396  1.00  0.00     0.029 C 
HETATM   17  C   UNL     1     -42.257  59.336 -51.062  1.00  0.00     0.235 C 
ENDBRANCH  11  12
ENDBRANCH  10  11
BRANCH   1  18
HETATM   18  C   UNL     1     -43.945  59.971 -54.485  1.00  0.00     0.296 C 
HETATM   19  O   UNL     1     -43.159  60.903 -54.557  1.00  0.00    -0.259 OA
BRANCH  18  20
HETATM   20  O   UNL     1     -45.204  60.062 -53.973  1.00  0.00    -0.318 OA
BRANCH  20  21
HETATM   21  C   UNL     1     -45.331  60.791 -52.737  1.00  0.00     0.174 C 
HETATM   22  C   UNL     1     -46.143  59.987 -51.740  1.00  0.00     0.034 C 
ENDBRANCH  20  21
ENDBRANCH  18  20
ENDBRANCH   1  18
BRANCH   9  23
HETATM   23  C   UNL     1     -42.031  55.382 -54.878  1.00  0.00     0.040 A 
HETATM   24  C   UNL     1     -40.660  55.317 -55.153  1.00  0.00     0.030 A 
HETATM   25  C   UNL     1     -39.953  54.153 -54.855  1.00  0.00     0.002 A 
HETATM   26  C   UNL     1     -40.612  53.061 -54.291  1.00  0.00     0.000 A 
HETATM   27  C   UNL     1     -41.981  53.124 -54.031  1.00  0.00     0.002 A 
HETATM   28  C   UNL     1     -42.699  54.283 -54.328  1.00  0.00     0.030 A 
ENDBRANCH   9  23
BRANCH   8  29
HETATM   29  C   UNL     1     -45.252  60.022 -57.537  1.00  0.00     0.276 C 
BRANCH  29  30
HETATM   30  N   UNL     1     -46.632  60.170 -56.936  1.00  0.00    -0.075 N 
HETATM   31  H   UNL     1     -46.596  59.604 -56.070  1.00  0.00     0.279 HD
HETATM   32  C   UNL     1     -46.957  61.569 -56.519  1.00  0.00     0.269 C 
HETATM   33  C   UNL     1     -47.698  59.573 -57.802  1.00  0.00     0.269 C 
ENDBRANCH  29  30
ENDBRANCH   8  29
BRANCH   7  34
HETATM   34  O   UNL     1     -45.139  58.350 -59.822  1.00  0.00    -0.359 OA
HETATM   35  H   UNL     1     -46.116  58.320 -59.704  1.00  0.00     0.218 HD
ENDBRANCH   7  34
TORSDOF 9
ENDMDL
MODEL 7
REMARK VINA RESULT:      -6.1      3.340      6.405
REMARK  9 active torsions:
REMARK  status: ('A' for Active; 'I' for Inactive)
REMARK    1  A    between atoms: C_2  and  O_3 
REMARK    2  A    between atoms: O_3  and  C_4 
REMARK    3  A    between atoms: C_4  and  C_5 
REMARK    4  A    between atoms: C_11  and  O_12 
REMARK    5  A    between atoms: C_13  and  C_14 
REMARK    6  A    between atoms: C_14  and  N_15 
REMARK    7  A    between atoms: N_19  and  C_20 
REMARK    8  A    between atoms: C_26  and  C_27 
REMARK    9  A    between atoms: C_27  and  N_28 
ROOT
HETATM    1  C   UNL     1     -42.221  58.024 -53.237  1.00  0.00     0.077 A 
HETATM    2  C   UNL     1     -43.245  59.004 -53.562  1.00  0.00     0.020 A 
HETATM    3  C   UNL     1     -43.533  58.825 -54.924  1.00  0.00     0.053 A 
HETATM    4  C   UNL     1     -44.434  59.656 -55.618  1.00  0.00     0.053 A 
HETATM    5  C   UNL     1     -45.060  60.684 -54.928  1.00  0.00     0.047 A 
HETATM    6 BR   UNL     1     -46.247  61.820 -55.872  1.00  0.00    -0.048 Br
HETATM    7  C   UNL     1     -44.810  60.878 -53.573  1.00  0.00     0.092 A 
HETATM    8  C   UNL     1     -43.942  60.036 -52.831  1.00  0.00     0.016 A 
HETATM    9  N   UNL     1     -42.729  57.803 -55.417  1.00  0.00    -0.312 N 
HETATM   10  C   UNL     1     -41.970  57.264 -54.388  1.00  0.00     0.060 A 
ENDROOT
BRANCH  10  11
HETATM   11  C   UNL     1     -41.059  56.085 -54.593  1.00  0.00     0.293 C 
BRANCH  11  12
HETATM   12  N   UNL     1     -41.552  54.817 -53.949  1.00  0.00    -0.066 N 
HETATM   13  H   UNL     1     -42.477  55.017 -53.545  1.00  0.00     0.280 HD
HETATM   14  C   UNL     1     -40.682  54.256 -52.843  1.00  0.00     0.235 C 
HETATM   15  C   UNL     1     -40.143  52.956 -53.399  1.00  0.00     0.029 C 
HETATM   16  C   UNL     1     -41.292  52.447 -54.242  1.00  0.00     0.029 C 
HETATM   17  C   UNL     1     -41.767  53.695 -54.958  1.00  0.00     0.235 C 
ENDBRANCH  11  12
ENDBRANCH  10  11
BRANCH   1  18
HETATM   18  C   UNL     1     -41.535  57.867 -51.948  1.00  0.00     0.296 C 
HETATM   19  O   UNL     1     -41.945  57.122 -51.071  1.00  0.00    -0.259 OA
BRANCH  18  20
HETATM   20  O   UNL     1     -40.387  58.595 -51.866  1.00  0.00    -0.318 OA
BRANCH  20  21
HETATM   21  C   UNL     1     -40.204  59.351 -50.653  1.00  0.00     0.174 C 
HETATM   22  C   UNL     1     -38.731  59.633 -50.433  1.00  0.00     0.034 C 
ENDBRANCH  20  21
ENDBRANCH  18  20
ENDBRANCH   1  18
BRANCH   9  23
HETATM   23  C   UNL     1     -42.707  57.377 -56.771  1.00  0.00     0.040 A 
HETATM   24  C   UNL     1     -43.322  56.172 -57.129  1.00  0.00     0.030 A 
HETATM   25  C   UNL     1     -43.307  55.761 -58.462  1.00  0.00     0.002 A 
HETATM   26  C   UNL     1     -42.681  56.548 -59.427  1.00  0.00     0.000 A 
HETATM   27  C   UNL     1     -42.057  57.742 -59.065  1.00  0.00     0.002 A 
HETATM   28  C   UNL     1     -42.062  58.161 -57.734  1.00  0.00     0.030 A 
ENDBRANCH   9  23
BRANCH   8  29
HETATM   29  C   UNL     1     -43.698  60.314 -51.352  1.00  0.00     0.276 C 
BRANCH  29  30
HETATM   30  N   UNL     1     -44.590  59.608 -50.355  1.00  0.00    -0.075 N 
HETATM   31  H   UNL     1     -43.930  59.187 -49.676  1.00  0.00     0.279 HD
HETATM   32  C   UNL     1     -45.471  60.533 -49.579  1.00  0.00     0.269 C 
HETATM   33  C   UNL     1     -45.355  58.479 -50.974  1.00  0.00     0.269 C 
ENDBRANCH  29  30
ENDBRANCH   8  29
BRANCH   7  34
HETATM   34  O   UNL     1     -45.414  61.933 -52.921  1.00  0.00    -0.359 OA
HETATM   35  H   UNL     1     -45.861  61.560 -52.128  1.00  0.00     0.218 HD
ENDBRANCH   7  34
TORSDOF 9
ENDMDL
MODEL 8
REMARK VINA RESULT:      -6.1      3.366      7.858
REMARK  9 active torsions:
REMARK  status: ('A' for Active; 'I' for Inactive)
REMARK    1  A    between atoms: C_2  and  O_3 
REMARK    2  A    between atoms: O_3  and  C_4 
REMARK    3  A    between atoms: C_4  and  C_5 
REMARK    4  A    between atoms: C_11  and  O_12 
REMARK    5  A    between atoms: C_13  and  C_14 
REMARK    6  A    between atoms: C_14  and  N_15 
REMARK    7  A    between atoms: N_19  and  C_20 
REMARK    8  A    between atoms: C_26  and  C_27 
REMARK    9  A    between atoms: C_27  and  N_28 
ROOT
HETATM    1  C   UNL     1     -41.984  57.329 -54.637  1.00  0.00     0.077 A 
HETATM    2  C   UNL     1     -42.207  58.229 -53.516  1.00  0.00     0.020 A 
HETATM    3  C   UNL     1     -42.694  59.423 -54.070  1.00  0.00     0.053 A 
HETATM    4  C   UNL     1     -42.954  60.564 -53.287  1.00  0.00     0.053 A 
HETATM    5  C   UNL     1     -42.725  60.501 -51.920  1.00  0.00     0.047 A 
HETATM    6 BR   UNL     1     -43.046  62.048 -50.874  1.00  0.00    -0.048 Br
HETATM    7  C   UNL     1     -42.260  59.327 -51.337  1.00  0.00     0.092 A 
HETATM    8  C   UNL     1     -42.026  58.145 -52.086  1.00  0.00     0.016 A 
HETATM    9  N   UNL     1     -42.759  59.276 -55.452  1.00  0.00    -0.312 N 
HETATM   10  C   UNL     1     -42.390  57.987 -55.806  1.00  0.00     0.060 A 
ENDROOT
BRANCH  10  11
HETATM   11  C   UNL     1     -42.437  57.499 -57.228  1.00  0.00     0.293 C 
BRANCH  11  12
HETATM   12  N   UNL     1     -43.665  56.691 -57.552  1.00  0.00    -0.066 N 
HETATM   13  H   UNL     1     -44.221  56.618 -56.690  1.00  0.00     0.280 HD
HETATM   14  C   UNL     1     -43.417  55.285 -58.057  1.00  0.00     0.235 C 
HETATM   15  C   UNL     1     -43.884  55.304 -59.497  1.00  0.00     0.029 C 
HETATM   16  C   UNL     1     -45.063  56.252 -59.456  1.00  0.00     0.029 C 
HETATM   17  C   UNL     1     -44.563  57.379 -58.575  1.00  0.00     0.235 C 
ENDBRANCH  11  12
ENDBRANCH  10  11
BRANCH   1  18
HETATM   18  C   UNL     1     -41.406  55.980 -54.577  1.00  0.00     0.296 C 
HETATM   19  O   UNL     1     -40.201  55.781 -54.570  1.00  0.00    -0.259 OA
BRANCH  18  20
HETATM   20  O   UNL     1     -42.349  55.002 -54.483  1.00  0.00    -0.318 OA
BRANCH  20  21
HETATM   21  C   UNL     1     -42.073  53.947 -53.542  1.00  0.00     0.174 C 
HETATM   22  C   UNL     1     -41.435  52.770 -54.253  1.00  0.00     0.034 C 
ENDBRANCH  20  21
ENDBRANCH  18  20
ENDBRANCH   1  18
BRANCH   9  23
HETATM   23  C   UNL     1     -43.157  60.300 -56.352  1.00  0.00     0.040 A 
HETATM   24  C   UNL     1     -44.516  60.494 -56.624  1.00  0.00     0.030 A 
HETATM   25  C   UNL     1     -44.904  61.507 -57.501  1.00  0.00     0.002 A 
HETATM   26  C   UNL     1     -43.942  62.315 -58.103  1.00  0.00     0.000 A 
HETATM   27  C   UNL     1     -42.586  62.110 -57.841  1.00  0.00     0.002 A 
HETATM   28  C   UNL     1     -42.186  61.098 -56.968  1.00  0.00     0.030 A 
ENDBRANCH   9  23
BRANCH   8  29
HETATM   29  C   UNL     1     -41.499  56.897 -51.388  1.00  0.00     0.276 C 
BRANCH  29  30
HETATM   30  N   UNL     1     -42.396  56.244 -50.359  1.00  0.00    -0.075 N 
HETATM   31  H   UNL     1     -42.486  56.955 -49.611  1.00  0.00     0.279 HD
HETATM   32  C   UNL     1     -43.779  55.971 -50.857  1.00  0.00     0.269 C 
HETATM   33  C   UNL     1     -41.766  55.036 -49.738  1.00  0.00     0.269 C 
ENDBRANCH  29  30
ENDBRANCH   8  29
BRANCH   7  34
HETATM   34  O   UNL     1     -42.001  59.305 -49.982  1.00  0.00    -0.359 OA
HETATM   35  H   UNL     1     -41.877  58.361 -49.731  1.00  0.00     0.218 HD
ENDBRANCH   7  34
TORSDOF 9
ENDMDL
MODEL 9
REMARK VINA RESULT:      -6.0      2.916      5.301
REMARK  9 active torsions:
REMARK  status: ('A' for Active; 'I' for Inactive)
REMARK    1  A    between atoms: C_2  and  O_3 
REMARK    2  A    between atoms: O_3  and  C_4 
REMARK    3  A    between atoms: C_4  and  C_5 
REMARK    4  A    between atoms: C_11  and  O_12 
REMARK    5  A    between atoms: C_13  and  C_14 
REMARK    6  A    between atoms: C_14  and  N_15 
REMARK    7  A    between atoms: N_19  and  C_20 
REMARK    8  A    between atoms: C_26  and  C_27 
REMARK    9  A    between atoms: C_27  and  N_28 
ROOT
HETATM    1  C   UNL     1     -43.424  56.941 -54.527  1.00  0.00     0.077 A 
HETATM    2  C   UNL     1     -44.085  57.950 -55.341  1.00  0.00     0.020 A 
HETATM    3  C   UNL     1     -44.483  58.962 -54.454  1.00  0.00     0.053 A 
HETATM    4  C   UNL     1     -45.228  60.081 -54.875  1.00  0.00     0.053 A 
HETATM    5  C   UNL     1     -45.575  60.185 -56.214  1.00  0.00     0.047 A 
HETATM    6 BR   UNL     1     -46.605  61.675 -56.771  1.00  0.00    -0.048 Br
HETATM    7  C   UNL     1     -45.181  59.209 -57.123  1.00  0.00     0.092 A 
HETATM    8  C   UNL     1     -44.395  58.090 -56.745  1.00  0.00     0.016 A 
HETATM    9  N   UNL     1     -44.102  58.598 -53.167  1.00  0.00    -0.312 N 
HETATM   10  C   UNL     1     -43.402  57.401 -53.203  1.00  0.00     0.060 A 
ENDROOT
BRANCH  10  11
HETATM   11  C   UNL     1     -42.789  56.790 -51.973  1.00  0.00     0.293 C 
BRANCH  11  12
HETATM   12  N   UNL     1     -41.335  57.130 -51.786  1.00  0.00    -0.066 N 
HETATM   13  H   UNL     1     -40.788  56.307 -52.073  1.00  0.00     0.280 HD
HETATM   14  C   UNL     1     -40.916  57.490 -50.376  1.00  0.00     0.235 C 
HETATM   15  C   UNL     1     -40.546  58.956 -50.446  1.00  0.00     0.029 C 
HETATM   16  C   UNL     1     -39.939  59.084 -51.827  1.00  0.00     0.029 C 
HETATM   17  C   UNL     1     -40.883  58.272 -52.690  1.00  0.00     0.235 C 
ENDBRANCH  11  12
ENDBRANCH  10  11
BRANCH   1  18
HETATM   18  C   UNL     1     -42.899  55.649 -54.987  1.00  0.00     0.296 C 
HETATM   19  O   UNL     1     -43.552  54.618 -54.936  1.00  0.00    -0.259 OA
BRANCH  18  20
HETATM   20  O   UNL     1     -41.645  55.742 -55.512  1.00  0.00    -0.318 OA
BRANCH  20  21
HETATM   21  C   UNL     1     -40.578  55.237 -54.687  1.00  0.00     0.174 C 
HETATM   22  C   UNL     1     -40.175  53.851 -55.152  1.00  0.00     0.034 C 
ENDBRANCH  20  21
ENDBRANCH  18  20
ENDBRANCH   1  18
BRANCH   9  23
HETATM   23  C   UNL     1     -44.385  59.356 -51.999  1.00  0.00     0.040 A 
HETATM   24  C   UNL     1     -45.466  58.998 -51.185  1.00  0.00     0.030 A 
HETATM   25  C   UNL     1     -45.735  59.738 -50.034  1.00  0.00     0.002 A 
HETATM   26  C   UNL     1     -44.932  60.828 -49.702  1.00  0.00     0.000 A 
HETATM   27  C   UNL     1     -43.863  61.190 -50.523  1.00  0.00     0.002 A 
HETATM   28  C   UNL     1     -43.587  60.460 -51.678  1.00  0.00     0.030 A 
ENDBRANCH   9  23
BRANCH   8  29
HETATM   29  C   UNL     1     -44.011  57.046 -57.787  1.00  0.00     0.276 C 
BRANCH  29  30
HETATM   30  N   UNL     1     -43.084  57.482 -58.900  1.00  0.00    -0.075 N 
HETATM   31  H   UNL     1     -43.664  58.114 -59.481  1.00  0.00     0.279 HD
HETATM   32  C   UNL     1     -41.916  58.286 -58.427  1.00  0.00     0.269 C 
HETATM   33  C   UNL     1     -42.671  56.341 -59.778  1.00  0.00     0.269 C 
ENDBRANCH  29  30
ENDBRANCH   8  29
BRANCH   7  34
HETATM   34  O   UNL     1     -45.575  59.316 -58.441  1.00  0.00    -0.359 OA
HETATM   35  H   UNL     1     -45.323  60.219 -58.741  1.00  0.00     0.218 HD
ENDBRANCH   7  34
TORSDOF 9
ENDMDL
MODEL 10
REMARK VINA RESULT:      -6.0      2.776      5.321
REMARK  9 active torsions:
REMARK  status: ('A' for Active; 'I' for Inactive)
REMARK    1  A    between atoms: C_2  and  O_3 
REMARK    2  A    between atoms: O_3  and  C_4 
REMARK    3  A    between atoms: C_4  and  C_5 
REMARK    4  A    between atoms: C_11  and  O_12 
REMARK    5  A    between atoms: C_13  and  C_14 
REMARK    6  A    between atoms: C_14  and  N_15 
REMARK    7  A    between atoms: N_19  and  C_20 
REMARK    8  A    between atoms: C_26  and  C_27 
REMARK    9  A    between atoms: C_27  and  N_28 
ROOT
HETATM    1  C   UNL     1     -42.975  58.920 -56.756  1.00  0.00     0.077 A 
HETATM    2  C   UNL     1     -42.687  59.350 -55.396  1.00  0.00     0.020 A 
HETATM    3  C   UNL     1     -42.243  58.206 -54.715  1.00  0.00     0.053 A 
HETATM    4  C   UNL     1     -41.940  58.220 -53.340  1.00  0.00     0.053 A 
HETATM    5  C   UNL     1     -42.082  59.407 -52.638  1.00  0.00     0.047 A 
HETATM    6 BR   UNL     1     -41.705  59.415 -50.780  1.00  0.00    -0.048 Br
HETATM    7  C   UNL     1     -42.504  60.564 -53.286  1.00  0.00     0.092 A 
HETATM    8  C   UNL     1     -42.778  60.599 -54.677  1.00  0.00     0.016 A 
HETATM    9  N   UNL     1     -42.264  57.129 -55.596  1.00  0.00    -0.312 N 
HETATM   10  C   UNL     1     -42.647  57.561 -56.857  1.00  0.00     0.060 A 
ENDROOT
BRANCH  10  11
HETATM   11  C   UNL     1     -42.687  56.639 -58.045  1.00  0.00     0.293 C 
BRANCH  11  12
HETATM   12  N   UNL     1     -44.035  56.016 -58.285  1.00  0.00    -0.066 N 
HETATM   13  H   UNL     1     -44.526  55.986 -57.381  1.00  0.00     0.280 HD
HETATM   14  C   UNL     1     -44.024  54.609 -58.846  1.00  0.00     0.235 C 
HETATM   15  C   UNL     1     -44.597  54.745 -60.240  1.00  0.00     0.029 C 
HETATM   16  C   UNL     1     -45.628  55.840 -60.075  1.00  0.00     0.029 C 
HETATM   17  C   UNL     1     -44.909  56.856 -59.210  1.00  0.00     0.235 C 
ENDBRANCH  11  12
ENDBRANCH  10  11
BRANCH   1  18
HETATM   18  C   UNL     1     -43.541  59.741 -57.833  1.00  0.00     0.296 C 
HETATM   19  O   UNL     1     -44.734  59.994 -57.910  1.00  0.00    -0.259 OA
BRANCH  18  20
HETATM   20  O   UNL     1     -42.595  60.218 -58.690  1.00  0.00    -0.318 OA
BRANCH  20  21
HETATM   21  C   UNL     1     -42.889  60.080 -60.094  1.00  0.00     0.174 C 
HETATM   22  C   UNL     1     -41.956  59.064 -60.723  1.00  0.00     0.034 C 
ENDBRANCH  20  21
ENDBRANCH  18  20
ENDBRANCH   1  18
BRANCH   9  23
HETATM   23  C   UNL     1     -41.929  55.795 -55.244  1.00  0.00     0.040 A 
HETATM   24  C   UNL     1     -40.584  55.426 -55.125  1.00  0.00     0.030 A 
HETATM   25  C   UNL     1     -40.258  54.118 -54.770  1.00  0.00     0.002 A 
HETATM   26  C   UNL     1     -41.268  53.185 -54.540  1.00  0.00     0.000 A 
HETATM   27  C   UNL     1     -42.608  53.553 -54.673  1.00  0.00     0.002 A 
HETATM   28  C   UNL     1     -42.945  54.858 -55.031  1.00  0.00     0.030 A 
ENDBRANCH   9  23
BRANCH   8  29
HETATM   29  C   UNL     1     -43.252  61.895 -55.324  1.00  0.00     0.276 C 
BRANCH  29  30
HETATM   30  N   UNL     1     -44.606  62.427 -54.905  1.00  0.00    -0.075 N 
HETATM   31  H   UNL     1     -44.458  62.768 -53.938  1.00  0.00     0.279 HD
HETATM   32  C   UNL     1     -45.062  63.603 -55.708  1.00  0.00     0.269 C 
HETATM   33  C   UNL     1     -45.644  61.350 -54.833  1.00  0.00     0.269 C 
ENDBRANCH  29  30
ENDBRANCH   8  29
BRANCH   7  34
HETATM   34  O   UNL     1     -42.677  61.721 -52.555  1.00  0.00    -0.359 OA
HETATM   35  H   UNL     1     -41.965  61.738 -51.875  1.00  0.00     0.218 HD
ENDBRANCH   7  34
TORSDOF 9
ENDMDL
