MODEL 1
REMARK VINA RESULT:      -9.0      0.000      0.000
REMARK  4 active torsions:
REMARK  status: ('A' for Active; 'I' for Inactive)
REMARK    1  A    between atoms: C_3  and  C_4 
REMARK    2  A    between atoms: C_5  and  C_6 
REMARK       I    between atoms: C_6  and  N_7 
REMARK    3  A    between atoms: N_7  and  C_8 
REMARK    4  A    between atoms: C_15  and  C_16 
REMARK       I    between atoms: C_16  and  N_17 
ROOT
HETATM    1  C   UNL     1     -43.466  57.294 -54.634  1.00  0.00     0.035 A 
HETATM    2  C   UNL     1     -43.881  57.735 -53.371  1.00  0.00     0.046 A 
HETATM    3  C   UNL     1     -44.767  58.831 -53.269  1.00  0.00     0.030 A 
HETATM    4  C   UNL     1     -45.209  59.446 -54.433  1.00  0.00     0.063 A 
HETATM    5  N   UNL     1     -46.031  60.457 -54.019  1.00  0.00    -0.277 N 
HETATM    6  H   UNL     1     -46.530  61.120 -54.602  1.00  0.00     0.189 HD
HETATM    7  N   UNL     1     -46.170  60.552 -52.687  1.00  0.00    -0.168 NA
HETATM    8  C   UNL     1     -45.395  59.552 -52.208  1.00  0.00     0.156 A 
HETATM    9  C   UNL     1     -44.823  59.030 -55.708  1.00  0.00     0.034 A 
HETATM   10  C   UNL     1     -43.945  57.940 -55.782  1.00  0.00     0.032 A 
ENDROOT
BRANCH   1  11
HETATM   11  N   UNL     1     -42.569  56.222 -54.836  1.00  0.00    -0.327 N 
HETATM   12  C   UNL     1     -42.804  54.882 -54.612  1.00  0.00     0.227 C 
HETATM   13  O   UNL     1     -43.844  54.375 -54.222  1.00  0.00    -0.273 OA
HETATM   14  H   UNL     1     -41.640  56.477 -55.136  1.00  0.00     0.169 HD
BRANCH  12  15
HETATM   15  C   UNL     1     -41.646  53.966 -54.839  1.00  0.00     0.087 A 
HETATM   16  C   UNL     1     -40.610  53.770 -53.736  1.00  0.00     0.034 A 
HETATM   17  C   UNL     1     -40.221  54.381 -55.063  1.00  0.00     0.025 A 
BRANCH  16  18
HETATM   18  C   UNL     1     -40.224  52.354 -53.352  1.00  0.00    -0.031 A 
HETATM   19  C   UNL     1     -40.266  51.338 -54.329  1.00  0.00     0.009 A 
HETATM   20  C   UNL     1     -39.948  50.011 -54.030  1.00  0.00     0.001 A 
HETATM   21  C   UNL     1     -39.582  49.660 -52.735  1.00  0.00     0.002 A 
HETATM   22  C   UNL     1     -39.545  50.636 -51.742  1.00  0.00     0.024 A 
HETATM   23  C   UNL     1     -39.871  51.964 -52.045  1.00  0.00     0.040 A 
HETATM   24 CL   UNL     1     -39.852  53.106 -50.745  1.00  0.00    -0.084 Cl
ENDBRANCH  16  18
ENDBRANCH  12  15
ENDBRANCH   1  11
BRANCH   8  25
HETATM   25  C   UNL     1     -45.273  59.309 -50.764  1.00  0.00     0.270 C 
HETATM   26  N   UNL     1     -44.101  59.758 -50.218  1.00  0.00    -0.365 N 
HETATM   27  H   UNL     1     -43.427  60.212 -50.822  1.00  0.00     0.159 HD
HETATM   28  H   UNL     1     -43.933  59.640 -49.232  1.00  0.00     0.159 HD
HETATM   29  O   UNL     1     -46.123  58.759 -50.072  1.00  0.00    -0.266 OA
ENDBRANCH   8  25
TORSDOF 4
ENDMDL
MODEL 2
REMARK VINA RESULT:      -8.8      1.841      1.914
REMARK  4 active torsions:
REMARK  status: ('A' for Active; 'I' for Inactive)
REMARK    1  A    between atoms: C_3  and  C_4 
REMARK    2  A    between atoms: C_5  and  C_6 
REMARK       I    between atoms: C_6  and  N_7 
REMARK    3  A    between atoms: N_7  and  C_8 
REMARK    4  A    between atoms: C_15  and  C_16 
REMARK       I    between atoms: C_16  and  N_17 
ROOT
HETATM    1  C   UNL     1     -42.644  57.714 -53.198  1.00  0.00     0.035 A 
HETATM    2  C   UNL     1     -43.562  58.123 -52.222  1.00  0.00     0.046 A 
HETATM    3  C   UNL     1     -43.661  59.491 -51.884  1.00  0.00     0.030 A 
HETATM    4  C   UNL     1     -42.841  60.403 -52.535  1.00  0.00     0.063 A 
HETATM    5  N   UNL     1     -43.157  61.621 -52.000  1.00  0.00    -0.277 N 
HETATM    6  H   UNL     1     -42.750  62.519 -52.236  1.00  0.00     0.189 HD
HETATM    7  N   UNL     1     -44.115  61.585 -51.060  1.00  0.00    -0.168 NA
HETATM    8  C   UNL     1     -44.439  60.273 -50.978  1.00  0.00     0.156 A 
HETATM    9  C   UNL     1     -41.921  60.034 -53.518  1.00  0.00     0.034 A 
HETATM   10  C   UNL     1     -41.843  58.672 -53.836  1.00  0.00     0.032 A 
ENDROOT
BRANCH   1  11
HETATM   11  N   UNL     1     -42.459  56.370 -53.588  1.00  0.00    -0.327 N 
HETATM   12  C   UNL     1     -42.231  55.284 -52.769  1.00  0.00     0.227 C 
HETATM   13  O   UNL     1     -42.175  55.286 -51.549  1.00  0.00    -0.273 OA
HETATM   14  H   UNL     1     -42.449  56.198 -54.583  1.00  0.00     0.169 HD
BRANCH  12  15
HETATM   15  C   UNL     1     -41.993  53.980 -53.458  1.00  0.00     0.087 A 
HETATM   16  C   UNL     1     -40.565  53.529 -53.750  1.00  0.00     0.034 A 
HETATM   17  C   UNL     1     -41.537  53.799 -54.876  1.00  0.00     0.025 A 
BRANCH  16  18
HETATM   18  C   UNL     1     -40.157  52.123 -53.352  1.00  0.00    -0.031 A 
HETATM   19  C   UNL     1     -40.134  51.108 -54.330  1.00  0.00     0.009 A 
HETATM   20  C   UNL     1     -39.793  49.790 -54.020  1.00  0.00     0.001 A 
HETATM   21  C   UNL     1     -39.468  49.447 -52.712  1.00  0.00     0.002 A 
HETATM   22  C   UNL     1     -39.496  50.422 -51.718  1.00  0.00     0.024 A 
HETATM   23  C   UNL     1     -39.845  51.741 -52.033  1.00  0.00     0.040 A 
HETATM   24 CL   UNL     1     -39.906  52.880 -50.733  1.00  0.00    -0.084 Cl
ENDBRANCH  16  18
ENDBRANCH  12  15
ENDBRANCH   1  11
BRANCH   8  25
HETATM   25  C   UNL     1     -45.473  59.803 -50.046  1.00  0.00     0.270 C 
HETATM   26  N   UNL     1     -45.379  60.339 -48.790  1.00  0.00    -0.365 N 
HETATM   27  H   UNL     1     -44.637  61.001 -48.599  1.00  0.00     0.159 HD
HETATM   28  H   UNL     1     -46.051  60.078 -48.086  1.00  0.00     0.159 HD
HETATM   29  O   UNL     1     -46.359  59.003 -50.328  1.00  0.00    -0.266 OA
ENDBRANCH   8  25
TORSDOF 4
ENDMDL
MODEL 3
REMARK VINA RESULT:      -8.4      3.445      5.175
REMARK  4 active torsions:
REMARK  status: ('A' for Active; 'I' for Inactive)
REMARK    1  A    between atoms: C_3  and  C_4 
REMARK    2  A    between atoms: C_5  and  C_6 
REMARK       I    between atoms: C_6  and  N_7 
REMARK    3  A    between atoms: N_7  and  C_8 
REMARK    4  A    between atoms: C_15  and  C_16 
REMARK       I    between atoms: C_16  and  N_17 
ROOT
HETATM    1  C   UNL     1     -42.446  57.267 -56.957  1.00  0.00     0.035 A 
HETATM    2  C   UNL     1     -43.243  56.666 -57.940  1.00  0.00     0.046 A 
HETATM    3  C   UNL     1     -43.909  57.471 -58.891  1.00  0.00     0.030 A 
HETATM    4  C   UNL     1     -43.753  58.850 -58.827  1.00  0.00     0.063 A 
HETATM    5  N   UNL     1     -44.509  59.348 -59.851  1.00  0.00    -0.277 N 
HETATM    6  H   UNL     1     -44.635  60.321 -60.104  1.00  0.00     0.189 HD
HETATM    7  N   UNL     1     -45.140  58.415 -60.583  1.00  0.00    -0.168 NA
HETATM    8  C   UNL     1     -44.777  57.247 -60.001  1.00  0.00     0.156 A 
HETATM    9  C   UNL     1     -42.962  59.484 -57.867  1.00  0.00     0.034 A 
HETATM   10  C   UNL     1     -42.311  58.662 -56.937  1.00  0.00     0.032 A 
ENDROOT
BRANCH   1  11
HETATM   11  N   UNL     1     -41.758  56.548 -55.955  1.00  0.00    -0.327 N 
HETATM   12  C   UNL     1     -42.155  56.344 -54.650  1.00  0.00     0.227 C 
HETATM   13  O   UNL     1     -43.192  56.727 -54.131  1.00  0.00    -0.273 OA
HETATM   14  H   UNL     1     -40.854  56.184 -56.218  1.00  0.00     0.169 HD
BRANCH  12  15
HETATM   15  C   UNL     1     -41.192  55.606 -53.779  1.00  0.00     0.087 A 
HETATM   16  C   UNL     1     -41.672  54.405 -52.969  1.00  0.00     0.034 A 
HETATM   17  C   UNL     1     -41.147  55.644 -52.280  1.00  0.00     0.025 A 
BRANCH  16  18
HETATM   18  C   UNL     1     -40.872  53.118 -53.043  1.00  0.00    -0.031 A 
HETATM   19  C   UNL     1     -40.941  52.329 -54.210  1.00  0.00     0.009 A 
HETATM   20  C   UNL     1     -40.249  51.122 -54.327  1.00  0.00     0.001 A 
HETATM   21  C   UNL     1     -39.468  50.664 -53.271  1.00  0.00     0.002 A 
HETATM   22  C   UNL     1     -39.390  51.412 -52.098  1.00  0.00     0.024 A 
HETATM   23  C   UNL     1     -40.091  52.619 -51.983  1.00  0.00     0.040 A 
HETATM   24 CL   UNL     1     -39.984  53.461 -50.475  1.00  0.00    -0.084 Cl
ENDBRANCH  16  18
ENDBRANCH  12  15
ENDBRANCH   1  11
BRANCH   8  25
HETATM   25  C   UNL     1     -45.263  55.959 -60.515  1.00  0.00     0.270 C 
HETATM   26  N   UNL     1     -46.456  55.558 -59.978  1.00  0.00    -0.365 N 
HETATM   27  H   UNL     1     -46.907  56.154 -59.295  1.00  0.00     0.159 HD
HETATM   28  H   UNL     1     -46.869  54.689 -60.276  1.00  0.00     0.159 HD
HETATM   29  O   UNL     1     -44.683  55.275 -61.351  1.00  0.00    -0.266 OA
ENDBRANCH   8  25
TORSDOF 4
ENDMDL
MODEL 4
REMARK VINA RESULT:      -8.2      2.052      2.773
REMARK  4 active torsions:
REMARK  status: ('A' for Active; 'I' for Inactive)
REMARK    1  A    between atoms: C_3  and  C_4 
REMARK    2  A    between atoms: C_5  and  C_6 
REMARK       I    between atoms: C_6  and  N_7 
REMARK    3  A    between atoms: N_7  and  C_8 
REMARK    4  A    between atoms: C_15  and  C_16 
REMARK       I    between atoms: C_16  and  N_17 
ROOT
HETATM    1  C   UNL     1     -41.989  57.590 -52.801  1.00  0.00     0.035 A 
HETATM    2  C   UNL     1     -42.920  58.491 -53.335  1.00  0.00     0.046 A 
HETATM    3  C   UNL     1     -43.165  59.716 -52.676  1.00  0.00     0.030 A 
HETATM    4  C   UNL     1     -42.470  59.999 -51.508  1.00  0.00     0.063 A 
HETATM    5  N   UNL     1     -42.918  61.227 -51.108  1.00  0.00    -0.277 N 
HETATM    6  H   UNL     1     -42.631  61.748 -50.287  1.00  0.00     0.189 HD
HETATM    7  N   UNL     1     -43.841  61.774 -51.916  1.00  0.00    -0.168 NA
HETATM    8  C   UNL     1     -44.004  60.851 -52.893  1.00  0.00     0.156 A 
HETATM    9  C   UNL     1     -41.530  59.129 -50.950  1.00  0.00     0.034 A 
HETATM   10  C   UNL     1     -41.304  57.922 -51.624  1.00  0.00     0.032 A 
ENDROOT
BRANCH   1  11
HETATM   11  N   UNL     1     -41.692  56.335 -53.377  1.00  0.00    -0.327 N 
HETATM   12  C   UNL     1     -42.395  55.158 -53.228  1.00  0.00     0.227 C 
HETATM   13  O   UNL     1     -43.424  54.995 -52.590  1.00  0.00    -0.273 OA
HETATM   14  H   UNL     1     -40.842  56.291 -53.920  1.00  0.00     0.169 HD
BRANCH  12  15
HETATM   15  C   UNL     1     -41.809  53.955 -53.891  1.00  0.00     0.087 A 
HETATM   16  C   UNL     1     -40.357  53.574 -53.621  1.00  0.00     0.034 A 
HETATM   17  C   UNL     1     -40.810  53.960 -55.010  1.00  0.00     0.025 A 
BRANCH  16  18
HETATM   18  C   UNL     1     -40.045  52.140 -53.239  1.00  0.00    -0.031 A 
HETATM   19  C   UNL     1     -40.022  51.148 -54.242  1.00  0.00     0.009 A 
HETATM   20  C   UNL     1     -39.767  49.807 -53.948  1.00  0.00     0.001 A 
HETATM   21  C   UNL     1     -39.533  49.416 -52.635  1.00  0.00     0.002 A 
HETATM   22  C   UNL     1     -39.564  50.367 -51.618  1.00  0.00     0.024 A 
HETATM   23  C   UNL     1     -39.825  51.710 -51.916  1.00  0.00     0.040 A 
HETATM   24 CL   UNL     1     -39.898  52.820 -50.591  1.00  0.00    -0.084 Cl
ENDBRANCH  16  18
ENDBRANCH  12  15
ENDBRANCH   1  11
BRANCH   8  25
HETATM   25  C   UNL     1     -44.946  61.072 -53.998  1.00  0.00     0.270 C 
HETATM   26  N   UNL     1     -46.232  60.693 -53.721  1.00  0.00    -0.365 N 
HETATM   27  H   UNL     1     -46.438  60.306 -52.809  1.00  0.00     0.159 HD
HETATM   28  H   UNL     1     -46.948  60.814 -54.419  1.00  0.00     0.159 HD
HETATM   29  O   UNL     1     -44.649  61.553 -55.086  1.00  0.00    -0.266 OA
ENDBRANCH   8  25
TORSDOF 4
ENDMDL
MODEL 5
REMARK VINA RESULT:      -8.2      4.314      8.484
REMARK  4 active torsions:
REMARK  status: ('A' for Active; 'I' for Inactive)
REMARK    1  A    between atoms: C_3  and  C_4 
REMARK    2  A    between atoms: C_5  and  C_6 
REMARK       I    between atoms: C_6  and  N_7 
REMARK    3  A    between atoms: N_7  and  C_8 
REMARK    4  A    between atoms: C_15  and  C_16 
REMARK       I    between atoms: C_16  and  N_17 
ROOT
HETATM    1  C   UNL     1     -41.045  54.557 -54.249  1.00  0.00     0.035 A 
HETATM    2  C   UNL     1     -40.613  53.227 -54.160  1.00  0.00     0.046 A 
HETATM    3  C   UNL     1     -40.318  52.670 -52.896  1.00  0.00     0.030 A 
HETATM    4  C   UNL     1     -40.468  53.460 -51.764  1.00  0.00     0.063 A 
HETATM    5  N   UNL     1     -40.108  52.662 -50.715  1.00  0.00    -0.277 N 
HETATM    6  H   UNL     1     -40.091  52.911 -49.732  1.00  0.00     0.189 HD
HETATM    7  N   UNL     1     -39.742  51.417 -51.061  1.00  0.00    -0.168 NA
HETATM    8  C   UNL     1     -39.868  51.406 -52.409  1.00  0.00     0.156 A 
HETATM    9  C   UNL     1     -40.902  54.786 -51.813  1.00  0.00     0.034 A 
HETATM   10  C   UNL     1     -41.190  55.315 -53.078  1.00  0.00     0.032 A 
ENDROOT
BRANCH   1  11
HETATM   11  N   UNL     1     -41.344  55.207 -55.466  1.00  0.00    -0.327 N 
HETATM   12  C   UNL     1     -42.462  55.033 -56.255  1.00  0.00     0.227 C 
HETATM   13  O   UNL     1     -43.414  54.302 -56.026  1.00  0.00    -0.273 OA
HETATM   14  H   UNL     1     -40.635  55.834 -55.816  1.00  0.00     0.169 HD
BRANCH  12  15
HETATM   15  C   UNL     1     -42.486  55.797 -57.538  1.00  0.00     0.087 A 
HETATM   16  C   UNL     1     -43.412  57.001 -57.684  1.00  0.00     0.034 A 
HETATM   17  C   UNL     1     -43.587  55.780 -58.558  1.00  0.00     0.025 A 
BRANCH  16  18
HETATM   18  C   UNL     1     -42.830  58.299 -58.212  1.00  0.00    -0.031 A 
HETATM   19  C   UNL     1     -42.853  58.552 -59.599  1.00  0.00     0.009 A 
HETATM   20  C   UNL     1     -42.310  59.716 -60.148  1.00  0.00     0.001 A 
HETATM   21  C   UNL     1     -41.719  60.663 -59.319  1.00  0.00     0.002 A 
HETATM   22  C   UNL     1     -41.666  60.438 -57.945  1.00  0.00     0.024 A 
HETATM   23  C   UNL     1     -42.207  59.267 -57.401  1.00  0.00     0.040 A 
HETATM   24 CL   UNL     1     -42.053  59.038 -55.693  1.00  0.00    -0.084 Cl
ENDBRANCH  16  18
ENDBRANCH  12  15
ENDBRANCH   1  11
BRANCH   8  25
HETATM   25  C   UNL     1     -39.560  50.201 -53.191  1.00  0.00     0.270 C 
HETATM   26  N   UNL     1     -39.440  49.062 -52.441  1.00  0.00    -0.365 N 
HETATM   27  H   UNL     1     -39.572  49.126 -51.439  1.00  0.00     0.159 HD
HETATM   28  H   UNL     1     -39.236  48.186 -52.894  1.00  0.00     0.159 HD
HETATM   29  O   UNL     1     -39.416  50.174 -54.409  1.00  0.00    -0.266 OA
ENDBRANCH   8  25
TORSDOF 4
ENDMDL
MODEL 6
REMARK VINA RESULT:      -8.2      3.508      4.443
REMARK  4 active torsions:
REMARK  status: ('A' for Active; 'I' for Inactive)
REMARK    1  A    between atoms: C_3  and  C_4 
REMARK    2  A    between atoms: C_5  and  C_6 
REMARK       I    between atoms: C_6  and  N_7 
REMARK    3  A    between atoms: N_7  and  C_8 
REMARK    4  A    between atoms: C_15  and  C_16 
REMARK       I    between atoms: C_16  and  N_17 
ROOT
HETATM    1  C   UNL     1     -43.242  56.175 -58.127  1.00  0.00     0.035 A 
HETATM    2  C   UNL     1     -44.047  57.280 -57.823  1.00  0.00     0.046 A 
HETATM    3  C   UNL     1     -44.966  57.762 -58.782  1.00  0.00     0.030 A 
HETATM    4  C   UNL     1     -45.050  57.120 -60.011  1.00  0.00     0.063 A 
HETATM    5  N   UNL     1     -46.001  57.806 -60.713  1.00  0.00    -0.277 N 
HETATM    6  H   UNL     1     -46.322  57.618 -61.656  1.00  0.00     0.189 HD
HETATM    7  N   UNL     1     -46.551  58.835 -60.048  1.00  0.00    -0.168 NA
HETATM    8  C   UNL     1     -45.921  58.821 -58.850  1.00  0.00     0.156 A 
HETATM    9  C   UNL     1     -44.270  56.012 -60.347  1.00  0.00     0.034 A 
HETATM   10  C   UNL     1     -43.368  55.553 -59.378  1.00  0.00     0.032 A 
ENDROOT
BRANCH   1  11
HETATM   11  N   UNL     1     -42.282  55.634 -57.243  1.00  0.00    -0.327 N 
HETATM   12  C   UNL     1     -42.479  55.232 -55.939  1.00  0.00     0.227 C 
HETATM   13  O   UNL     1     -43.531  55.246 -55.319  1.00  0.00    -0.273 OA
HETATM   14  H   UNL     1     -41.339  55.581 -57.598  1.00  0.00     0.169 HD
BRANCH  12  15
HETATM   15  C   UNL     1     -41.264  54.766 -55.205  1.00  0.00     0.087 A 
HETATM   16  C   UNL     1     -41.408  54.160 -53.813  1.00  0.00     0.034 A 
HETATM   17  C   UNL     1     -40.632  55.440 -54.023  1.00  0.00     0.025 A 
BRANCH  16  18
HETATM   18  C   UNL     1     -40.725  52.835 -53.528  1.00  0.00    -0.031 A 
HETATM   19  C   UNL     1     -40.764  51.815 -54.501  1.00  0.00     0.009 A 
HETATM   20  C   UNL     1     -40.177  50.567 -54.286  1.00  0.00     0.001 A 
HETATM   21  C   UNL     1     -39.535  50.300 -53.082  1.00  0.00     0.002 A 
HETATM   22  C   UNL     1     -39.491  51.280 -52.093  1.00  0.00     0.024 A 
HETATM   23  C   UNL     1     -40.087  52.528 -52.311  1.00  0.00     0.040 A 
HETATM   24 CL   UNL     1     -40.034  53.672 -51.014  1.00  0.00    -0.084 Cl
ENDBRANCH  16  18
ENDBRANCH  12  15
ENDBRANCH   1  11
BRANCH   8  25
HETATM   25  C   UNL     1     -46.243  59.807 -57.810  1.00  0.00     0.270 C 
HETATM   26  N   UNL     1     -47.444  59.594 -57.190  1.00  0.00    -0.365 N 
HETATM   27  H   UNL     1     -48.003  58.799 -57.475  1.00  0.00     0.159 HD
HETATM   28  H   UNL     1     -47.744  60.218 -56.458  1.00  0.00     0.159 HD
HETATM   29  O   UNL     1     -45.526  60.752 -57.495  1.00  0.00    -0.266 OA
ENDBRANCH   8  25
TORSDOF 4
ENDMDL
MODEL 7
REMARK VINA RESULT:      -8.2      2.140      2.871
REMARK  4 active torsions:
REMARK  status: ('A' for Active; 'I' for Inactive)
REMARK    1  A    between atoms: C_3  and  C_4 
REMARK    2  A    between atoms: C_5  and  C_6 
REMARK       I    between atoms: C_6  and  N_7 
REMARK    3  A    between atoms: N_7  and  C_8 
REMARK    4  A    between atoms: C_15  and  C_16 
REMARK       I    between atoms: C_16  and  N_17 
ROOT
HETATM    1  C   UNL     1     -44.942  58.208 -51.913  1.00  0.00     0.035 A 
HETATM    2  C   UNL     1     -45.144  58.550 -50.569  1.00  0.00     0.046 A 
HETATM    3  C   UNL     1     -45.540  59.863 -50.233  1.00  0.00     0.030 A 
HETATM    4  C   UNL     1     -45.723  60.789 -51.252  1.00  0.00     0.063 A 
HETATM    5  N   UNL     1     -46.091  61.948 -50.627  1.00  0.00    -0.277 N 
HETATM    6  H   UNL     1     -46.303  62.839 -51.062  1.00  0.00     0.189 HD
HETATM    7  N   UNL     1     -46.170  61.859 -49.290  1.00  0.00    -0.168 NA
HETATM    8  C   UNL     1     -45.833  60.574 -49.030  1.00  0.00     0.156 A 
HETATM    9  C   UNL     1     -45.539  60.483 -52.602  1.00  0.00     0.034 A 
HETATM   10  C   UNL     1     -45.148  59.173 -52.909  1.00  0.00     0.032 A 
ENDROOT
BRANCH   1  11
HETATM   11  N   UNL     1     -44.527  56.929 -52.344  1.00  0.00    -0.327 N 
HETATM   12  C   UNL     1     -43.343  56.288 -52.045  1.00  0.00     0.227 C 
HETATM   13  O   UNL     1     -42.447  56.702 -51.325  1.00  0.00    -0.273 OA
HETATM   14  H   UNL     1     -45.152  56.455 -52.979  1.00  0.00     0.169 HD
BRANCH  12  15
HETATM   15  C   UNL     1     -43.129  54.964 -52.702  1.00  0.00     0.087 A 
HETATM   16  C   UNL     1     -41.882  54.734 -53.550  1.00  0.00     0.034 A 
HETATM   17  C   UNL     1     -43.260  54.673 -54.169  1.00  0.00     0.025 A 
BRANCH  16  18
HETATM   18  C   UNL     1     -41.053  53.490 -53.293  1.00  0.00    -0.031 A 
HETATM   19  C   UNL     1     -40.988  52.487 -54.283  1.00  0.00     0.009 A 
HETATM   20  C   UNL     1     -40.264  51.308 -54.094  1.00  0.00     0.001 A 
HETATM   21  C   UNL     1     -39.585  51.095 -52.900  1.00  0.00     0.002 A 
HETATM   22  C   UNL     1     -39.641  52.058 -51.895  1.00  0.00     0.024 A 
HETATM   23  C   UNL     1     -40.373  53.236 -52.087  1.00  0.00     0.040 A 
HETATM   24 CL   UNL     1     -40.436  54.357 -50.771  1.00  0.00    -0.084 Cl
ENDBRANCH  16  18
ENDBRANCH  12  15
ENDBRANCH   1  11
BRANCH   8  25
HETATM   25  C   UNL     1     -45.799  60.060 -47.654  1.00  0.00     0.270 C 
HETATM   26  N   UNL     1     -44.824  60.618 -46.873  1.00  0.00    -0.365 N 
HETATM   27  H   UNL     1     -44.220  61.322 -47.279  1.00  0.00     0.159 HD
HETATM   28  H   UNL     1     -44.730  60.330 -45.912  1.00  0.00     0.159 HD
HETATM   29  O   UNL     1     -46.560  59.209 -47.205  1.00  0.00    -0.266 OA
ENDBRANCH   8  25
TORSDOF 4
ENDMDL
MODEL 8
REMARK VINA RESULT:      -8.1      4.053      7.641
REMARK  4 active torsions:
REMARK  status: ('A' for Active; 'I' for Inactive)
REMARK    1  A    between atoms: C_3  and  C_4 
REMARK    2  A    between atoms: C_5  and  C_6 
REMARK       I    between atoms: C_6  and  N_7 
REMARK    3  A    between atoms: N_7  and  C_8 
REMARK    4  A    between atoms: C_15  and  C_16 
REMARK       I    between atoms: C_16  and  N_17 
ROOT
HETATM    1  C   UNL     1     -40.875  54.184 -54.422  1.00  0.00     0.035 A 
HETATM    2  C   UNL     1     -41.190  54.513 -53.097  1.00  0.00     0.046 A 
HETATM    3  C   UNL     1     -40.818  53.639 -52.052  1.00  0.00     0.030 A 
HETATM    4  C   UNL     1     -40.142  52.467 -52.367  1.00  0.00     0.063 A 
HETATM    5  N   UNL     1     -39.929  51.839 -51.172  1.00  0.00    -0.277 N 
HETATM    6  H   UNL     1     -39.464  50.951 -51.019  1.00  0.00     0.189 HD
HETATM    7  N   UNL     1     -40.401  52.501 -50.103  1.00  0.00    -0.168 NA
HETATM    8  C   UNL     1     -40.953  53.618 -50.631  1.00  0.00     0.156 A 
HETATM    9  C   UNL     1     -39.805  52.110 -53.674  1.00  0.00     0.034 A 
HETATM   10  C   UNL     1     -40.183  52.995 -54.692  1.00  0.00     0.032 A 
ENDROOT
BRANCH   1  11
HETATM   11  N   UNL     1     -41.222  54.983 -55.534  1.00  0.00    -0.327 N 
HETATM   12  C   UNL     1     -42.407  54.968 -56.238  1.00  0.00     0.227 C 
HETATM   13  O   UNL     1     -43.387  54.276 -56.008  1.00  0.00    -0.273 OA
HETATM   14  H   UNL     1     -40.499  55.601 -55.874  1.00  0.00     0.169 HD
BRANCH  12  15
HETATM   15  C   UNL     1     -42.477  55.871 -57.426  1.00  0.00     0.087 A 
HETATM   16  C   UNL     1     -43.376  57.103 -57.387  1.00  0.00     0.034 A 
HETATM   17  C   UNL     1     -43.629  55.992 -58.379  1.00  0.00     0.025 A 
BRANCH  16  18
HETATM   18  C   UNL     1     -42.787  58.439 -57.800  1.00  0.00    -0.031 A 
HETATM   19  C   UNL     1     -42.777  58.797 -59.164  1.00  0.00     0.009 A 
HETATM   20  C   UNL     1     -42.226  60.001 -59.607  1.00  0.00     0.001 A 
HETATM   21  C   UNL     1     -41.660  60.884 -58.694  1.00  0.00     0.002 A 
HETATM   22  C   UNL     1     -41.640  60.554 -57.341  1.00  0.00     0.024 A 
HETATM   23  C   UNL     1     -42.188  59.343 -56.901  1.00  0.00     0.040 A 
HETATM   24 CL   UNL     1     -42.075  58.985 -55.212  1.00  0.00    -0.084 Cl
ENDBRANCH  16  18
ENDBRANCH  12  15
ENDBRANCH   1  11
BRANCH   8  25
HETATM   25  C   UNL     1     -41.590  54.628 -49.775  1.00  0.00     0.270 C 
HETATM   26  N   UNL     1     -40.966  54.816 -48.572  1.00  0.00    -0.365 N 
HETATM   27  H   UNL     1     -40.138  54.272 -48.365  1.00  0.00     0.159 HD
HETATM   28  H   UNL     1     -41.329  55.495 -47.923  1.00  0.00     0.159 HD
HETATM   29  O   UNL     1     -42.592  55.270 -50.075  1.00  0.00    -0.266 OA
ENDBRANCH   8  25
TORSDOF 4
ENDMDL
MODEL 9
REMARK VINA RESULT:      -8.1      4.106      7.884
REMARK  4 active torsions:
REMARK  status: ('A' for Active; 'I' for Inactive)
REMARK    1  A    between atoms: C_3  and  C_4 
REMARK    2  A    between atoms: C_5  and  C_6 
REMARK       I    between atoms: C_6  and  N_7 
REMARK    3  A    between atoms: N_7  and  C_8 
REMARK    4  A    between atoms: C_15  and  C_16 
REMARK       I    between atoms: C_16  and  N_17 
ROOT
HETATM    1  C   UNL     1     -41.241  54.505 -54.256  1.00  0.00     0.035 A 
HETATM    2  C   UNL     1     -41.383  54.570 -52.864  1.00  0.00     0.046 A 
HETATM    3  C   UNL     1     -40.836  53.548 -52.057  1.00  0.00     0.030 A 
HETATM    4  C   UNL     1     -40.164  52.498 -52.669  1.00  0.00     0.063 A 
HETATM    5  N   UNL     1     -39.763  51.681 -51.649  1.00  0.00    -0.277 N 
HETATM    6  H   UNL     1     -39.246  50.812 -51.726  1.00  0.00     0.189 HD
HETATM    7  N   UNL     1     -40.109  52.107 -50.424  1.00  0.00    -0.168 NA
HETATM    8  C   UNL     1     -40.774  53.263 -50.659  1.00  0.00     0.156 A 
HETATM    9  C   UNL     1     -39.995  52.404 -54.052  1.00  0.00     0.034 A 
HETATM   10  C   UNL     1     -40.545  53.431 -54.830  1.00  0.00     0.032 A 
ENDROOT
BRANCH   1  11
HETATM   11  N   UNL     1     -41.769  55.467 -55.145  1.00  0.00    -0.327 N 
HETATM   12  C   UNL     1     -43.093  55.811 -55.316  1.00  0.00     0.227 C 
HETATM   13  O   UNL     1     -44.051  55.362 -54.706  1.00  0.00    -0.273 OA
HETATM   14  H   UNL     1     -41.100  55.918 -55.753  1.00  0.00     0.169 HD
BRANCH  12  15
HETATM   15  C   UNL     1     -43.379  56.812 -56.387  1.00  0.00     0.087 A 
HETATM   16  C   UNL     1     -43.271  56.402 -57.853  1.00  0.00     0.034 A 
HETATM   17  C   UNL     1     -42.365  57.467 -57.279  1.00  0.00     0.025 A 
BRANCH  16  18
HETATM   18  C   UNL     1     -44.424  56.734 -58.782  1.00  0.00    -0.031 A 
HETATM   19  C   UNL     1     -44.937  58.047 -58.803  1.00  0.00     0.009 A 
HETATM   20  C   UNL     1     -46.014  58.407 -59.617  1.00  0.00     0.001 A 
HETATM   21  C   UNL     1     -46.615  57.455 -60.433  1.00  0.00     0.002 A 
HETATM   22  C   UNL     1     -46.143  56.145 -60.425  1.00  0.00     0.024 A 
HETATM   23  C   UNL     1     -45.067  55.788 -59.603  1.00  0.00     0.040 A 
HETATM   24 CL   UNL     1     -44.575  54.129 -59.612  1.00  0.00    -0.084 Cl
ENDBRANCH  16  18
ENDBRANCH  12  15
ENDBRANCH   1  11
BRANCH   8  25
HETATM   25  C   UNL     1     -41.327  54.060 -49.556  1.00  0.00     0.270 C 
HETATM   26  N   UNL     1     -40.507  54.148 -48.464  1.00  0.00    -0.365 N 
HETATM   27  H   UNL     1     -39.609  53.682 -48.492  1.00  0.00     0.159 HD
HETATM   28  H   UNL     1     -40.802  54.680 -47.661  1.00  0.00     0.159 HD
HETATM   29  O   UNL     1     -42.421  54.614 -49.572  1.00  0.00    -0.266 OA
ENDBRANCH   8  25
TORSDOF 4
ENDMDL
MODEL 10
REMARK VINA RESULT:      -8.1      3.743      5.074
REMARK  4 active torsions:
REMARK  status: ('A' for Active; 'I' for Inactive)
REMARK    1  A    between atoms: C_3  and  C_4 
REMARK    2  A    between atoms: C_5  and  C_6 
REMARK       I    between atoms: C_6  and  N_7 
REMARK    3  A    between atoms: N_7  and  C_8 
REMARK    4  A    between atoms: C_15  and  C_16 
REMARK       I    between atoms: C_16  and  N_17 
ROOT
HETATM    1  C   UNL     1     -42.575  56.351 -57.463  1.00  0.00     0.035 A 
HETATM    2  C   UNL     1     -42.443  57.680 -57.887  1.00  0.00     0.046 A 
HETATM    3  C   UNL     1     -43.143  58.121 -59.033  1.00  0.00     0.030 A 
HETATM    4  C   UNL     1     -43.950  57.219 -59.713  1.00  0.00     0.063 A 
HETATM    5  N   UNL     1     -44.478  57.924 -60.760  1.00  0.00    -0.277 N 
HETATM    6  H   UNL     1     -45.112  57.581 -61.472  1.00  0.00     0.189 HD
HETATM    7  N   UNL     1     -44.090  59.208 -60.819  1.00  0.00    -0.168 NA
HETATM    8  C   UNL     1     -43.264  59.346 -59.755  1.00  0.00     0.156 A 
HETATM    9  C   UNL     1     -44.111  55.890 -59.317  1.00  0.00     0.034 A 
HETATM   10  C   UNL     1     -43.409  55.478 -58.177  1.00  0.00     0.032 A 
ENDROOT
BRANCH   1  11
HETATM   11  N   UNL     1     -41.902  55.813 -56.344  1.00  0.00    -0.327 N 
HETATM   12  C   UNL     1     -42.003  56.222 -55.031  1.00  0.00     0.227 C 
HETATM   13  O   UNL     1     -42.718  57.110 -54.593  1.00  0.00    -0.273 OA
HETATM   14  H   UNL     1     -41.241  55.076 -56.541  1.00  0.00     0.169 HD
BRANCH  12  15
HETATM   15  C   UNL     1     -41.115  55.522 -54.055  1.00  0.00     0.087 A 
HETATM   16  C   UNL     1     -41.669  54.374 -53.217  1.00  0.00     0.034 A 
HETATM   17  C   UNL     1     -41.174  55.642 -52.561  1.00  0.00     0.025 A 
BRANCH  16  18
HETATM   18  C   UNL     1     -40.886  53.076 -53.164  1.00  0.00    -0.031 A 
HETATM   19  C   UNL     1     -40.867  52.235 -54.296  1.00  0.00     0.009 A 
HETATM   20  C   UNL     1     -40.186  51.015 -54.299  1.00  0.00     0.001 A 
HETATM   21  C   UNL     1     -39.506  50.597 -53.160  1.00  0.00     0.002 A 
HETATM   22  C   UNL     1     -39.518  51.397 -52.019  1.00  0.00     0.024 A 
HETATM   23  C   UNL     1     -40.207  52.616 -52.019  1.00  0.00     0.040 A 
HETATM   24 CL   UNL     1     -40.217  53.525 -50.547  1.00  0.00    -0.084 Cl
ENDBRANCH  16  18
ENDBRANCH  12  15
ENDBRANCH   1  11
BRANCH   8  25
HETATM   25  C   UNL     1     -42.617  60.631 -59.458  1.00  0.00     0.270 C 
HETATM   26  N   UNL     1     -41.704  61.029 -60.397  1.00  0.00    -0.365 N 
HETATM   27  H   UNL     1     -41.548  60.436 -61.202  1.00  0.00     0.159 HD
HETATM   28  H   UNL     1     -41.216  61.902 -60.278  1.00  0.00     0.159 HD
HETATM   29  O   UNL     1     -42.847  61.319 -58.468  1.00  0.00    -0.266 OA
ENDBRANCH   8  25
TORSDOF 4
ENDMDL
