MODEL 1
REMARK VINA RESULT:      -7.9      0.000      0.000
REMARK  9 active torsions:
REMARK  status: ('A' for Active; 'I' for Inactive)
REMARK    1  A    between atoms: C_2  and  N_3 
REMARK    2  A    between atoms: C_2  and  C_23 
REMARK       I    between atoms: N_3  and  C_4 
REMARK       I    between atoms: C_4  and  N_5 
REMARK    3  A    between atoms: N_5  and  C_6 
REMARK    4  A    between atoms: C_6  and  C_7 
REMARK    5  A    between atoms: C_7  and  N_8 
REMARK    6  A    between atoms: C_7  and  C_14 
REMARK    7  A    between atoms: C_15  and  O_16 
REMARK    8  A    between atoms: C_23  and  C_24 
REMARK    9  A    between atoms: C_27  and  O_28 
ROOT
HETATM    1  N   UNL     1     -42.391  55.715 -53.763  1.00  0.00    -0.339 N 
HETATM    2  C   UNL     1     -42.360  55.794 -55.123  1.00  0.00     0.316 C 
HETATM    3  N   UNL     1     -42.784  57.026 -55.566  1.00  0.00    -0.341 N 
HETATM    4  O   UNL     1     -42.078  54.879 -55.880  1.00  0.00    -0.248 OA
HETATM    5  H   UNL     1     -42.832  56.476 -53.269  1.00  0.00     0.164 HD
HETATM    6  H   UNL     1     -42.525  57.771 -54.930  1.00  0.00     0.164 HD
ENDROOT
BRANCH   3   7
HETATM    7  C   UNL     1     -42.661  57.353 -56.980  1.00  0.00     0.162 C 
BRANCH   7   8
HETATM    8  C   UNL     1     -43.901  57.980 -57.704  1.00  0.00     0.241 C 
BRANCH   8   9
HETATM    9  N   UNL     1     -43.562  59.344 -58.348  1.00  0.00    -0.061 N 
HETATM   10  H   UNL     1     -44.234  59.502 -59.104  1.00  0.00     0.280 HD
HETATM   11  C   UNL     1     -42.170  59.438 -58.963  1.00  0.00     0.236 C 
HETATM   12  C   UNL     1     -41.524  60.657 -58.330  1.00  0.00     0.029 C 
HETATM   13  C   UNL     1     -42.686  61.523 -57.912  1.00  0.00     0.029 C 
HETATM   14  C   UNL     1     -43.668  60.507 -57.375  1.00  0.00     0.236 C 
ENDBRANCH   8   9
BRANCH   8  15
HETATM   15  C   UNL     1     -44.390  56.946 -58.725  1.00  0.00     0.007 A 
HETATM   16  C   UNL     1     -45.630  57.131 -59.371  1.00  0.00     0.076 A 
HETATM   17  C   UNL     1     -46.085  56.186 -60.293  1.00  0.00     0.037 A 
HETATM   18  C   UNL     1     -45.333  55.042 -60.560  1.00  0.00     0.003 A 
HETATM   19  C   UNL     1     -44.126  54.831 -59.903  1.00  0.00     0.001 A 
HETATM   20  C   UNL     1     -43.658  55.771 -58.985  1.00  0.00     0.012 A 
BRANCH  16  21
HETATM   21  O   UNL     1     -46.309  58.273 -59.041  1.00  0.00    -0.355 OA
HETATM   22  C   UNL     1     -46.771  59.090 -60.114  1.00  0.00     0.210 C 
ENDBRANCH  16  21
ENDBRANCH   8  15
ENDBRANCH   7   8
ENDBRANCH   3   7
BRANCH   1  23
HETATM   23  C   UNL     1     -42.219  54.469 -53.012  1.00  0.00     0.086 C 
HETATM   24  C   UNL     1     -43.034  54.474 -51.716  1.00  0.00     0.032 C 
BRANCH  23  25
HETATM   25  C   UNL     1     -40.739  54.121 -52.722  1.00  0.00     0.063 C 
BRANCH  25  26
HETATM   26  C   UNL     1     -40.319  52.662 -52.778  1.00  0.00    -0.056 A 
HETATM   27  C   UNL     1     -39.916  52.045 -51.579  1.00  0.00     0.010 A 
HETATM   28  C   UNL     1     -39.540  50.699 -51.551  1.00  0.00     0.037 A 
HETATM   29  C   UNL     1     -39.555  49.964 -52.728  1.00  0.00     0.065 A 
HETATM   30  C   UNL     1     -39.963  50.545 -53.920  1.00  0.00     0.037 A 
HETATM   31  C   UNL     1     -40.365  51.883 -53.942  1.00  0.00     0.010 A 
BRANCH  29  32
HETATM   32  O   UNL     1     -39.179  48.656 -52.754  1.00  0.00    -0.361 OA
HETATM   33  H   UNL     1     -39.943  48.114 -53.016  1.00  0.00     0.217 HD
ENDBRANCH  29  32
ENDBRANCH  25  26
ENDBRANCH  23  25
ENDBRANCH   1  23
TORSDOF 9
ENDMDL
MODEL 2
REMARK VINA RESULT:      -7.5      1.832      3.807
REMARK  9 active torsions:
REMARK  status: ('A' for Active; 'I' for Inactive)
REMARK    1  A    between atoms: C_2  and  N_3 
REMARK    2  A    between atoms: C_2  and  C_23 
REMARK       I    between atoms: N_3  and  C_4 
REMARK       I    between atoms: C_4  and  N_5 
REMARK    3  A    between atoms: N_5  and  C_6 
REMARK    4  A    between atoms: C_6  and  C_7 
REMARK    5  A    between atoms: C_7  and  N_8 
REMARK    6  A    between atoms: C_7  and  C_14 
REMARK    7  A    between atoms: C_15  and  O_16 
REMARK    8  A    between atoms: C_23  and  C_24 
REMARK    9  A    between atoms: C_27  and  O_28 
ROOT
HETATM    1  N   UNL     1     -42.489  54.925 -55.824  1.00  0.00    -0.339 N 
HETATM    2  C   UNL     1     -42.303  56.274 -55.821  1.00  0.00     0.316 C 
HETATM    3  N   UNL     1     -42.274  56.782 -57.100  1.00  0.00    -0.341 N 
HETATM    4  O   UNL     1     -42.099  56.960 -54.831  1.00  0.00    -0.248 OA
HETATM    5  H   UNL     1     -42.444  54.457 -56.717  1.00  0.00     0.164 HD
HETATM    6  H   UNL     1     -42.891  56.278 -57.726  1.00  0.00     0.164 HD
ENDROOT
BRANCH   3   7
HETATM    7  C   UNL     1     -42.251  58.226 -57.290  1.00  0.00     0.162 C 
BRANCH   7   8
HETATM    8  C   UNL     1     -42.937  58.813 -58.571  1.00  0.00     0.241 C 
BRANCH   8   9
HETATM    9  N   UNL     1     -44.437  59.105 -58.337  1.00  0.00    -0.061 N 
HETATM   10  H   UNL     1     -44.651  59.997 -58.789  1.00  0.00     0.280 HD
HETATM   11  C   UNL     1     -44.847  59.237 -56.874  1.00  0.00     0.236 C 
HETATM   12  C   UNL     1     -45.991  58.257 -56.678  1.00  0.00     0.029 C 
HETATM   13  C   UNL     1     -46.582  58.092 -58.056  1.00  0.00     0.029 C 
HETATM   14  C   UNL     1     -45.352  58.047 -58.933  1.00  0.00     0.236 C 
ENDBRANCH   8   9
BRANCH   8  15
HETATM   15  C   UNL     1     -42.144  60.063 -58.968  1.00  0.00     0.007 A 
HETATM   16  C   UNL     1     -42.163  60.510 -60.305  1.00  0.00     0.076 A 
HETATM   17  C   UNL     1     -41.432  61.641 -60.674  1.00  0.00     0.037 A 
HETATM   18  C   UNL     1     -40.659  62.320 -59.731  1.00  0.00     0.003 A 
HETATM   19  C   UNL     1     -40.604  61.868 -58.417  1.00  0.00     0.001 A 
HETATM   20  C   UNL     1     -41.334  60.743 -58.036  1.00  0.00     0.012 A 
BRANCH  16  21
HETATM   21  O   UNL     1     -42.936  59.779 -61.166  1.00  0.00    -0.355 OA
HETATM   22  C   UNL     1     -44.077  60.426 -61.727  1.00  0.00     0.210 C 
ENDBRANCH  16  21
ENDBRANCH   8  15
ENDBRANCH   7   8
ENDBRANCH   3   7
BRANCH   1  23
HETATM   23  C   UNL     1     -42.336  54.075 -54.640  1.00  0.00     0.086 C 
HETATM   24  C   UNL     1     -43.204  54.564 -53.478  1.00  0.00     0.032 C 
BRANCH  23  25
HETATM   25  C   UNL     1     -40.866  53.905 -54.187  1.00  0.00     0.063 C 
BRANCH  25  26
HETATM   26  C   UNL     1     -40.430  52.552 -53.650  1.00  0.00    -0.056 A 
HETATM   27  C   UNL     1     -40.438  51.458 -54.535  1.00  0.00     0.010 A 
HETATM   28  C   UNL     1     -40.027  50.189 -54.117  1.00  0.00     0.037 A 
HETATM   29  C   UNL     1     -39.614  50.006 -52.805  1.00  0.00     0.065 A 
HETATM   30  C   UNL     1     -39.583  51.072 -51.917  1.00  0.00     0.037 A 
HETATM   31  C   UNL     1     -39.968  52.345 -52.343  1.00  0.00     0.010 A 
BRANCH  29  32
HETATM   32  O   UNL     1     -39.223  48.785 -52.346  1.00  0.00    -0.361 OA
HETATM   33  H   UNL     1     -38.605  48.392 -52.986  1.00  0.00     0.217 HD
ENDBRANCH  29  32
ENDBRANCH  25  26
ENDBRANCH  23  25
ENDBRANCH   1  23
TORSDOF 9
ENDMDL
MODEL 3
REMARK VINA RESULT:      -7.4      2.803      7.618
REMARK  9 active torsions:
REMARK  status: ('A' for Active; 'I' for Inactive)
REMARK    1  A    between atoms: C_2  and  N_3 
REMARK    2  A    between atoms: C_2  and  C_23 
REMARK       I    between atoms: N_3  and  C_4 
REMARK       I    between atoms: C_4  and  N_5 
REMARK    3  A    between atoms: N_5  and  C_6 
REMARK    4  A    between atoms: C_6  and  C_7 
REMARK    5  A    between atoms: C_7  and  N_8 
REMARK    6  A    between atoms: C_7  and  C_14 
REMARK    7  A    between atoms: C_15  and  O_16 
REMARK    8  A    between atoms: C_23  and  C_24 
REMARK    9  A    between atoms: C_27  and  O_28 
ROOT
HETATM    1  N   UNL     1     -45.593  57.730 -56.395  1.00  0.00    -0.339 N 
HETATM    2  C   UNL     1     -45.075  57.828 -55.139  1.00  0.00     0.316 C 
HETATM    3  N   UNL     1     -44.751  56.591 -54.630  1.00  0.00    -0.341 N 
HETATM    4  O   UNL     1     -44.979  58.858 -54.490  1.00  0.00    -0.248 OA
HETATM    5  H   UNL     1     -45.802  56.804 -56.735  1.00  0.00     0.164 HD
HETATM    6  H   UNL     1     -44.428  55.954 -55.349  1.00  0.00     0.164 HD
ENDROOT
BRANCH   3   7
HETATM    7  C   UNL     1     -44.031  56.510 -53.367  1.00  0.00     0.162 C 
BRANCH   7   8
HETATM    8  C   UNL     1     -42.507  56.874 -53.360  1.00  0.00     0.241 C 
BRANCH   8   9
HETATM    9  N   UNL     1     -42.093  57.591 -52.054  1.00  0.00    -0.061 N 
HETATM   10  H   UNL     1     -41.851  56.869 -51.371  1.00  0.00     0.280 HD
HETATM   11  C   UNL     1     -43.179  58.456 -51.423  1.00  0.00     0.236 C 
HETATM   12  C   UNL     1     -42.557  59.830 -51.245  1.00  0.00     0.029 C 
HETATM   13  C   UNL     1     -41.074  59.563 -51.172  1.00  0.00     0.029 C 
HETATM   14  C   UNL     1     -40.885  58.498 -52.227  1.00  0.00     0.236 C 
ENDBRANCH   8   9
BRANCH   8  15
HETATM   15  C   UNL     1     -41.735  55.571 -53.592  1.00  0.00     0.007 A 
HETATM   16  C   UNL     1     -41.507  55.116 -54.907  1.00  0.00     0.076 A 
HETATM   17  C   UNL     1     -40.814  53.922 -55.122  1.00  0.00     0.037 A 
HETATM   18  C   UNL     1     -40.370  53.160 -54.042  1.00  0.00     0.003 A 
HETATM   19  C   UNL     1     -40.620  53.580 -52.740  1.00  0.00     0.001 A 
HETATM   20  C   UNL     1     -41.305  54.773 -52.513  1.00  0.00     0.012 A 
BRANCH  16  21
HETATM   21  O   UNL     1     -41.988  55.917 -55.906  1.00  0.00    -0.355 OA
HETATM   22  C   UNL     1     -42.768  55.294 -56.924  1.00  0.00     0.210 C 
ENDBRANCH  16  21
ENDBRANCH   8  15
ENDBRANCH   7   8
ENDBRANCH   3   7
BRANCH   1  23
HETATM   23  C   UNL     1     -46.239  58.840 -57.102  1.00  0.00     0.086 C 
HETATM   24  C   UNL     1     -47.544  58.400 -57.771  1.00  0.00     0.032 C 
BRANCH  23  25
HETATM   25  C   UNL     1     -45.314  59.543 -58.125  1.00  0.00     0.063 C 
BRANCH  25  26
HETATM   26  C   UNL     1     -44.158  58.750 -58.712  1.00  0.00    -0.056 A 
HETATM   27  C   UNL     1     -44.452  57.775 -59.683  1.00  0.00     0.010 A 
HETATM   28  C   UNL     1     -43.437  57.025 -60.284  1.00  0.00     0.037 A 
HETATM   29  C   UNL     1     -42.119  57.241 -59.907  1.00  0.00     0.065 A 
HETATM   30  C   UNL     1     -41.801  58.206 -58.963  1.00  0.00     0.037 A 
HETATM   31  C   UNL     1     -42.814  58.974 -58.383  1.00  0.00     0.010 A 
BRANCH  29  32
HETATM   32  O   UNL     1     -41.098  56.521 -60.450  1.00  0.00    -0.361 OA
HETATM   33  H   UNL     1     -40.321  57.099 -60.541  1.00  0.00     0.217 HD
ENDBRANCH  29  32
ENDBRANCH  25  26
ENDBRANCH  23  25
ENDBRANCH   1  23
TORSDOF 9
ENDMDL
MODEL 4
REMARK VINA RESULT:      -7.2      1.484      3.526
REMARK  9 active torsions:
REMARK  status: ('A' for Active; 'I' for Inactive)
REMARK    1  A    between atoms: C_2  and  N_3 
REMARK    2  A    between atoms: C_2  and  C_23 
REMARK       I    between atoms: N_3  and  C_4 
REMARK       I    between atoms: C_4  and  N_5 
REMARK    3  A    between atoms: N_5  and  C_6 
REMARK    4  A    between atoms: C_6  and  C_7 
REMARK    5  A    between atoms: C_7  and  N_8 
REMARK    6  A    between atoms: C_7  and  C_14 
REMARK    7  A    between atoms: C_15  and  O_16 
REMARK    8  A    between atoms: C_23  and  C_24 
REMARK    9  A    between atoms: C_27  and  O_28 
ROOT
HETATM    1  N   UNL     1     -42.751  54.628 -55.080  1.00  0.00    -0.339 N 
HETATM    2  C   UNL     1     -42.380  55.782 -55.702  1.00  0.00     0.316 C 
HETATM    3  N   UNL     1     -42.618  55.723 -57.056  1.00  0.00    -0.341 N 
HETATM    4  O   UNL     1     -41.826  56.729 -55.167  1.00  0.00    -0.248 OA
HETATM    5  H   UNL     1     -43.011  53.852 -55.670  1.00  0.00     0.164 HD
HETATM    6  H   UNL     1     -43.443  55.179 -57.277  1.00  0.00     0.164 HD
ENDROOT
BRANCH   3   7
HETATM    7  C   UNL     1     -42.440  56.924 -57.861  1.00  0.00     0.162 C 
BRANCH   7   8
HETATM    8  C   UNL     1     -43.704  57.548 -58.547  1.00  0.00     0.241 C 
BRANCH   8   9
HETATM    9  N   UNL     1     -44.761  56.473 -58.890  1.00  0.00    -0.061 N 
HETATM   10  H   UNL     1     -45.000  55.989 -58.021  1.00  0.00     0.280 HD
HETATM   11  C   UNL     1     -44.299  55.409 -59.881  1.00  0.00     0.236 C 
HETATM   12  C   UNL     1     -45.333  55.409 -60.993  1.00  0.00     0.029 C 
HETATM   13  C   UNL     1     -46.583  55.949 -60.344  1.00  0.00     0.029 C 
HETATM   14  C   UNL     1     -46.040  57.056 -59.470  1.00  0.00     0.236 C 
ENDBRANCH   8   9
BRANCH   8  15
HETATM   15  C   UNL     1     -44.239  58.627 -57.600  1.00  0.00     0.007 A 
HETATM   16  C   UNL     1     -44.102  59.989 -57.939  1.00  0.00     0.076 A 
HETATM   17  C   UNL     1     -44.579  60.975 -57.073  1.00  0.00     0.037 A 
HETATM   18  C   UNL     1     -45.166  60.623 -55.857  1.00  0.00     0.003 A 
HETATM   19  C   UNL     1     -45.274  59.285 -55.496  1.00  0.00     0.001 A 
HETATM   20  C   UNL     1     -44.808  58.291 -56.355  1.00  0.00     0.012 A 
BRANCH  16  21
HETATM   21  O   UNL     1     -43.503  60.245 -59.143  1.00  0.00    -0.355 OA
HETATM   22  C   UNL     1     -43.635  61.564 -59.668  1.00  0.00     0.210 C 
ENDBRANCH  16  21
ENDBRANCH   8  15
ENDBRANCH   7   8
ENDBRANCH   3   7
BRANCH   1  23
HETATM   23  C   UNL     1     -42.414  54.302 -53.691  1.00  0.00     0.086 C 
HETATM   24  C   UNL     1     -42.933  55.365 -52.720  1.00  0.00     0.032 C 
BRANCH  23  25
HETATM   25  C   UNL     1     -40.904  54.049 -53.466  1.00  0.00     0.063 C 
BRANCH  25  26
HETATM   26  C   UNL     1     -40.434  52.615 -53.289  1.00  0.00    -0.056 A 
HETATM   27  C   UNL     1     -39.951  52.230 -52.024  1.00  0.00     0.010 A 
HETATM   28  C   UNL     1     -39.525  50.921 -51.781  1.00  0.00     0.037 A 
HETATM   29  C   UNL     1     -39.570  49.990 -52.809  1.00  0.00     0.065 A 
HETATM   30  C   UNL     1     -40.056  50.340 -54.061  1.00  0.00     0.037 A 
HETATM   31  C   UNL     1     -40.508  51.642 -54.294  1.00  0.00     0.010 A 
BRANCH  29  32
HETATM   32  O   UNL     1     -39.148  48.709 -52.627  1.00  0.00    -0.361 OA
HETATM   33  H   UNL     1     -38.235  48.724 -52.293  1.00  0.00     0.217 HD
ENDBRANCH  29  32
ENDBRANCH  25  26
ENDBRANCH  23  25
ENDBRANCH   1  23
TORSDOF 9
ENDMDL
MODEL 5
REMARK VINA RESULT:      -7.1      2.482      4.525
REMARK  9 active torsions:
REMARK  status: ('A' for Active; 'I' for Inactive)
REMARK    1  A    between atoms: C_2  and  N_3 
REMARK    2  A    between atoms: C_2  and  C_23 
REMARK       I    between atoms: N_3  and  C_4 
REMARK       I    between atoms: C_4  and  N_5 
REMARK    3  A    between atoms: N_5  and  C_6 
REMARK    4  A    between atoms: C_6  and  C_7 
REMARK    5  A    between atoms: C_7  and  N_8 
REMARK    6  A    between atoms: C_7  and  C_14 
REMARK    7  A    between atoms: C_15  and  O_16 
REMARK    8  A    between atoms: C_23  and  C_24 
REMARK    9  A    between atoms: C_27  and  O_28 
ROOT
HETATM    1  N   UNL     1     -41.604  55.076 -55.609  1.00  0.00    -0.339 N 
HETATM    2  C   UNL     1     -41.997  56.379 -55.684  1.00  0.00     0.316 C 
HETATM    3  N   UNL     1     -42.276  56.747 -56.980  1.00  0.00    -0.341 N 
HETATM    4  O   UNL     1     -42.024  57.165 -54.750  1.00  0.00    -0.248 OA
HETATM    5  H   UNL     1     -41.435  54.597 -56.481  1.00  0.00     0.164 HD
HETATM    6  H   UNL     1     -42.671  55.986 -57.518  1.00  0.00     0.164 HD
ENDROOT
BRANCH   3   7
HETATM    7  C   UNL     1     -42.870  58.053 -57.234  1.00  0.00     0.162 C 
BRANCH   7   8
HETATM    8  C   UNL     1     -43.141  58.464 -58.722  1.00  0.00     0.241 C 
BRANCH   8   9
HETATM    9  N   UNL     1     -44.652  58.608 -59.013  1.00  0.00    -0.061 N 
HETATM   10  H   UNL     1     -44.752  59.228 -59.821  1.00  0.00     0.280 HD
HETATM   11  C   UNL     1     -45.471  59.218 -57.879  1.00  0.00     0.236 C 
HETATM   12  C   UNL     1     -46.593  58.232 -57.607  1.00  0.00     0.029 C 
HETATM   13  C   UNL     1     -46.756  57.483 -58.906  1.00  0.00     0.029 C 
HETATM   14  C   UNL     1     -45.325  57.287 -59.349  1.00  0.00     0.236 C 
ENDBRANCH   8   9
BRANCH   8  15
HETATM   15  C   UNL     1     -42.361  59.759 -58.975  1.00  0.00     0.007 A 
HETATM   16  C   UNL     1     -42.383  60.352 -60.255  1.00  0.00     0.076 A 
HETATM   17  C   UNL     1     -41.665  61.526 -60.493  1.00  0.00     0.037 A 
HETATM   18  C   UNL     1     -40.900  62.103 -59.479  1.00  0.00     0.003 A 
HETATM   19  C   UNL     1     -40.842  61.508 -58.224  1.00  0.00     0.001 A 
HETATM   20  C   UNL     1     -41.560  60.340 -57.972  1.00  0.00     0.012 A 
BRANCH  16  21
HETATM   21  O   UNL     1     -43.148  59.714 -61.194  1.00  0.00    -0.355 OA
HETATM   22  C   UNL     1     -44.040  60.517 -61.964  1.00  0.00     0.210 C 
ENDBRANCH  16  21
ENDBRANCH   8  15
ENDBRANCH   7   8
ENDBRANCH   3   7
BRANCH   1  23
HETATM   23  C   UNL     1     -41.025  54.463 -54.411  1.00  0.00     0.086 C 
HETATM   24  C   UNL     1     -40.146  53.260 -54.761  1.00  0.00     0.032 C 
BRANCH  23  25
HETATM   25  C   UNL     1     -42.078  54.076 -53.345  1.00  0.00     0.063 C 
BRANCH  25  26
HETATM   26  C   UNL     1     -41.702  54.215 -51.879  1.00  0.00    -0.056 A 
HETATM   27  C   UNL     1     -42.150  55.357 -51.188  1.00  0.00     0.010 A 
HETATM   28  C   UNL     1     -41.863  55.539 -49.832  1.00  0.00     0.037 A 
HETATM   29  C   UNL     1     -41.115  54.581 -49.161  1.00  0.00     0.065 A 
HETATM   30  C   UNL     1     -40.675  53.440 -49.816  1.00  0.00     0.037 A 
HETATM   31  C   UNL     1     -40.986  53.246 -51.164  1.00  0.00     0.010 A 
BRANCH  29  32
HETATM   32  O   UNL     1     -40.793  54.724 -47.846  1.00  0.00    -0.361 OA
HETATM   33  H   UNL     1     -41.333  54.108 -47.322  1.00  0.00     0.217 HD
ENDBRANCH  29  32
ENDBRANCH  25  26
ENDBRANCH  23  25
ENDBRANCH   1  23
TORSDOF 9
ENDMDL
MODEL 6
REMARK VINA RESULT:      -7.1      2.389      4.075
REMARK  9 active torsions:
REMARK  status: ('A' for Active; 'I' for Inactive)
REMARK    1  A    between atoms: C_2  and  N_3 
REMARK    2  A    between atoms: C_2  and  C_23 
REMARK       I    between atoms: N_3  and  C_4 
REMARK       I    between atoms: C_4  and  N_5 
REMARK    3  A    between atoms: N_5  and  C_6 
REMARK    4  A    between atoms: C_6  and  C_7 
REMARK    5  A    between atoms: C_7  and  N_8 
REMARK    6  A    between atoms: C_7  and  C_14 
REMARK    7  A    between atoms: C_15  and  O_16 
REMARK    8  A    between atoms: C_23  and  C_24 
REMARK    9  A    between atoms: C_27  and  O_28 
ROOT
HETATM    1  N   UNL     1     -41.235  53.617 -54.544  1.00  0.00    -0.339 N 
HETATM    2  C   UNL     1     -41.085  54.879 -55.035  1.00  0.00     0.316 C 
HETATM    3  N   UNL     1     -42.067  55.184 -55.949  1.00  0.00    -0.341 N 
HETATM    4  O   UNL     1     -40.160  55.634 -54.780  1.00  0.00    -0.248 OA
HETATM    5  H   UNL     1     -41.926  53.031 -54.987  1.00  0.00     0.164 HD
HETATM    6  H   UNL     1     -42.952  54.746 -55.721  1.00  0.00     0.164 HD
ENDROOT
BRANCH   3   7
HETATM    7  C   UNL     1     -42.167  56.545 -56.456  1.00  0.00     0.162 C 
BRANCH   7   8
HETATM    8  C   UNL     1     -43.584  57.082 -56.856  1.00  0.00     0.241 C 
BRANCH   8   9
HETATM    9  N   UNL     1     -44.169  58.022 -55.777  1.00  0.00    -0.061 N 
HETATM   10  H   UNL     1     -44.851  58.631 -56.236  1.00  0.00     0.280 HD
HETATM   11  C   UNL     1     -43.151  58.929 -55.092  1.00  0.00     0.236 C 
HETATM   12  C   UNL     1     -43.320  58.682 -53.603  1.00  0.00     0.029 C 
HETATM   13  C   UNL     1     -44.738  58.189 -53.463  1.00  0.00     0.029 C 
HETATM   14  C   UNL     1     -44.883  57.278 -54.659  1.00  0.00     0.236 C 
ENDBRANCH   8   9
BRANCH   8  15
HETATM   15  C   UNL     1     -43.433  57.766 -58.220  1.00  0.00     0.007 A 
HETATM   16  C   UNL     1     -44.581  58.100 -58.967  1.00  0.00     0.076 A 
HETATM   17  C   UNL     1     -44.448  58.713 -60.215  1.00  0.00     0.037 A 
HETATM   18  C   UNL     1     -43.182  58.972 -60.743  1.00  0.00     0.003 A 
HETATM   19  C   UNL     1     -42.043  58.614 -60.031  1.00  0.00     0.001 A 
HETATM   20  C   UNL     1     -42.163  58.007 -58.781  1.00  0.00     0.012 A 
BRANCH  16  21
HETATM   21  O   UNL     1     -45.781  57.800 -58.382  1.00  0.00    -0.355 OA
HETATM   22  C   UNL     1     -46.794  57.245 -59.219  1.00  0.00     0.210 C 
ENDBRANCH  16  21
ENDBRANCH   8  15
ENDBRANCH   7   8
ENDBRANCH   3   7
BRANCH   1  23
HETATM   23  C   UNL     1     -40.225  52.928 -53.734  1.00  0.00     0.086 C 
HETATM   24  C   UNL     1     -40.247  51.417 -53.972  1.00  0.00     0.032 C 
BRANCH  23  25
HETATM   25  C   UNL     1     -40.326  53.244 -52.222  1.00  0.00     0.063 C 
BRANCH  25  26
HETATM   26  C   UNL     1     -41.510  54.063 -51.736  1.00  0.00    -0.056 A 
HETATM   27  C   UNL     1     -41.289  55.416 -51.416  1.00  0.00     0.010 A 
HETATM   28  C   UNL     1     -42.335  56.237 -50.986  1.00  0.00     0.037 A 
HETATM   29  C   UNL     1     -43.611  55.703 -50.864  1.00  0.00     0.065 A 
HETATM   30  C   UNL     1     -43.857  54.376 -51.187  1.00  0.00     0.037 A 
HETATM   31  C   UNL     1     -42.816  53.565 -51.643  1.00  0.00     0.010 A 
BRANCH  29  32
HETATM   32  O   UNL     1     -44.658  56.457 -50.430  1.00  0.00    -0.361 OA
HETATM   33  H   UNL     1     -44.653  56.472 -49.458  1.00  0.00     0.217 HD
ENDBRANCH  29  32
ENDBRANCH  25  26
ENDBRANCH  23  25
ENDBRANCH   1  23
TORSDOF 9
ENDMDL
MODEL 7
REMARK VINA RESULT:      -6.9      4.626      6.591
REMARK  9 active torsions:
REMARK  status: ('A' for Active; 'I' for Inactive)
REMARK    1  A    between atoms: C_2  and  N_3 
REMARK    2  A    between atoms: C_2  and  C_23 
REMARK       I    between atoms: N_3  and  C_4 
REMARK       I    between atoms: C_4  and  N_5 
REMARK    3  A    between atoms: N_5  and  C_6 
REMARK    4  A    between atoms: C_6  and  C_7 
REMARK    5  A    between atoms: C_7  and  N_8 
REMARK    6  A    between atoms: C_7  and  C_14 
REMARK    7  A    between atoms: C_15  and  O_16 
REMARK    8  A    between atoms: C_23  and  C_24 
REMARK    9  A    between atoms: C_27  and  O_28 
ROOT
HETATM    1  N   UNL     1     -43.085  55.598 -54.066  1.00  0.00    -0.339 N 
HETATM    2  C   UNL     1     -43.622  56.847 -54.158  1.00  0.00     0.316 C 
HETATM    3  N   UNL     1     -44.323  57.179 -53.021  1.00  0.00    -0.341 N 
HETATM    4  O   UNL     1     -43.576  57.568 -55.142  1.00  0.00    -0.248 OA
HETATM    5  H   UNL     1     -43.367  55.035 -53.278  1.00  0.00     0.164 HD
HETATM    6  H   UNL     1     -43.911  56.780 -52.187  1.00  0.00     0.164 HD
ENDROOT
BRANCH   3   7
HETATM    7  C   UNL     1     -44.826  58.538 -52.869  1.00  0.00     0.162 C 
BRANCH   7   8
HETATM    8  C   UNL     1     -44.428  59.333 -51.578  1.00  0.00     0.241 C 
BRANCH   8   9
HETATM    9  N   UNL     1     -42.952  59.792 -51.618  1.00  0.00    -0.061 N 
HETATM   10  H   UNL     1     -42.868  60.607 -51.006  1.00  0.00     0.280 HD
HETATM   11  C   UNL     1     -42.446  60.214 -52.994  1.00  0.00     0.236 C 
HETATM   12  C   UNL     1     -41.196  59.388 -53.242  1.00  0.00     0.029 C 
HETATM   13  C   UNL     1     -40.699  59.037 -51.861  1.00  0.00     0.029 C 
HETATM   14  C   UNL     1     -41.982  58.731 -51.124  1.00  0.00     0.236 C 
ENDBRANCH   8   9
BRANCH   8  15
HETATM   15  C   UNL     1     -45.411  60.502 -51.454  1.00  0.00     0.007 A 
HETATM   16  C   UNL     1     -45.411  61.297 -50.289  1.00  0.00     0.076 A 
HETATM   17  C   UNL     1     -46.313  62.356 -50.166  1.00  0.00     0.037 A 
HETATM   18  C   UNL     1     -47.236  62.617 -51.179  1.00  0.00     0.003 A 
HETATM   19  C   UNL     1     -47.270  61.818 -52.316  1.00  0.00     0.001 A 
HETATM   20  C   UNL     1     -46.370  60.761 -52.453  1.00  0.00     0.012 A 
BRANCH  16  21
HETATM   21  O   UNL     1     -44.482  60.964 -49.341  1.00  0.00    -0.355 OA
HETATM   22  C   UNL     1     -44.757  61.346 -47.995  1.00  0.00     0.210 C 
ENDBRANCH  16  21
ENDBRANCH   8  15
ENDBRANCH   7   8
ENDBRANCH   3   7
BRANCH   1  23
HETATM   23  C   UNL     1     -42.485  54.881 -55.194  1.00  0.00     0.086 C 
HETATM   24  C   UNL     1     -43.242  53.588 -55.508  1.00  0.00     0.032 C 
BRANCH  23  25
HETATM   25  C   UNL     1     -40.974  54.596 -55.011  1.00  0.00     0.063 C 
BRANCH  25  26
HETATM   26  C   UNL     1     -40.559  53.547 -53.993  1.00  0.00    -0.056 A 
HETATM   27  C   UNL     1     -40.108  52.303 -54.473  1.00  0.00     0.010 A 
HETATM   28  C   UNL     1     -39.686  51.301 -53.595  1.00  0.00     0.037 A 
HETATM   29  C   UNL     1     -39.723  51.535 -52.228  1.00  0.00     0.065 A 
HETATM   30  C   UNL     1     -40.150  52.757 -51.730  1.00  0.00     0.037 A 
HETATM   31  C   UNL     1     -40.545  53.769 -52.609  1.00  0.00     0.010 A 
BRANCH  29  32
HETATM   32  O   UNL     1     -39.342  50.582 -51.333  1.00  0.00    -0.361 OA
HETATM   33  H   UNL     1     -39.659  50.835 -50.450  1.00  0.00     0.217 HD
ENDBRANCH  29  32
ENDBRANCH  25  26
ENDBRANCH  23  25
ENDBRANCH   1  23
TORSDOF 9
ENDMDL
MODEL 8
REMARK VINA RESULT:      -6.9      1.429      2.266
REMARK  9 active torsions:
REMARK  status: ('A' for Active; 'I' for Inactive)
REMARK    1  A    between atoms: C_2  and  N_3 
REMARK    2  A    between atoms: C_2  and  C_23 
REMARK       I    between atoms: N_3  and  C_4 
REMARK       I    between atoms: C_4  and  N_5 
REMARK    3  A    between atoms: N_5  and  C_6 
REMARK    4  A    between atoms: C_6  and  C_7 
REMARK    5  A    between atoms: C_7  and  N_8 
REMARK    6  A    between atoms: C_7  and  C_14 
REMARK    7  A    between atoms: C_15  and  O_16 
REMARK    8  A    between atoms: C_23  and  C_24 
REMARK    9  A    between atoms: C_27  and  O_28 
ROOT
HETATM    1  N   UNL     1     -42.163  55.346 -55.301  1.00  0.00    -0.339 N 
HETATM    2  C   UNL     1     -42.833  56.532 -55.257  1.00  0.00     0.316 C 
HETATM    3  N   UNL     1     -43.705  56.658 -56.313  1.00  0.00    -0.341 N 
HETATM    4  O   UNL     1     -42.642  57.424 -54.445  1.00  0.00    -0.248 OA
HETATM    5  H   UNL     1     -42.272  54.788 -56.134  1.00  0.00     0.164 HD
HETATM    6  H   UNL     1     -44.107  55.769 -56.586  1.00  0.00     0.164 HD
ENDROOT
BRANCH   3   7
HETATM    7  C   UNL     1     -44.627  57.785 -56.342  1.00  0.00     0.162 C 
BRANCH   7   8
HETATM    8  C   UNL     1     -44.807  58.559 -57.693  1.00  0.00     0.241 C 
BRANCH   8   9
HETATM    9  N   UNL     1     -43.541  59.364 -58.066  1.00  0.00    -0.061 N 
HETATM   10  H   UNL     1     -42.898  58.724 -58.539  1.00  0.00     0.280 HD
HETATM   11  C   UNL     1     -42.786  59.962 -56.884  1.00  0.00     0.236 C 
HETATM   12  C   UNL     1     -42.654  61.444 -57.189  1.00  0.00     0.029 C 
HETATM   13  C   UNL     1     -42.741  61.526 -58.692  1.00  0.00     0.029 C 
HETATM   14  C   UNL     1     -43.826  60.523 -59.008  1.00  0.00     0.236 C 
ENDBRANCH   8   9
BRANCH   8  15
HETATM   15  C   UNL     1     -45.185  57.521 -58.755  1.00  0.00     0.007 A 
HETATM   16  C   UNL     1     -44.173  56.822 -59.444  1.00  0.00     0.076 A 
HETATM   17  C   UNL     1     -44.513  55.884 -60.421  1.00  0.00     0.037 A 
HETATM   18  C   UNL     1     -45.851  55.652 -60.741  1.00  0.00     0.003 A 
HETATM   19  C   UNL     1     -46.857  56.361 -60.094  1.00  0.00     0.001 A 
HETATM   20  C   UNL     1     -46.530  57.296 -59.112  1.00  0.00     0.012 A 
BRANCH  16  21
HETATM   21  O   UNL     1     -42.888  57.120 -59.077  1.00  0.00    -0.355 OA
HETATM   22  C   UNL     1     -41.937  57.302 -60.124  1.00  0.00     0.210 C 
ENDBRANCH  16  21
ENDBRANCH   8  15
ENDBRANCH   7   8
ENDBRANCH   3   7
BRANCH   1  23
HETATM   23  C   UNL     1     -41.013  55.024 -54.452  1.00  0.00     0.086 C 
HETATM   24  C   UNL     1     -39.884  54.374 -55.255  1.00  0.00     0.032 C 
BRANCH  23  25
HETATM   25  C   UNL     1     -41.376  54.155 -53.223  1.00  0.00     0.063 C 
BRANCH  25  26
HETATM   26  C   UNL     1     -40.784  52.759 -53.129  1.00  0.00    -0.056 A 
HETATM   27  C   UNL     1     -40.995  51.879 -54.207  1.00  0.00     0.010 A 
HETATM   28  C   UNL     1     -40.459  50.588 -54.201  1.00  0.00     0.037 A 
HETATM   29  C   UNL     1     -39.716  50.166 -53.106  1.00  0.00     0.065 A 
HETATM   30  C   UNL     1     -39.482  51.020 -52.038  1.00  0.00     0.037 A 
HETATM   31  C   UNL     1     -39.994  52.319 -52.059  1.00  0.00     0.010 A 
BRANCH  29  32
HETATM   32  O   UNL     1     -39.191  48.912 -53.045  1.00  0.00    -0.361 OA
HETATM   33  H   UNL     1     -38.263  48.973 -52.761  1.00  0.00     0.217 HD
ENDBRANCH  29  32
ENDBRANCH  25  26
ENDBRANCH  23  25
ENDBRANCH   1  23
TORSDOF 9
ENDMDL
MODEL 9
REMARK VINA RESULT:      -6.9      1.888      3.393
REMARK  9 active torsions:
REMARK  status: ('A' for Active; 'I' for Inactive)
REMARK    1  A    between atoms: C_2  and  N_3 
REMARK    2  A    between atoms: C_2  and  C_23 
REMARK       I    between atoms: N_3  and  C_4 
REMARK       I    between atoms: C_4  and  N_5 
REMARK    3  A    between atoms: N_5  and  C_6 
REMARK    4  A    between atoms: C_6  and  C_7 
REMARK    5  A    between atoms: C_7  and  N_8 
REMARK    6  A    between atoms: C_7  and  C_14 
REMARK    7  A    between atoms: C_15  and  O_16 
REMARK    8  A    between atoms: C_23  and  C_24 
REMARK    9  A    between atoms: C_27  and  O_28 
ROOT
HETATM    1  N   UNL     1     -42.549  56.728 -53.213  1.00  0.00    -0.339 N 
HETATM    2  C   UNL     1     -43.575  57.357 -53.853  1.00  0.00     0.316 C 
HETATM    3  N   UNL     1     -43.181  57.845 -55.078  1.00  0.00    -0.341 N 
HETATM    4  O   UNL     1     -44.687  57.552 -53.388  1.00  0.00    -0.248 OA
HETATM    5  H   UNL     1     -41.632  56.812 -53.624  1.00  0.00     0.164 HD
HETATM    6  H   UNL     1     -42.490  57.252 -55.522  1.00  0.00     0.164 HD
ENDROOT
BRANCH   3   7
HETATM    7  C   UNL     1     -44.183  58.400 -55.976  1.00  0.00     0.162 C 
BRANCH   7   8
HETATM    8  C   UNL     1     -44.669  57.517 -57.177  1.00  0.00     0.241 C 
BRANCH   8   9
HETATM    9  N   UNL     1     -46.133  57.828 -57.563  1.00  0.00    -0.061 N 
HETATM   10  H   UNL     1     -46.736  57.247 -56.976  1.00  0.00     0.280 HD
HETATM   11  C   UNL     1     -46.496  57.524 -59.013  1.00  0.00     0.236 C 
HETATM   12  C   UNL     1     -47.084  58.810 -59.567  1.00  0.00     0.029 C 
HETATM   13  C   UNL     1     -47.602  59.539 -58.353  1.00  0.00     0.029 C 
HETATM   14  C   UNL     1     -46.517  59.282 -57.334  1.00  0.00     0.236 C 
ENDBRANCH   8   9
BRANCH   8  15
HETATM   15  C   UNL     1     -43.688  57.754 -58.330  1.00  0.00     0.007 A 
HETATM   16  C   UNL     1     -43.147  56.654 -59.027  1.00  0.00     0.076 A 
HETATM   17  C   UNL     1     -42.244  56.864 -60.071  1.00  0.00     0.037 A 
HETATM   18  C   UNL     1     -41.849  58.158 -60.412  1.00  0.00     0.003 A 
HETATM   19  C   UNL     1     -42.347  59.249 -59.709  1.00  0.00     0.001 A 
HETATM   20  C   UNL     1     -43.255  59.051 -58.669  1.00  0.00     0.012 A 
BRANCH  16  21
HETATM   21  O   UNL     1     -43.578  55.420 -58.620  1.00  0.00    -0.355 OA
HETATM   22  C   UNL     1     -44.268  54.621 -59.578  1.00  0.00     0.210 C 
ENDBRANCH  16  21
ENDBRANCH   8  15
ENDBRANCH   7   8
ENDBRANCH   3   7
BRANCH   1  23
HETATM   23  C   UNL     1     -42.594  56.311 -51.808  1.00  0.00     0.086 C 
HETATM   24  C   UNL     1     -41.327  56.725 -51.056  1.00  0.00     0.032 C 
BRANCH  23  25
HETATM   25  C   UNL     1     -42.868  54.799 -51.622  1.00  0.00     0.063 C 
BRANCH  25  26
HETATM   26  C   UNL     1     -41.844  53.812 -52.157  1.00  0.00    -0.056 A 
HETATM   27  C   UNL     1     -41.869  53.516 -53.533  1.00  0.00     0.010 A 
HETATM   28  C   UNL     1     -40.942  52.636 -54.099  1.00  0.00     0.037 A 
HETATM   29  C   UNL     1     -39.990  52.037 -53.286  1.00  0.00     0.065 A 
HETATM   30  C   UNL     1     -39.936  52.323 -51.929  1.00  0.00     0.037 A 
HETATM   31  C   UNL     1     -40.845  53.224 -51.370  1.00  0.00     0.010 A 
BRANCH  29  32
HETATM   32  O   UNL     1     -39.079  51.158 -53.788  1.00  0.00    -0.361 OA
HETATM   33  H   UNL     1     -38.430  50.948 -53.094  1.00  0.00     0.217 HD
ENDBRANCH  29  32
ENDBRANCH  25  26
ENDBRANCH  23  25
ENDBRANCH   1  23
TORSDOF 9
ENDMDL
MODEL 10
REMARK VINA RESULT:      -6.7      7.441     10.143
REMARK  9 active torsions:
REMARK  status: ('A' for Active; 'I' for Inactive)
REMARK    1  A    between atoms: C_2  and  N_3 
REMARK    2  A    between atoms: C_2  and  C_23 
REMARK       I    between atoms: N_3  and  C_4 
REMARK       I    between atoms: C_4  and  N_5 
REMARK    3  A    between atoms: N_5  and  C_6 
REMARK    4  A    between atoms: C_6  and  C_7 
REMARK    5  A    between atoms: C_7  and  N_8 
REMARK    6  A    between atoms: C_7  and  C_14 
REMARK    7  A    between atoms: C_15  and  O_16 
REMARK    8  A    between atoms: C_23  and  C_24 
REMARK    9  A    between atoms: C_27  and  O_28 
ROOT
HETATM    1  N   UNL     1     -45.098  61.247 -48.817  1.00  0.00    -0.339 N 
HETATM    2  C   UNL     1     -45.391  60.637 -50.000  1.00  0.00     0.316 C 
HETATM    3  N   UNL     1     -44.639  59.499 -50.181  1.00  0.00    -0.341 N 
HETATM    4  O   UNL     1     -46.156  61.069 -50.849  1.00  0.00    -0.248 OA
HETATM    5  H   UNL     1     -44.306  60.893 -48.303  1.00  0.00     0.164 HD
HETATM    6  H   UNL     1     -44.452  59.022 -49.308  1.00  0.00     0.164 HD
ENDROOT
BRANCH   3   7
HETATM    7  C   UNL     1     -44.933  58.626 -51.309  1.00  0.00     0.162 C 
BRANCH   7   8
HETATM    8  C   UNL     1     -43.741  58.161 -52.214  1.00  0.00     0.241 C 
BRANCH   8   9
HETATM    9  N   UNL     1     -42.455  58.972 -51.932  1.00  0.00    -0.061 N 
HETATM   10  H   UNL     1     -42.736  59.845 -51.478  1.00  0.00     0.280 HD
HETATM   11  C   UNL     1     -41.649  59.352 -53.170  1.00  0.00     0.236 C 
HETATM   12  C   UNL     1     -40.240  58.847 -52.912  1.00  0.00     0.029 C 
HETATM   13  C   UNL     1     -40.131  58.790 -51.408  1.00  0.00     0.029 C 
HETATM   14  C   UNL     1     -41.486  58.253 -51.007  1.00  0.00     0.236 C 
ENDBRANCH   8   9
BRANCH   8  15
HETATM   15  C   UNL     1     -43.560  56.659 -51.976  1.00  0.00     0.007 A 
HETATM   16  C   UNL     1     -43.041  55.843 -53.003  1.00  0.00     0.076 A 
HETATM   17  C   UNL     1     -42.885  54.471 -52.795  1.00  0.00     0.037 A 
HETATM   18  C   UNL     1     -43.266  53.894 -51.583  1.00  0.00     0.003 A 
HETATM   19  C   UNL     1     -43.812  54.682 -50.575  1.00  0.00     0.001 A 
HETATM   20  C   UNL     1     -43.967  56.054 -50.770  1.00  0.00     0.012 A 
BRANCH  16  21
HETATM   21  O   UNL     1     -42.705  56.488 -54.163  1.00  0.00    -0.355 OA
HETATM   22  C   UNL     1     -43.188  55.929 -55.383  1.00  0.00     0.210 C 
ENDBRANCH  16  21
ENDBRANCH   8  15
ENDBRANCH   7   8
ENDBRANCH   3   7
BRANCH   1  23
HETATM   23  C   UNL     1     -45.562  62.588 -48.450  1.00  0.00     0.086 C 
HETATM   24  C   UNL     1     -44.421  63.607 -48.482  1.00  0.00     0.032 C 
BRANCH  23  25
HETATM   25  C   UNL     1     -46.298  62.636 -47.090  1.00  0.00     0.063 C 
BRANCH  25  26
HETATM   26  C   UNL     1     -45.466  62.572 -45.819  1.00  0.00    -0.056 A 
HETATM   27  C   UNL     1     -45.403  63.724 -45.014  1.00  0.00     0.010 A 
HETATM   28  C   UNL     1     -44.678  63.731 -43.819  1.00  0.00     0.037 A 
HETATM   29  C   UNL     1     -44.000  62.583 -43.429  1.00  0.00     0.065 A 
HETATM   30  C   UNL     1     -44.059  61.430 -44.198  1.00  0.00     0.037 A 
HETATM   31  C   UNL     1     -44.807  61.417 -45.378  1.00  0.00     0.010 A 
BRANCH  29  32
HETATM   32  O   UNL     1     -43.264  62.547 -42.284  1.00  0.00    -0.361 OA
HETATM   33  H   UNL     1     -42.829  61.680 -42.218  1.00  0.00     0.217 HD
ENDBRANCH  29  32
ENDBRANCH  25  26
ENDBRANCH  23  25
ENDBRANCH   1  23
TORSDOF 9
ENDMDL
