MODEL 1
REMARK VINA RESULT:      -9.9      0.000      0.000
REMARK  1 active torsions:
REMARK  status: ('A' for Active; 'I' for Inactive)
REMARK    1  A    between atoms: C_8  and  C_9 
ROOT
HETATM    1  C   UNL     1     -40.602  54.167 -55.071  1.00  0.00     0.049 C 
HETATM    2  C   UNL     1     -40.337  53.195 -53.953  1.00  0.00    -0.050 A 
HETATM    3  C   UNL     1     -40.539  53.524 -52.598  1.00  0.00    -0.002 A 
HETATM    4  C   UNL     1     -40.291  52.558 -51.602  1.00  0.00     0.051 A 
HETATM    5  N   UNL     1     -40.532  52.897 -50.262  1.00  0.00    -0.322 N 
HETATM    6  C   UNL     1     -40.985  54.114 -49.842  1.00  0.00     0.256 A 
HETATM    7  O   UNL     1     -41.221  54.323 -48.655  1.00  0.00    -0.267 OA
HETATM    8  C   UNL     1     -41.173  55.176 -50.873  1.00  0.00     0.053 A 
HETATM    9  C   UNL     1     -40.984  54.858 -52.167  1.00  0.00     0.031 A 
HETATM   10  C   UNL     1     -39.822  51.275 -51.933  1.00  0.00    -0.034 A 
HETATM   11  C   UNL     1     -39.526  50.235 -50.889  1.00  0.00     0.050 C 
HETATM   12  C   UNL     1     -39.628  50.963 -53.283  1.00  0.00     0.009 A 
HETATM   13  C   UNL     1     -39.886  51.907 -54.278  1.00  0.00     0.008 A 
HETATM   14  H   UNL     1     -40.390  52.215 -49.531  1.00  0.00     0.169 HD
ENDROOT
BRANCH   8  15
HETATM   15  C   UNL     1     -41.589  56.513 -50.305  1.00  0.00     0.224 C 
HETATM   16  N   UNL     1     -40.714  57.551 -50.763  1.00  0.00    -0.331 N 
HETATM   17  C   UNL     1     -40.850  58.163 -51.977  1.00  0.00     0.255 C 
HETATM   18  H   UNL     1     -39.771  57.547 -50.394  1.00  0.00     0.165 HD
HETATM   19  O   UNL     1     -39.924  58.769 -52.503  1.00  0.00    -0.268 OA
HETATM   20  C   UNL     1     -42.182  58.075 -52.603  1.00  0.00     0.058 A 
HETATM   21  C   UNL     1     -43.200  57.426 -51.890  1.00  0.00     0.045 A 
HETATM   22  C   UNL     1     -42.420  58.649 -53.855  1.00  0.00     0.019 A 
HETATM   23  N   UNL     1     -42.963  56.883 -50.622  1.00  0.00    -0.364 N 
HETATM   24  C   UNL     1     -44.490  57.434 -52.430  1.00  0.00     0.030 A 
HETATM   25  H   UNL     1     -43.648  56.201 -50.319  1.00  0.00     0.162 HD
HETATM   26  C   UNL     1     -44.736  58.004 -53.683  1.00  0.00     0.002 A 
HETATM   27  C   UNL     1     -43.700  58.602 -54.400  1.00  0.00     0.001 A 
ENDBRANCH   8  15
TORSDOF 1
ENDMDL
MODEL 2
REMARK VINA RESULT:      -9.3      2.194      3.814
REMARK  1 active torsions:
REMARK  status: ('A' for Active; 'I' for Inactive)
REMARK    1  A    between atoms: C_8  and  C_9 
ROOT
HETATM    1  C   UNL     1     -40.643  53.243 -49.672  1.00  0.00     0.049 C 
HETATM    2  C   UNL     1     -40.381  52.495 -50.952  1.00  0.00    -0.050 A 
HETATM    3  C   UNL     1     -40.707  53.022 -52.218  1.00  0.00    -0.002 A 
HETATM    4  C   UNL     1     -40.415  52.277 -53.378  1.00  0.00     0.051 A 
HETATM    5  N   UNL     1     -40.717  52.836 -54.629  1.00  0.00    -0.322 N 
HETATM    6  C   UNL     1     -41.292  54.060 -54.810  1.00  0.00     0.256 A 
HETATM    7  O   UNL     1     -41.482  54.506 -55.939  1.00  0.00    -0.267 OA
HETATM    8  C   UNL     1     -41.686  54.828 -53.593  1.00  0.00     0.053 A 
HETATM    9  C   UNL     1     -41.369  54.324 -52.385  1.00  0.00     0.031 A 
HETATM   10  C   UNL     1     -39.823  51.005 -53.297  1.00  0.00    -0.034 A 
HETATM   11  C   UNL     1     -39.524  50.180 -54.517  1.00  0.00     0.050 C 
HETATM   12  C   UNL     1     -39.503  50.497 -52.034  1.00  0.00     0.009 A 
HETATM   13  C   UNL     1     -39.774  51.233 -50.879  1.00  0.00     0.008 A 
HETATM   14  H   UNL     1     -40.493  52.337 -55.478  1.00  0.00     0.169 HD
ENDROOT
BRANCH   8  15
HETATM   15  C   UNL     1     -42.395  56.128 -53.891  1.00  0.00     0.224 C 
HETATM   16  N   UNL     1     -43.374  56.412 -52.884  1.00  0.00    -0.331 N 
HETATM   17  C   UNL     1     -43.069  56.996 -51.687  1.00  0.00     0.255 C 
HETATM   18  H   UNL     1     -44.197  55.822 -52.870  1.00  0.00     0.165 HD
HETATM   19  O   UNL     1     -43.812  56.910 -50.717  1.00  0.00    -0.268 OA
HETATM   20  C   UNL     1     -41.807  57.758 -51.640  1.00  0.00     0.058 A 
HETATM   21  C   UNL     1     -41.061  57.864 -52.821  1.00  0.00     0.045 A 
HETATM   22  C   UNL     1     -41.393  58.375 -50.456  1.00  0.00     0.019 A 
HETATM   23  N   UNL     1     -41.499  57.271 -54.011  1.00  0.00    -0.364 N 
HETATM   24  C   UNL     1     -39.920  58.674 -52.809  1.00  0.00     0.030 A 
HETATM   25  H   UNL     1     -40.779  57.152 -54.714  1.00  0.00     0.162 HD
HETATM   26  C   UNL     1     -39.497  59.293 -51.629  1.00  0.00     0.002 A 
HETATM   27  C   UNL     1     -40.226  59.136 -50.450  1.00  0.00     0.001 A 
ENDBRANCH   8  15
TORSDOF 1
ENDMDL
MODEL 3
REMARK VINA RESULT:      -8.8      2.655      3.849
REMARK  1 active torsions:
REMARK  status: ('A' for Active; 'I' for Inactive)
REMARK    1  A    between atoms: C_8  and  C_9 
ROOT
HETATM    1  C   UNL     1     -41.118  55.218 -49.978  1.00  0.00     0.049 C 
HETATM    2  C   UNL     1     -40.823  54.189 -51.036  1.00  0.00    -0.050 A 
HETATM    3  C   UNL     1     -41.516  54.142 -52.262  1.00  0.00    -0.002 A 
HETATM    4  C   UNL     1     -41.175  53.163 -53.217  1.00  0.00     0.051 A 
HETATM    5  N   UNL     1     -41.854  53.157 -54.445  1.00  0.00    -0.322 N 
HETATM    6  C   UNL     1     -42.844  54.033 -54.785  1.00  0.00     0.256 A 
HETATM    7  O   UNL     1     -43.360  53.999 -55.899  1.00  0.00    -0.267 OA
HETATM    8  C   UNL     1     -43.278  55.022 -53.755  1.00  0.00     0.053 A 
HETATM    9  C   UNL     1     -42.611  55.068 -52.586  1.00  0.00     0.031 A 
HETATM   10  C   UNL     1     -40.169  52.216 -52.962  1.00  0.00    -0.034 A 
HETATM   11  C   UNL     1     -39.802  51.148 -53.954  1.00  0.00     0.050 C 
HETATM   12  C   UNL     1     -39.489  52.277 -51.741  1.00  0.00     0.009 A 
HETATM   13  C   UNL     1     -39.807  53.251 -50.795  1.00  0.00     0.008 A 
HETATM   14  H   UNL     1     -41.610  52.486 -55.159  1.00  0.00     0.169 HD
ENDROOT
BRANCH   8  15
HETATM   15  C   UNL     1     -44.437  55.889 -54.188  1.00  0.00     0.224 C 
HETATM   16  N   UNL     1     -44.734  56.871 -53.189  1.00  0.00    -0.331 N 
HETATM   17  C   UNL     1     -44.056  58.051 -53.074  1.00  0.00     0.255 C 
HETATM   18  H   UNL     1     -45.147  56.533 -52.327  1.00  0.00     0.165 HD
HETATM   19  O   UNL     1     -44.064  58.704 -52.037  1.00  0.00    -0.268 OA
HETATM   20  C   UNL     1     -43.337  58.506 -54.278  1.00  0.00     0.058 A 
HETATM   21  C   UNL     1     -43.448  57.731 -55.440  1.00  0.00     0.045 A 
HETATM   22  C   UNL     1     -42.594  59.690 -54.257  1.00  0.00     0.019 A 
HETATM   23  N   UNL     1     -44.221  56.565 -55.462  1.00  0.00    -0.364 N 
HETATM   24  C   UNL     1     -42.857  58.214 -56.612  1.00  0.00     0.030 A 
HETATM   25  H   UNL     1     -44.014  55.934 -56.227  1.00  0.00     0.162 HD
HETATM   26  C   UNL     1     -42.110  59.396 -56.600  1.00  0.00     0.002 A 
HETATM   27  C   UNL     1     -41.969  60.129 -55.422  1.00  0.00     0.001 A 
ENDBRANCH   8  15
TORSDOF 1
ENDMDL
MODEL 4
REMARK VINA RESULT:      -8.4      2.489      3.767
REMARK  1 active torsions:
REMARK  status: ('A' for Active; 'I' for Inactive)
REMARK    1  A    between atoms: C_8  and  C_9 
ROOT
HETATM    1  C   UNL     1     -41.115  53.374 -54.620  1.00  0.00     0.049 C 
HETATM    2  C   UNL     1     -41.120  53.746 -53.162  1.00  0.00    -0.050 A 
HETATM    3  C   UNL     1     -41.988  54.721 -52.631  1.00  0.00    -0.002 A 
HETATM    4  C   UNL     1     -41.954  55.006 -51.251  1.00  0.00     0.051 A 
HETATM    5  N   UNL     1     -42.852  55.955 -50.739  1.00  0.00    -0.322 N 
HETATM    6  C   UNL     1     -43.762  56.642 -51.489  1.00  0.00     0.256 A 
HETATM    7  O   UNL     1     -44.552  57.422 -50.963  1.00  0.00    -0.267 OA
HETATM    8  C   UNL     1     -43.756  56.415 -52.964  1.00  0.00     0.053 A 
HETATM    9  C   UNL     1     -42.929  55.480 -53.468  1.00  0.00     0.031 A 
HETATM   10  C   UNL     1     -41.053  54.352 -50.395  1.00  0.00    -0.034 A 
HETATM   11  C   UNL     1     -40.979  54.655 -48.924  1.00  0.00     0.050 C 
HETATM   12  C   UNL     1     -40.198  53.386 -50.936  1.00  0.00     0.009 A 
HETATM   13  C   UNL     1     -40.234  53.084 -52.298  1.00  0.00     0.008 A 
HETATM   14  H   UNL     1     -42.869  56.158 -49.750  1.00  0.00     0.169 HD
ENDROOT
BRANCH   8  15
HETATM   15  C   UNL     1     -44.734  57.283 -53.720  1.00  0.00     0.224 C 
HETATM   16  N   UNL     1     -44.390  58.668 -53.585  1.00  0.00    -0.331 N 
HETATM   17  C   UNL     1     -43.442  59.282 -54.353  1.00  0.00     0.255 C 
HETATM   18  H   UNL     1     -44.534  59.085 -52.674  1.00  0.00     0.165 HD
HETATM   19  O   UNL     1     -42.908  60.329 -54.007  1.00  0.00    -0.268 OA
HETATM   20  C   UNL     1     -43.118  58.625 -55.633  1.00  0.00     0.058 A 
HETATM   21  C   UNL     1     -43.835  57.471 -55.978  1.00  0.00     0.045 A 
HETATM   22  C   UNL     1     -42.144  59.161 -56.481  1.00  0.00     0.019 A 
HETATM   23  N   UNL     1     -44.831  56.960 -55.139  1.00  0.00    -0.364 N 
HETATM   24  C   UNL     1     -43.608  56.906 -57.237  1.00  0.00     0.030 A 
HETATM   25  H   UNL     1     -45.082  55.995 -55.320  1.00  0.00     0.162 HD
HETATM   26  C   UNL     1     -42.634  57.435 -58.091  1.00  0.00     0.002 A 
HETATM   27  C   UNL     1     -41.896  58.555 -57.710  1.00  0.00     0.001 A 
ENDBRANCH   8  15
TORSDOF 1
ENDMDL
MODEL 5
REMARK VINA RESULT:      -8.2      2.769      6.536
REMARK  1 active torsions:
REMARK  status: ('A' for Active; 'I' for Inactive)
REMARK    1  A    between atoms: C_8  and  C_9 
ROOT
HETATM    1  C   UNL     1     -42.594  59.179 -51.633  1.00  0.00     0.049 C 
HETATM    2  C   UNL     1     -42.475  59.111 -53.131  1.00  0.00    -0.050 A 
HETATM    3  C   UNL     1     -42.597  57.903 -53.848  1.00  0.00    -0.002 A 
HETATM    4  C   UNL     1     -42.495  57.914 -55.253  1.00  0.00     0.051 A 
HETATM    5  N   UNL     1     -42.656  56.706 -55.948  1.00  0.00    -0.322 N 
HETATM    6  C   UNL     1     -42.894  55.499 -55.356  1.00  0.00     0.256 A 
HETATM    7  O   UNL     1     -43.074  54.490 -56.032  1.00  0.00    -0.267 OA
HETATM    8  C   UNL     1     -42.922  55.453 -53.864  1.00  0.00     0.053 A 
HETATM    9  C   UNL     1     -42.809  56.609 -53.183  1.00  0.00     0.031 A 
HETATM   10  C   UNL     1     -42.250  59.106 -55.956  1.00  0.00    -0.034 A 
HETATM   11  C   UNL     1     -42.113  59.141 -57.453  1.00  0.00     0.050 C 
HETATM   12  C   UNL     1     -42.133  60.296 -55.232  1.00  0.00     0.009 A 
HETATM   13  C   UNL     1     -42.248  60.300 -53.841  1.00  0.00     0.008 A 
HETATM   14  H   UNL     1     -42.616  56.688 -56.957  1.00  0.00     0.169 HD
ENDROOT
BRANCH   8  15
HETATM   15  C   UNL     1     -43.102  54.064 -53.298  1.00  0.00     0.224 C 
HETATM   16  N   UNL     1     -42.002  53.222 -53.664  1.00  0.00    -0.331 N 
HETATM   17  C   UNL     1     -40.814  53.208 -52.990  1.00  0.00     0.255 C 
HETATM   18  H   UNL     1     -41.941  52.952 -54.638  1.00  0.00     0.165 HD
HETATM   19  O   UNL     1     -39.787  52.777 -53.500  1.00  0.00    -0.268 OA
HETATM   20  C   UNL     1     -40.846  53.718 -51.607  1.00  0.00     0.058 A 
HETATM   21  C   UNL     1     -42.083  54.120 -51.085  1.00  0.00     0.045 A 
HETATM   22  C   UNL     1     -39.678  53.767 -50.840  1.00  0.00     0.019 A 
HETATM   23  N   UNL     1     -43.253  54.037 -51.848  1.00  0.00    -0.364 N 
HETATM   24  C   UNL     1     -42.137  54.503 -49.741  1.00  0.00     0.030 A 
HETATM   25  H   UNL     1     -44.021  54.603 -51.508  1.00  0.00     0.162 HD
HETATM   26  C   UNL     1     -40.973  54.557 -48.967  1.00  0.00     0.002 A 
HETATM   27  C   UNL     1     -39.743  54.200 -49.518  1.00  0.00     0.001 A 
ENDBRANCH   8  15
TORSDOF 1
ENDMDL
MODEL 6
REMARK VINA RESULT:      -8.1      3.290      4.617
REMARK  1 active torsions:
REMARK  status: ('A' for Active; 'I' for Inactive)
REMARK    1  A    between atoms: C_8  and  C_9 
ROOT
HETATM    1  C   UNL     1     -40.511  54.146 -55.507  1.00  0.00     0.049 C 
HETATM    2  C   UNL     1     -40.925  54.296 -54.068  1.00  0.00    -0.050 A 
HETATM    3  C   UNL     1     -41.927  55.198 -53.657  1.00  0.00    -0.002 A 
HETATM    4  C   UNL     1     -42.280  55.273 -52.295  1.00  0.00     0.051 A 
HETATM    5  N   UNL     1     -43.305  56.153 -51.915  1.00  0.00    -0.322 N 
HETATM    6  C   UNL     1     -43.987  56.964 -52.775  1.00  0.00     0.256 A 
HETATM    7  O   UNL     1     -44.907  57.673 -52.376  1.00  0.00    -0.267 OA
HETATM    8  C   UNL     1     -43.570  56.960 -54.208  1.00  0.00     0.053 A 
HETATM    9  C   UNL     1     -42.616  56.094 -54.598  1.00  0.00     0.031 A 
HETATM   10  C   UNL     1     -41.636  54.480 -51.331  1.00  0.00    -0.034 A 
HETATM   11  C   UNL     1     -41.977  54.558 -49.869  1.00  0.00     0.050 C 
HETATM   12  C   UNL     1     -40.645  53.588 -51.754  1.00  0.00     0.009 A 
HETATM   13  C   UNL     1     -40.298  53.494 -53.103  1.00  0.00     0.008 A 
HETATM   14  H   UNL     1     -43.598  56.207 -50.950  1.00  0.00     0.169 HD
ENDROOT
BRANCH   8  15
HETATM   15  C   UNL     1     -44.320  57.952 -55.066  1.00  0.00     0.224 C 
HETATM   16  N   UNL     1     -43.524  59.120 -55.301  1.00  0.00    -0.331 N 
HETATM   17  C   UNL     1     -42.567  59.190 -56.274  1.00  0.00     0.255 C 
HETATM   18  H   UNL     1     -43.370  59.732 -54.509  1.00  0.00     0.165 HD
HETATM   19  O   UNL     1     -41.670  60.024 -56.239  1.00  0.00    -0.268 OA
HETATM   20  C   UNL     1     -42.691  58.221 -57.378  1.00  0.00     0.058 A 
HETATM   21  C   UNL     1     -43.794  57.356 -57.370  1.00  0.00     0.045 A 
HETATM   22  C   UNL     1     -41.750  58.196 -58.411  1.00  0.00     0.019 A 
HETATM   23  N   UNL     1     -44.750  57.410 -56.350  1.00  0.00    -0.364 N 
HETATM   24  C   UNL     1     -43.975  56.510 -58.469  1.00  0.00     0.030 A 
HETATM   25  H   UNL     1     -45.329  56.583 -56.269  1.00  0.00     0.162 HD
HETATM   26  C   UNL     1     -43.037  56.476 -59.505  1.00  0.00     0.002 A 
HETATM   27  C   UNL     1     -41.920  57.310 -59.473  1.00  0.00     0.001 A 
ENDBRANCH   8  15
TORSDOF 1
ENDMDL
MODEL 7
REMARK VINA RESULT:      -8.1     15.485     17.382
REMARK  1 active torsions:
REMARK  status: ('A' for Active; 'I' for Inactive)
REMARK    1  A    between atoms: C_8  and  C_9 
ROOT
HETATM    1  C   UNL     1     -36.916  41.529 -52.713  1.00  0.00     0.049 C 
HETATM    2  C   UNL     1     -35.594  41.055 -52.172  1.00  0.00    -0.050 A 
HETATM    3  C   UNL     1     -34.489  40.782 -53.004  1.00  0.00    -0.002 A 
HETATM    4  C   UNL     1     -33.273  40.360 -52.431  1.00  0.00     0.051 A 
HETATM    5  N   UNL     1     -32.176  40.129 -53.275  1.00  0.00    -0.322 N 
HETATM    6  C   UNL     1     -32.202  40.270 -54.632  1.00  0.00     0.256 A 
HETATM    7  O   UNL     1     -31.188  40.098 -55.303  1.00  0.00    -0.267 OA
HETATM    8  C   UNL     1     -33.503  40.634 -55.266  1.00  0.00     0.053 A 
HETATM    9  C   UNL     1     -34.555  40.898 -54.469  1.00  0.00     0.031 A 
HETATM   10  C   UNL     1     -33.145  40.184 -51.042  1.00  0.00    -0.034 A 
HETATM   11  C   UNL     1     -31.867  39.713 -50.407  1.00  0.00     0.050 C 
HETATM   12  C   UNL     1     -34.249  40.461 -50.230  1.00  0.00     0.009 A 
HETATM   13  C   UNL     1     -35.454  40.894 -50.786  1.00  0.00     0.008 A 
HETATM   14  H   UNL     1     -31.285  39.853 -52.888  1.00  0.00     0.169 HD
ENDROOT
BRANCH   8  15
HETATM   15  C   UNL     1     -33.457  40.680 -56.775  1.00  0.00     0.224 C 
HETATM   16  N   UNL     1     -33.420  39.356 -57.320  1.00  0.00    -0.331 N 
HETATM   17  C   UNL     1     -34.536  38.589 -57.502  1.00  0.00     0.255 C 
HETATM   18  H   UNL     1     -32.563  38.833 -57.186  1.00  0.00     0.165 HD
HETATM   19  O   UNL     1     -34.471  37.371 -57.620  1.00  0.00    -0.268 OA
HETATM   20  C   UNL     1     -35.817  39.315 -57.572  1.00  0.00     0.058 A 
HETATM   21  C   UNL     1     -35.783  40.714 -57.502  1.00  0.00     0.045 A 
HETATM   22  C   UNL     1     -37.020  38.620 -57.733  1.00  0.00     0.019 A 
HETATM   23  N   UNL     1     -34.572  41.404 -57.374  1.00  0.00    -0.364 N 
HETATM   24  C   UNL     1     -36.983  41.412 -57.676  1.00  0.00     0.030 A 
HETATM   25  H   UNL     1     -34.662  42.358 -57.046  1.00  0.00     0.162 HD
HETATM   26  C   UNL     1     -38.191  40.725 -57.836  1.00  0.00     0.002 A 
HETATM   27  C   UNL     1     -38.212  39.330 -57.854  1.00  0.00     0.001 A 
ENDBRANCH   8  15
TORSDOF 1
ENDMDL
MODEL 8
REMARK VINA RESULT:      -8.1      4.532      6.220
REMARK  1 active torsions:
REMARK  status: ('A' for Active; 'I' for Inactive)
REMARK    1  A    between atoms: C_8  and  C_9 
ROOT
HETATM    1  C   UNL     1     -40.370  53.794 -55.531  1.00  0.00     0.049 C 
HETATM    2  C   UNL     1     -41.252  54.387 -54.466  1.00  0.00    -0.050 A 
HETATM    3  C   UNL     1     -42.017  55.553 -54.677  1.00  0.00    -0.002 A 
HETATM    4  C   UNL     1     -42.838  56.044 -53.643  1.00  0.00     0.051 A 
HETATM    5  N   UNL     1     -43.616  57.185 -53.888  1.00  0.00    -0.322 N 
HETATM    6  C   UNL     1     -43.629  57.874 -55.066  1.00  0.00     0.256 A 
HETATM    7  O   UNL     1     -44.375  58.837 -55.224  1.00  0.00    -0.267 OA
HETATM    8  C   UNL     1     -42.704  57.420 -56.144  1.00  0.00     0.053 A 
HETATM    9  C   UNL     1     -41.978  56.304 -55.941  1.00  0.00     0.031 A 
HETATM   10  C   UNL     1     -42.894  55.406 -52.393  1.00  0.00    -0.034 A 
HETATM   11  C   UNL     1     -43.743  55.922 -51.265  1.00  0.00     0.050 C 
HETATM   12  C   UNL     1     -42.131  54.249 -52.198  1.00  0.00     0.009 A 
HETATM   13  C   UNL     1     -41.326  53.745 -53.221  1.00  0.00     0.008 A 
HETATM   14  H   UNL     1     -44.235  57.542 -53.174  1.00  0.00     0.169 HD
ENDROOT
BRANCH   8  15
HETATM   15  C   UNL     1     -42.722  58.294 -57.376  1.00  0.00     0.224 C 
HETATM   16  N   UNL     1     -42.049  57.649 -58.464  1.00  0.00    -0.331 N 
HETATM   17  C   UNL     1     -42.645  56.719 -59.267  1.00  0.00     0.255 C 
HETATM   18  H   UNL     1     -41.042  57.562 -58.388  1.00  0.00     0.165 HD
HETATM   19  O   UNL     1     -41.991  55.930 -59.939  1.00  0.00    -0.268 OA
HETATM   20  C   UNL     1     -44.119  56.737 -59.298  1.00  0.00     0.058 A 
HETATM   21  C   UNL     1     -44.778  57.725 -58.554  1.00  0.00     0.045 A 
HETATM   22  C   UNL     1     -44.826  55.811 -60.071  1.00  0.00     0.019 A 
HETATM   23  N   UNL     1     -44.063  58.669 -57.810  1.00  0.00    -0.364 N 
HETATM   24  C   UNL     1     -46.170  57.814 -58.665  1.00  0.00     0.030 A 
HETATM   25  H   UNL     1     -44.603  59.143 -57.096  1.00  0.00     0.162 HD
HETATM   26  C   UNL     1     -46.885  56.891 -59.434  1.00  0.00     0.002 A 
HETATM   27  C   UNL     1     -46.215  55.883 -60.129  1.00  0.00     0.001 A 
ENDBRANCH   8  15
TORSDOF 1
ENDMDL
MODEL 9
REMARK VINA RESULT:      -8.1     14.494     16.940
REMARK  1 active torsions:
REMARK  status: ('A' for Active; 'I' for Inactive)
REMARK    1  A    between atoms: C_8  and  C_9 
ROOT
HETATM    1  C   UNL     1     -31.803  39.266 -55.498  1.00  0.00     0.049 C 
HETATM    2  C   UNL     1     -32.934  39.089 -56.474  1.00  0.00    -0.050 A 
HETATM    3  C   UNL     1     -34.146  39.802 -56.369  1.00  0.00    -0.002 A 
HETATM    4  C   UNL     1     -35.157  39.602 -57.330  1.00  0.00     0.051 A 
HETATM    5  N   UNL     1     -36.340  40.349 -57.226  1.00  0.00    -0.322 N 
HETATM    6  C   UNL     1     -36.595  41.258 -56.241  1.00  0.00     0.256 A 
HETATM    7  O   UNL     1     -37.636  41.912 -56.242  1.00  0.00    -0.267 OA
HETATM    8  C   UNL     1     -35.573  41.422 -55.167  1.00  0.00     0.053 A 
HETATM    9  C   UNL     1     -34.415  40.744 -55.272  1.00  0.00     0.031 A 
HETATM   10  C   UNL     1     -34.990  38.686 -58.383  1.00  0.00    -0.034 A 
HETATM   11  C   UNL     1     -36.062  38.437 -59.407  1.00  0.00     0.050 C 
HETATM   12  C   UNL     1     -33.782  37.987 -58.475  1.00  0.00     0.009 A 
HETATM   13  C   UNL     1     -32.768  38.189 -57.538  1.00  0.00     0.008 A 
HETATM   14  H   UNL     1     -37.070  40.247 -57.916  1.00  0.00     0.169 HD
ENDROOT
BRANCH   8  15
HETATM   15  C   UNL     1     -35.981  42.383 -54.074  1.00  0.00     0.224 C 
HETATM   16  N   UNL     1     -37.217  41.973 -53.477  1.00  0.00    -0.331 N 
HETATM   17  C   UNL     1     -37.298  41.022 -52.500  1.00  0.00     0.255 C 
HETATM   18  H   UNL     1     -38.050  42.070 -54.045  1.00  0.00     0.165 HD
HETATM   19  O   UNL     1     -38.343  40.432 -52.257  1.00  0.00    -0.268 OA
HETATM   20  C   UNL     1     -36.061  40.767 -51.740  1.00  0.00     0.058 A 
HETATM   21  C   UNL     1     -34.934  41.545 -52.039  1.00  0.00     0.045 A 
HETATM   22  C   UNL     1     -36.032  39.796 -50.733  1.00  0.00     0.019 A 
HETATM   23  N   UNL     1     -34.980  42.537 -53.025  1.00  0.00    -0.364 N 
HETATM   24  C   UNL     1     -33.792  41.381 -51.249  1.00  0.00     0.030 A 
HETATM   25  H   UNL     1     -34.075  42.836 -53.366  1.00  0.00     0.162 HD
HETATM   26  C   UNL     1     -33.754  40.411 -50.242  1.00  0.00     0.002 A 
HETATM   27  C   UNL     1     -34.869  39.612 -49.991  1.00  0.00     0.001 A 
ENDBRANCH   8  15
TORSDOF 1
ENDMDL
MODEL 10
REMARK VINA RESULT:      -7.9      4.501      6.438
REMARK  1 active torsions:
REMARK  status: ('A' for Active; 'I' for Inactive)
REMARK    1  A    between atoms: C_8  and  C_9 
ROOT
HETATM    1  C   UNL     1     -43.233  53.778 -55.544  1.00  0.00     0.049 C 
HETATM    2  C   UNL     1     -42.773  54.739 -54.481  1.00  0.00    -0.050 A 
HETATM    3  C   UNL     1     -42.478  56.090 -54.757  1.00  0.00    -0.002 A 
HETATM    4  C   UNL     1     -42.071  56.942 -53.711  1.00  0.00     0.051 A 
HETATM    5  N   UNL     1     -41.817  58.290 -54.002  1.00  0.00    -0.322 N 
HETATM    6  C   UNL     1     -41.923  58.846 -55.245  1.00  0.00     0.256 A 
HETATM    7  O   UNL     1     -41.732  60.047 -55.416  1.00  0.00    -0.267 OA
HETATM    8  C   UNL     1     -42.270  57.942 -56.380  1.00  0.00     0.053 A 
HETATM    9  C   UNL     1     -42.556  56.654 -56.113  1.00  0.00     0.031 A 
HETATM   10  C   UNL     1     -41.931  56.465 -52.396  1.00  0.00    -0.034 A 
HETATM   11  C   UNL     1     -41.476  57.346 -51.267  1.00  0.00     0.050 C 
HETATM   12  C   UNL     1     -42.229  55.123 -52.138  1.00  0.00     0.009 A 
HETATM   13  C   UNL     1     -42.648  54.274 -53.164  1.00  0.00     0.008 A 
HETATM   14  H   UNL     1     -41.551  58.930 -53.267  1.00  0.00     0.169 HD
ENDROOT
BRANCH   8  15
HETATM   15  C   UNL     1     -42.277  58.627 -57.727  1.00  0.00     0.224 C 
HETATM   16  N   UNL     1     -41.918  57.705 -58.764  1.00  0.00    -0.331 N 
HETATM   17  C   UNL     1     -42.807  56.840 -59.337  1.00  0.00     0.255 C 
HETATM   18  H   UNL     1     -40.953  57.398 -58.785  1.00  0.00     0.165 HD
HETATM   19  O   UNL     1     -42.438  55.839 -59.940  1.00  0.00    -0.268 OA
HETATM   20  C   UNL     1     -44.232  57.195 -59.210  1.00  0.00     0.058 A 
HETATM   21  C   UNL     1     -44.553  58.398 -58.568  1.00  0.00     0.045 A 
HETATM   22  C   UNL     1     -45.222  56.364 -59.742  1.00  0.00     0.019 A 
HETATM   23  N   UNL     1     -43.555  59.241 -58.067  1.00  0.00    -0.364 N 
HETATM   24  C   UNL     1     -45.895  58.792 -58.539  1.00  0.00     0.030 A 
HETATM   25  H   UNL     1     -43.875  59.917 -57.384  1.00  0.00     0.162 HD
HETATM   26  C   UNL     1     -46.892  57.966 -59.067  1.00  0.00     0.002 A 
HETATM   27  C   UNL     1     -46.558  56.748 -59.659  1.00  0.00     0.001 A 
ENDBRANCH   8  15
TORSDOF 1
ENDMDL
