MODEL 1
REMARK VINA RESULT:      -9.3      0.000      0.000
REMARK  5 active torsions:
REMARK  status: ('A' for Active; 'I' for Inactive)
REMARK    1  A    between atoms: C_7  and  C_8 
REMARK    2  A    between atoms: C_16  and  C_17 
REMARK    3  A    between atoms: C_19  and  O_20 
REMARK    4  A    between atoms: C_24  and  C_25 
REMARK       I    between atoms: C_25  and  N_26 
REMARK    5  A    between atoms: N_26  and  C_27 
ROOT
HETATM    1  C   UNL     1     -43.410  57.558 -57.745  1.00  0.00     0.070 C 
HETATM    2  C   UNL     1     -43.030  56.916 -56.433  1.00  0.00     0.037 C 
HETATM    3  N   UNL     1     -42.080  55.898 -56.511  1.00  0.00    -0.192 N 
HETATM    4  C   UNL     1     -41.813  55.073 -55.479  1.00  0.00     0.726 A 
HETATM    5  N   UNL     1     -42.338  55.354 -54.252  1.00  0.00    -0.083 N 
HETATM    6  N   UNL     1     -42.021  54.412 -53.345  1.00  0.00    -0.135 NA
HETATM    7  C   UNL     1     -41.273  53.575 -54.089  1.00  0.00     0.200 A 
HETATM    8  N   UNL     1     -41.115  53.971 -55.404  1.00  0.00    -0.041 NA
HETATM    9  C   UNL     1     -43.114  56.558 -53.950  1.00  0.00     0.202 C 
HETATM   10  C   UNL     1     -43.557  57.262 -55.230  1.00  0.00     0.062 C 
HETATM   11  H   UNL     1     -41.801  55.596 -57.443  1.00  0.00     0.184 HD
ENDROOT
BRANCH  10  12
HETATM   12  C   UNL     1     -44.737  58.174 -55.152  1.00  0.00     0.256 C 
HETATM   13  N   UNL     1     -44.455  59.435 -54.676  1.00  0.00    -0.323 N 
HETATM   14  H   UNL     1     -43.496  59.664 -54.453  1.00  0.00     0.169 HD
HETATM   15  O   UNL     1     -45.841  57.744 -55.470  1.00  0.00    -0.267 OA
BRANCH  13  16
HETATM   16  C   UNL     1     -45.368  60.487 -54.445  1.00  0.00     0.035 A 
HETATM   17  C   UNL     1     -45.829  61.356 -55.435  1.00  0.00     0.029 A 
HETATM   18  C   UNL     1     -46.734  62.376 -55.116  1.00  0.00     0.002 A 
HETATM   19  C   UNL     1     -47.192  62.526 -53.810  1.00  0.00     0.000 A 
HETATM   20  C   UNL     1     -46.741  61.663 -52.816  1.00  0.00     0.002 A 
HETATM   21  C   UNL     1     -45.827  60.653 -53.131  1.00  0.00     0.029 A 
ENDBRANCH  13  16
ENDBRANCH  10  12
BRANCH   9  22
HETATM   22  C   UNL     1     -42.284  57.449 -53.023  1.00  0.00    -0.025 A 
HETATM   23  C   UNL     1     -40.992  57.884 -53.379  1.00  0.00     0.046 A 
HETATM   24  C   UNL     1     -40.274  58.708 -52.517  1.00  0.00     0.066 A 
HETATM   25  C   UNL     1     -40.808  59.103 -51.297  1.00  0.00     0.036 A 
HETATM   26  C   UNL     1     -42.075  58.662 -50.924  1.00  0.00     0.003 A 
HETATM   27  C   UNL     1     -42.811  57.839 -51.779  1.00  0.00     0.010 A 
BRANCH  24  28
HETATM   28  O   UNL     1     -39.028  59.158 -52.837  1.00  0.00    -0.361 OA
HETATM   29  H   UNL     1     -39.080  59.682 -53.654  1.00  0.00     0.217 HD
ENDBRANCH  24  28
ENDBRANCH   9  22
BRANCH   7  30
HETATM   30  C   UNL     1     -40.610  52.406 -53.528  1.00  0.00     0.036 A 
HETATM   31  C   UNL     1     -40.100  52.366 -52.222  1.00  0.00     0.048 A 
HETATM   32 CL   UNL     1     -40.136  53.725 -51.151  1.00  0.00    -0.083 Cl
HETATM   33  C   UNL     1     -39.483  51.202 -51.743  1.00  0.00     0.025 A 
HETATM   34  C   UNL     1     -39.367  50.074 -52.556  1.00  0.00     0.002 A 
HETATM   35  C   UNL     1     -39.860  50.104 -53.856  1.00  0.00     0.001 A 
HETATM   36  C   UNL     1     -40.474  51.261 -54.338  1.00  0.00     0.017 A 
ENDBRANCH   7  30
TORSDOF 5
ENDMDL
MODEL 2
REMARK VINA RESULT:      -9.2      3.110      4.334
REMARK  5 active torsions:
REMARK  status: ('A' for Active; 'I' for Inactive)
REMARK    1  A    between atoms: C_7  and  C_8 
REMARK    2  A    between atoms: C_16  and  C_17 
REMARK    3  A    between atoms: C_19  and  O_20 
REMARK    4  A    between atoms: C_24  and  C_25 
REMARK       I    between atoms: C_25  and  N_26 
REMARK    5  A    between atoms: N_26  and  C_27 
ROOT
HETATM    1  C   UNL     1     -46.081  58.707 -50.662  1.00  0.00     0.070 C 
HETATM    2  C   UNL     1     -44.864  58.224 -51.412  1.00  0.00     0.037 C 
HETATM    3  N   UNL     1     -44.712  56.840 -51.488  1.00  0.00    -0.192 N 
HETATM    4  C   UNL     1     -43.571  56.256 -51.907  1.00  0.00     0.726 A 
HETATM    5  N   UNL     1     -42.595  57.030 -52.464  1.00  0.00    -0.083 N 
HETATM    6  N   UNL     1     -41.506  56.308 -52.783  1.00  0.00    -0.135 NA
HETATM    7  C   UNL     1     -41.891  55.074 -52.406  1.00  0.00     0.200 A 
HETATM    8  N   UNL     1     -43.169  55.013 -51.879  1.00  0.00    -0.041 NA
HETATM    9  C   UNL     1     -42.737  58.464 -52.722  1.00  0.00     0.202 C 
HETATM   10  C   UNL     1     -43.940  59.040 -51.982  1.00  0.00     0.062 C 
HETATM   11  H   UNL     1     -45.363  56.272 -50.949  1.00  0.00     0.184 HD
ENDROOT
BRANCH  10  12
HETATM   12  C   UNL     1     -43.955  60.509 -51.710  1.00  0.00     0.256 C 
HETATM   13  N   UNL     1     -43.591  60.856 -50.428  1.00  0.00    -0.323 N 
HETATM   14  H   UNL     1     -43.313  60.123 -49.789  1.00  0.00     0.169 HD
HETATM   15  O   UNL     1     -44.310  61.274 -52.600  1.00  0.00    -0.267 OA
BRANCH  13  16
HETATM   16  C   UNL     1     -43.561  62.152 -49.868  1.00  0.00     0.035 A 
HETATM   17  C   UNL     1     -42.682  63.160 -50.269  1.00  0.00     0.029 A 
HETATM   18  C   UNL     1     -42.720  64.417 -49.656  1.00  0.00     0.002 A 
HETATM   19  C   UNL     1     -43.642  64.679 -48.647  1.00  0.00     0.000 A 
HETATM   20  C   UNL     1     -44.524  63.683 -48.241  1.00  0.00     0.002 A 
HETATM   21  C   UNL     1     -44.479  62.423 -48.843  1.00  0.00     0.029 A 
ENDBRANCH  13  16
ENDBRANCH  10  12
BRANCH   9  22
HETATM   22  C   UNL     1     -42.795  58.679 -54.236  1.00  0.00    -0.025 A 
HETATM   23  C   UNL     1     -41.985  59.636 -54.878  1.00  0.00     0.046 A 
HETATM   24  C   UNL     1     -42.053  59.790 -56.260  1.00  0.00     0.066 A 
HETATM   25  C   UNL     1     -42.921  59.019 -57.022  1.00  0.00     0.036 A 
HETATM   26  C   UNL     1     -43.744  58.085 -56.397  1.00  0.00     0.003 A 
HETATM   27  C   UNL     1     -43.683  57.914 -55.013  1.00  0.00     0.010 A 
BRANCH  24  28
HETATM   28  O   UNL     1     -41.272  60.696 -56.913  1.00  0.00    -0.361 OA
HETATM   29  H   UNL     1     -40.720  61.166 -56.265  1.00  0.00     0.217 HD
ENDBRANCH  24  28
ENDBRANCH   9  22
BRANCH   7  30
HETATM   30  C   UNL     1     -41.067  53.893 -52.623  1.00  0.00     0.036 A 
HETATM   31  C   UNL     1     -40.275  53.315 -51.621  1.00  0.00     0.048 A 
HETATM   32 CL   UNL     1     -40.131  53.979 -50.028  1.00  0.00    -0.083 Cl
HETATM   33  C   UNL     1     -39.514  52.170 -51.897  1.00  0.00     0.025 A 
HETATM   34  C   UNL     1     -39.532  51.596 -53.169  1.00  0.00     0.002 A 
HETATM   35  C   UNL     1     -40.306  52.166 -54.174  1.00  0.00     0.001 A 
HETATM   36  C   UNL     1     -41.065  53.306 -53.904  1.00  0.00     0.017 A 
ENDBRANCH   7  30
TORSDOF 5
ENDMDL
MODEL 3
REMARK VINA RESULT:      -9.0      2.919      8.577
REMARK  5 active torsions:
REMARK  status: ('A' for Active; 'I' for Inactive)
REMARK    1  A    between atoms: C_7  and  C_8 
REMARK    2  A    between atoms: C_16  and  C_17 
REMARK    3  A    between atoms: C_19  and  O_20 
REMARK    4  A    between atoms: C_24  and  C_25 
REMARK       I    between atoms: C_25  and  N_26 
REMARK    5  A    between atoms: N_26  and  C_27 
ROOT
HETATM    1  C   UNL     1     -44.010  54.257 -50.799  1.00  0.00     0.070 C 
HETATM    2  C   UNL     1     -43.843  55.708 -51.180  1.00  0.00     0.037 C 
HETATM    3  N   UNL     1     -44.734  56.597 -50.581  1.00  0.00    -0.192 N 
HETATM    4  C   UNL     1     -44.873  57.873 -50.991  1.00  0.00     0.726 A 
HETATM    5  N   UNL     1     -43.981  58.383 -51.889  1.00  0.00    -0.083 N 
HETATM    6  N   UNL     1     -44.285  59.647 -52.233  1.00  0.00    -0.135 NA
HETATM    7  C   UNL     1     -45.384  59.864 -51.485  1.00  0.00     0.200 A 
HETATM    8  N   UNL     1     -45.756  58.791 -50.696  1.00  0.00    -0.041 NA
HETATM    9  C   UNL     1     -42.811  57.654 -52.383  1.00  0.00     0.202 C 
HETATM   10  C   UNL     1     -42.910  56.168 -52.054  1.00  0.00     0.062 C 
HETATM   11  H   UNL     1     -45.487  56.194 -50.026  1.00  0.00     0.184 HD
ENDROOT
BRANCH  10  12
HETATM   12  C   UNL     1     -42.110  55.215 -52.881  1.00  0.00     0.256 C 
HETATM   13  N   UNL     1     -41.749  54.057 -52.231  1.00  0.00    -0.323 N 
HETATM   14  H   UNL     1     -42.068  53.916 -51.281  1.00  0.00     0.169 HD
HETATM   15  O   UNL     1     -41.811  55.532 -54.027  1.00  0.00    -0.267 OA
BRANCH  13  16
HETATM   16  C   UNL     1     -40.955  53.003 -52.735  1.00  0.00     0.035 A 
HETATM   17  C   UNL     1     -41.056  52.497 -54.032  1.00  0.00     0.029 A 
HETATM   18  C   UNL     1     -40.230  51.446 -54.448  1.00  0.00     0.002 A 
HETATM   19  C   UNL     1     -39.290  50.904 -53.575  1.00  0.00     0.000 A 
HETATM   20  C   UNL     1     -39.180  51.403 -52.281  1.00  0.00     0.002 A 
HETATM   21  C   UNL     1     -40.013  52.443 -51.860  1.00  0.00     0.029 A 
ENDBRANCH  13  16
ENDBRANCH  10  12
BRANCH   9  22
HETATM   22  C   UNL     1     -41.554  58.319 -51.818  1.00  0.00    -0.025 A 
HETATM   23  C   UNL     1     -40.404  58.515 -52.607  1.00  0.00     0.046 A 
HETATM   24  C   UNL     1     -39.286  59.140 -52.063  1.00  0.00     0.066 A 
HETATM   25  C   UNL     1     -39.279  59.568 -50.742  1.00  0.00     0.036 A 
HETATM   26  C   UNL     1     -40.401  59.360 -49.944  1.00  0.00     0.003 A 
HETATM   27  C   UNL     1     -41.533  58.740 -50.477  1.00  0.00     0.010 A 
BRANCH  24  28
HETATM   28  O   UNL     1     -38.162  59.357 -52.804  1.00  0.00    -0.361 OA
HETATM   29  H   UNL     1     -37.740  58.503 -52.999  1.00  0.00     0.217 HD
ENDBRANCH  24  28
ENDBRANCH   9  22
BRANCH   7  30
HETATM   30  C   UNL     1     -46.062  61.152 -51.441  1.00  0.00     0.036 A 
HETATM   31  C   UNL     1     -45.694  62.184 -50.565  1.00  0.00     0.048 A 
HETATM   32 CL   UNL     1     -44.438  62.019 -49.385  1.00  0.00    -0.083 Cl
HETATM   33  C   UNL     1     -46.384  63.403 -50.584  1.00  0.00     0.025 A 
HETATM   34  C   UNL     1     -47.444  63.606 -51.470  1.00  0.00     0.002 A 
HETATM   35  C   UNL     1     -47.824  62.587 -52.337  1.00  0.00     0.001 A 
HETATM   36  C   UNL     1     -47.141  61.370 -52.321  1.00  0.00     0.017 A 
ENDBRANCH   7  30
TORSDOF 5
ENDMDL
MODEL 4
REMARK VINA RESULT:      -8.8      2.764      8.802
REMARK  5 active torsions:
REMARK  status: ('A' for Active; 'I' for Inactive)
REMARK    1  A    between atoms: C_7  and  C_8 
REMARK    2  A    between atoms: C_16  and  C_17 
REMARK    3  A    between atoms: C_19  and  O_20 
REMARK    4  A    between atoms: C_24  and  C_25 
REMARK       I    between atoms: C_25  and  N_26 
REMARK    5  A    between atoms: N_26  and  C_27 
ROOT
HETATM    1  C   UNL     1     -40.440  56.106 -50.154  1.00  0.00     0.070 C 
HETATM    2  C   UNL     1     -41.577  56.656 -50.979  1.00  0.00     0.037 C 
HETATM    3  N   UNL     1     -41.911  57.988 -50.736  1.00  0.00    -0.192 N 
HETATM    4  C   UNL     1     -43.041  58.551 -51.208  1.00  0.00     0.726 A 
HETATM    5  N   UNL     1     -43.794  57.868 -52.118  1.00  0.00    -0.083 N 
HETATM    6  N   UNL     1     -44.910  58.542 -52.450  1.00  0.00    -0.135 NA
HETATM    7  C   UNL     1     -44.771  59.658 -51.710  1.00  0.00     0.200 A 
HETATM    8  N   UNL     1     -43.617  59.696 -50.949  1.00  0.00    -0.041 NA
HETATM    9  C   UNL     1     -43.409  56.578 -52.694  1.00  0.00     0.202 C 
HETATM   10  C   UNL     1     -42.270  55.941 -51.903  1.00  0.00     0.062 C 
HETATM   11  H   UNL     1     -41.443  58.447 -49.957  1.00  0.00     0.184 HD
ENDROOT
BRANCH  10  12
HETATM   12  C   UNL     1     -42.090  54.462 -52.008  1.00  0.00     0.256 C 
HETATM   13  N   UNL     1     -40.948  54.071 -52.671  1.00  0.00    -0.323 N 
HETATM   14  H   UNL     1     -40.311  54.785 -52.998  1.00  0.00     0.169 HD
HETATM   15  O   UNL     1     -42.954  53.724 -51.548  1.00  0.00    -0.267 OA
BRANCH  13  16
HETATM   16  C   UNL     1     -40.538  52.752 -52.968  1.00  0.00     0.035 A 
HETATM   17  C   UNL     1     -40.717  52.137 -54.208  1.00  0.00     0.029 A 
HETATM   18  C   UNL     1     -40.282  50.822 -54.414  1.00  0.00     0.002 A 
HETATM   19  C   UNL     1     -39.656  50.120 -53.388  1.00  0.00     0.000 A 
HETATM   20  C   UNL     1     -39.472  50.725 -52.149  1.00  0.00     0.002 A 
HETATM   21  C   UNL     1     -39.917  52.033 -51.937  1.00  0.00     0.029 A 
ENDBRANCH  13  16
ENDBRANCH  10  12
BRANCH   9  22
HETATM   22  C   UNL     1     -43.078  56.789 -54.172  1.00  0.00    -0.025 A 
HETATM   23  C   UNL     1     -43.406  55.826 -55.147  1.00  0.00     0.046 A 
HETATM   24  C   UNL     1     -43.105  56.061 -56.486  1.00  0.00     0.066 A 
HETATM   25  C   UNL     1     -42.471  57.233 -56.879  1.00  0.00     0.036 A 
HETATM   26  C   UNL     1     -42.121  58.183 -55.923  1.00  0.00     0.003 A 
HETATM   27  C   UNL     1     -42.421  57.964 -54.577  1.00  0.00     0.010 A 
BRANCH  24  28
HETATM   28  O   UNL     1     -43.421  55.157 -57.455  1.00  0.00    -0.361 OA
HETATM   29  H   UNL     1     -42.705  54.504 -57.527  1.00  0.00     0.217 HD
ENDBRANCH  24  28
ENDBRANCH   9  22
BRANCH   7  30
HETATM   30  C   UNL     1     -45.710  60.769 -51.781  1.00  0.00     0.036 A 
HETATM   31  C   UNL     1     -46.139  61.484 -50.653  1.00  0.00     0.048 A 
HETATM   32 CL   UNL     1     -45.658  61.083 -49.039  1.00  0.00    -0.083 Cl
HETATM   33  C   UNL     1     -47.037  62.551 -50.796  1.00  0.00     0.025 A 
HETATM   34  C   UNL     1     -47.515  62.913 -52.056  1.00  0.00     0.002 A 
HETATM   35  C   UNL     1     -47.104  62.206 -53.181  1.00  0.00     0.001 A 
HETATM   36  C   UNL     1     -46.211  61.142 -53.044  1.00  0.00     0.017 A 
ENDBRANCH   7  30
TORSDOF 5
ENDMDL
MODEL 5
REMARK VINA RESULT:      -8.6      2.015      3.780
REMARK  5 active torsions:
REMARK  status: ('A' for Active; 'I' for Inactive)
REMARK    1  A    between atoms: C_7  and  C_8 
REMARK    2  A    between atoms: C_16  and  C_17 
REMARK    3  A    between atoms: C_19  and  O_20 
REMARK    4  A    between atoms: C_24  and  C_25 
REMARK       I    between atoms: C_25  and  N_26 
REMARK    5  A    between atoms: N_26  and  C_27 
ROOT
HETATM    1  C   UNL     1     -45.363  58.460 -51.013  1.00  0.00     0.070 C 
HETATM    2  C   UNL     1     -44.275  57.803 -51.827  1.00  0.00     0.037 C 
HETATM    3  N   UNL     1     -44.198  56.415 -51.723  1.00  0.00    -0.192 N 
HETATM    4  C   UNL     1     -43.148  55.709 -52.189  1.00  0.00     0.726 A 
HETATM    5  N   UNL     1     -42.217  56.337 -52.964  1.00  0.00    -0.083 N 
HETATM    6  N   UNL     1     -41.212  55.511 -53.305  1.00  0.00    -0.135 NA
HETATM    7  C   UNL     1     -41.601  54.366 -52.712  1.00  0.00     0.200 A 
HETATM    8  N   UNL     1     -42.802  54.458 -52.032  1.00  0.00    -0.041 NA
HETATM    9  C   UNL     1     -42.325  57.729 -53.405  1.00  0.00     0.202 C 
HETATM   10  C   UNL     1     -43.396  58.475 -52.615  1.00  0.00     0.062 C 
HETATM   11  H   UNL     1     -44.800  55.968 -51.034  1.00  0.00     0.184 HD
ENDROOT
BRANCH  10  12
HETATM   12  C   UNL     1     -43.309  59.965 -52.555  1.00  0.00     0.256 C 
HETATM   13  N   UNL     1     -44.236  60.623 -53.331  1.00  0.00    -0.323 N 
HETATM   14  H   UNL     1     -44.915  60.075 -53.843  1.00  0.00     0.169 HD
HETATM   15  O   UNL     1     -42.428  60.480 -51.875  1.00  0.00    -0.267 OA
BRANCH  13  16
HETATM   16  C   UNL     1     -44.363  62.018 -53.515  1.00  0.00     0.035 A 
HETATM   17  C   UNL     1     -45.283  62.818 -52.835  1.00  0.00     0.029 A 
HETATM   18  C   UNL     1     -45.342  64.194 -53.082  1.00  0.00     0.002 A 
HETATM   19  C   UNL     1     -44.476  64.781 -54.001  1.00  0.00     0.000 A 
HETATM   20  C   UNL     1     -43.554  63.993 -54.683  1.00  0.00     0.002 A 
HETATM   21  C   UNL     1     -43.503  62.617 -54.446  1.00  0.00     0.029 A 
ENDBRANCH  13  16
ENDBRANCH  10  12
BRANCH   9  22
HETATM   22  C   UNL     1     -42.566  57.739 -54.916  1.00  0.00    -0.025 A 
HETATM   23  C   UNL     1     -42.986  56.585 -55.605  1.00  0.00     0.046 A 
HETATM   24  C   UNL     1     -43.213  56.637 -56.977  1.00  0.00     0.066 A 
HETATM   25  C   UNL     1     -43.019  57.815 -57.687  1.00  0.00     0.036 A 
HETATM   26  C   UNL     1     -42.582  58.957 -57.023  1.00  0.00     0.003 A 
HETATM   27  C   UNL     1     -42.356  58.922 -55.645  1.00  0.00     0.010 A 
BRANCH  24  28
HETATM   28  O   UNL     1     -43.634  55.542 -57.670  1.00  0.00    -0.361 OA
HETATM   29  H   UNL     1     -44.433  55.184 -57.246  1.00  0.00     0.217 HD
ENDBRANCH  24  28
ENDBRANCH   9  22
BRANCH   7  30
HETATM   30  C   UNL     1     -40.867  53.117 -52.857  1.00  0.00     0.036 A 
HETATM   31  C   UNL     1     -40.105  52.551 -51.824  1.00  0.00     0.048 A 
HETATM   32 CL   UNL     1     -39.894  53.307 -50.281  1.00  0.00    -0.083 Cl
HETATM   33  C   UNL     1     -39.432  51.339 -52.029  1.00  0.00     0.025 A 
HETATM   34  C   UNL     1     -39.508  50.684 -53.260  1.00  0.00     0.002 A 
HETATM   35  C   UNL     1     -40.252  51.240 -54.295  1.00  0.00     0.001 A 
HETATM   36  C   UNL     1     -40.923  52.448 -54.096  1.00  0.00     0.017 A 
ENDBRANCH   7  30
TORSDOF 5
ENDMDL
MODEL 6
REMARK VINA RESULT:      -8.5      2.828      8.359
REMARK  5 active torsions:
REMARK  status: ('A' for Active; 'I' for Inactive)
REMARK    1  A    between atoms: C_7  and  C_8 
REMARK    2  A    between atoms: C_16  and  C_17 
REMARK    3  A    between atoms: C_19  and  O_20 
REMARK    4  A    between atoms: C_24  and  C_25 
REMARK       I    between atoms: C_25  and  N_26 
REMARK    5  A    between atoms: N_26  and  C_27 
ROOT
HETATM    1  C   UNL     1     -43.769  54.423 -55.159  1.00  0.00     0.070 C 
HETATM    2  C   UNL     1     -43.106  55.771 -55.020  1.00  0.00     0.037 C 
HETATM    3  N   UNL     1     -43.894  56.870 -55.359  1.00  0.00    -0.192 N 
HETATM    4  C   UNL     1     -43.385  58.108 -55.518  1.00  0.00     0.726 A 
HETATM    5  N   UNL     1     -42.094  58.348 -55.146  1.00  0.00    -0.083 N 
HETATM    6  N   UNL     1     -41.724  59.612 -55.414  1.00  0.00    -0.135 NA
HETATM    7  C   UNL     1     -42.858  60.111 -55.943  1.00  0.00     0.200 A 
HETATM    8  N   UNL     1     -43.903  59.206 -56.000  1.00  0.00    -0.041 NA
HETATM    9  C   UNL     1     -41.234  57.358 -54.495  1.00  0.00     0.202 C 
HETATM   10  C   UNL     1     -41.825  55.956 -54.607  1.00  0.00     0.062 C 
HETATM   11  H   UNL     1     -44.805  56.676 -55.772  1.00  0.00     0.184 HD
ENDROOT
BRANCH  10  12
HETATM   12  C   UNL     1     -40.897  54.794 -54.470  1.00  0.00     0.256 C 
HETATM   13  N   UNL     1     -41.370  53.775 -53.674  1.00  0.00    -0.323 N 
HETATM   14  H   UNL     1     -42.298  53.861 -53.279  1.00  0.00     0.169 HD
HETATM   15  O   UNL     1     -39.804  54.839 -55.023  1.00  0.00    -0.267 OA
BRANCH  13  16
HETATM   16  C   UNL     1     -40.701  52.582 -53.321  1.00  0.00     0.035 A 
HETATM   17  C   UNL     1     -40.125  52.347 -52.072  1.00  0.00     0.029 A 
HETATM   18  C   UNL     1     -39.477  51.135 -51.808  1.00  0.00     0.002 A 
HETATM   19  C   UNL     1     -39.412  50.146 -52.786  1.00  0.00     0.000 A 
HETATM   20  C   UNL     1     -39.985  50.369 -54.034  1.00  0.00     0.002 A 
HETATM   21  C   UNL     1     -40.621  51.584 -54.303  1.00  0.00     0.029 A 
ENDBRANCH  13  16
ENDBRANCH  10  12
BRANCH   9  22
HETATM   22  C   UNL     1     -40.994  57.803 -53.051  1.00  0.00    -0.025 A 
HETATM   23  C   UNL     1     -39.926  58.654 -52.708  1.00  0.00     0.046 A 
HETATM   24  C   UNL     1     -39.750  59.052 -51.385  1.00  0.00     0.066 A 
HETATM   25  C   UNL     1     -40.610  58.611 -50.388  1.00  0.00     0.036 A 
HETATM   26  C   UNL     1     -41.656  57.750 -50.709  1.00  0.00     0.003 A 
HETATM   27  C   UNL     1     -41.849  57.347 -52.032  1.00  0.00     0.010 A 
BRANCH  24  28
HETATM   28  O   UNL     1     -38.736  59.887 -51.023  1.00  0.00    -0.361 OA
HETATM   29  H   UNL     1     -38.003  59.789 -51.654  1.00  0.00     0.217 HD
ENDBRANCH  24  28
ENDBRANCH   9  22
BRANCH   7  30
HETATM   30  C   UNL     1     -42.996  61.508 -56.330  1.00  0.00     0.036 A 
HETATM   31  C   UNL     1     -42.395  62.049 -57.476  1.00  0.00     0.048 A 
HETATM   32 CL   UNL     1     -41.361  61.137 -58.522  1.00  0.00    -0.083 Cl
HETATM   33  C   UNL     1     -42.580  63.402 -57.795  1.00  0.00     0.025 A 
HETATM   34  C   UNL     1     -43.359  64.224 -56.979  1.00  0.00     0.002 A 
HETATM   35  C   UNL     1     -43.952  63.701 -55.835  1.00  0.00     0.001 A 
HETATM   36  C   UNL     1     -43.770  62.355 -55.512  1.00  0.00     0.017 A 
ENDBRANCH   7  30
TORSDOF 5
ENDMDL
MODEL 7
REMARK VINA RESULT:      -8.5      3.356      9.028
REMARK  5 active torsions:
REMARK  status: ('A' for Active; 'I' for Inactive)
REMARK    1  A    between atoms: C_7  and  C_8 
REMARK    2  A    between atoms: C_16  and  C_17 
REMARK    3  A    between atoms: C_19  and  O_20 
REMARK    4  A    between atoms: C_24  and  C_25 
REMARK       I    between atoms: C_25  and  N_26 
REMARK    5  A    between atoms: N_26  and  C_27 
ROOT
HETATM    1  C   UNL     1     -39.554  59.171 -50.700  1.00  0.00     0.070 C 
HETATM    2  C   UNL     1     -41.043  59.330 -50.893  1.00  0.00     0.037 C 
HETATM    3  N   UNL     1     -41.581  60.544 -50.466  1.00  0.00    -0.192 N 
HETATM    4  C   UNL     1     -42.908  60.749 -50.348  1.00  0.00     0.726 A 
HETATM    5  N   UNL     1     -43.770  59.816 -50.844  1.00  0.00    -0.083 N 
HETATM    6  N   UNL     1     -45.053  60.142 -50.603  1.00  0.00    -0.135 NA
HETATM    7  C   UNL     1     -44.907  61.316 -49.959  1.00  0.00     0.200 A 
HETATM    8  N   UNL     1     -43.593  61.720 -49.806  1.00  0.00    -0.041 NA
HETATM    9  C   UNL     1     -43.350  58.626 -51.587  1.00  0.00     0.202 C 
HETATM   10  C   UNL     1     -41.852  58.381 -51.430  1.00  0.00     0.062 C 
HETATM   11  H   UNL     1     -40.958  61.176 -49.967  1.00  0.00     0.184 HD
ENDROOT
BRANCH  10  12
HETATM   12  C   UNL     1     -41.343  56.997 -51.669  1.00  0.00     0.256 C 
HETATM   13  N   UNL     1     -41.351  56.606 -52.989  1.00  0.00    -0.323 N 
HETATM   14  H   UNL     1     -41.655  57.270 -53.689  1.00  0.00     0.169 HD
HETATM   15  O   UNL     1     -40.999  56.317 -50.709  1.00  0.00    -0.267 OA
BRANCH  13  16
HETATM   16  C   UNL     1     -40.980  55.348 -53.512  1.00  0.00     0.035 A 
HETATM   17  C   UNL     1     -40.418  55.158 -54.776  1.00  0.00     0.029 A 
HETATM   18  C   UNL     1     -40.082  53.873 -55.216  1.00  0.00     0.002 A 
HETATM   19  C   UNL     1     -40.294  52.770 -54.392  1.00  0.00     0.000 A 
HETATM   20  C   UNL     1     -40.851  52.948 -53.129  1.00  0.00     0.002 A 
HETATM   21  C   UNL     1     -41.199  54.230 -52.694  1.00  0.00     0.029 A 
ENDBRANCH  13  16
ENDBRANCH  10  12
BRANCH   9  22
HETATM   22  C   UNL     1     -43.789  58.786 -53.044  1.00  0.00    -0.025 A 
HETATM   23  C   UNL     1     -44.770  57.953 -53.615  1.00  0.00     0.046 A 
HETATM   24  C   UNL     1     -45.157  58.141 -54.939  1.00  0.00     0.066 A 
HETATM   25  C   UNL     1     -44.580  59.136 -55.717  1.00  0.00     0.036 A 
HETATM   26  C   UNL     1     -43.592  59.952 -55.171  1.00  0.00     0.003 A 
HETATM   27  C   UNL     1     -43.197  59.780 -53.843  1.00  0.00     0.010 A 
BRANCH  24  28
HETATM   28  O   UNL     1     -46.114  57.361 -55.517  1.00  0.00    -0.361 OA
HETATM   29  H   UNL     1     -45.684  56.641 -56.008  1.00  0.00     0.217 HD
ENDBRANCH  24  28
ENDBRANCH   9  22
BRANCH   7  30
HETATM   30  C   UNL     1     -46.041  62.132 -49.547  1.00  0.00     0.036 A 
HETATM   31  C   UNL     1     -46.449  62.258 -48.211  1.00  0.00     0.048 A 
HETATM   32 CL   UNL     1     -45.698  61.403 -46.907  1.00  0.00    -0.083 Cl
HETATM   33  C   UNL     1     -47.544  63.071 -47.884  1.00  0.00     0.025 A 
HETATM   34  C   UNL     1     -48.240  63.759 -48.879  1.00  0.00     0.002 A 
HETATM   35  C   UNL     1     -47.850  63.634 -50.208  1.00  0.00     0.001 A 
HETATM   36  C   UNL     1     -46.761  62.825 -50.539  1.00  0.00     0.017 A 
ENDBRANCH   7  30
TORSDOF 5
ENDMDL
MODEL 8
REMARK VINA RESULT:      -8.5      2.761      8.356
REMARK  5 active torsions:
REMARK  status: ('A' for Active; 'I' for Inactive)
REMARK    1  A    between atoms: C_7  and  C_8 
REMARK    2  A    between atoms: C_16  and  C_17 
REMARK    3  A    between atoms: C_19  and  O_20 
REMARK    4  A    between atoms: C_24  and  C_25 
REMARK       I    between atoms: C_25  and  N_26 
REMARK    5  A    between atoms: N_26  and  C_27 
ROOT
HETATM    1  C   UNL     1     -44.288  54.610 -50.178  1.00  0.00     0.070 C 
HETATM    2  C   UNL     1     -43.847  55.765 -51.042  1.00  0.00     0.037 C 
HETATM    3  N   UNL     1     -44.806  56.750 -51.270  1.00  0.00    -0.192 N 
HETATM    4  C   UNL     1     -44.652  57.713 -52.202  1.00  0.00     0.726 A 
HETATM    5  N   UNL     1     -43.441  57.858 -52.812  1.00  0.00    -0.083 N 
HETATM    6  N   UNL     1     -43.466  58.824 -53.747  1.00  0.00    -0.135 NA
HETATM    7  C   UNL     1     -44.739  59.252 -53.648  1.00  0.00     0.200 A 
HETATM    8  N   UNL     1     -45.486  58.594 -52.688  1.00  0.00    -0.041 NA
HETATM    9  C   UNL     1     -42.249  57.085 -52.458  1.00  0.00     0.202 C 
HETATM   10  C   UNL     1     -42.611  55.880 -51.595  1.00  0.00     0.062 C 
HETATM   11  H   UNL     1     -45.749  56.565 -50.933  1.00  0.00     0.184 HD
ENDROOT
BRANCH  10  12
HETATM   12  C   UNL     1     -41.655  54.733 -51.562  1.00  0.00     0.256 C 
HETATM   13  N   UNL     1     -41.664  53.949 -52.693  1.00  0.00    -0.323 N 
HETATM   14  H   UNL     1     -42.270  54.213 -53.460  1.00  0.00     0.169 HD
HETATM   15  O   UNL     1     -40.979  54.553 -50.555  1.00  0.00    -0.267 OA
BRANCH  13  16
HETATM   16  C   UNL     1     -40.914  52.776 -52.929  1.00  0.00     0.035 A 
HETATM   17  C   UNL     1     -40.091  52.168 -51.979  1.00  0.00     0.029 A 
HETATM   18  C   UNL     1     -39.380  51.006 -52.300  1.00  0.00     0.002 A 
HETATM   19  C   UNL     1     -39.495  50.438 -53.566  1.00  0.00     0.000 A 
HETATM   20  C   UNL     1     -40.314  51.035 -54.519  1.00  0.00     0.002 A 
HETATM   21  C   UNL     1     -41.015  52.203 -54.204  1.00  0.00     0.029 A 
ENDBRANCH  13  16
ENDBRANCH  10  12
BRANCH   9  22
HETATM   22  C   UNL     1     -41.242  58.027 -51.794  1.00  0.00    -0.025 A 
HETATM   23  C   UNL     1     -40.018  58.353 -52.411  1.00  0.00     0.046 A 
HETATM   24  C   UNL     1     -39.135  59.228 -51.785  1.00  0.00     0.066 A 
HETATM   25  C   UNL     1     -39.436  59.780 -50.547  1.00  0.00     0.036 A 
HETATM   26  C   UNL     1     -40.632  59.449 -49.915  1.00  0.00     0.003 A 
HETATM   27  C   UNL     1     -41.531  58.577 -50.533  1.00  0.00     0.010 A 
BRANCH  24  28
HETATM   28  O   UNL     1     -37.950  59.575 -52.361  1.00  0.00    -0.361 OA
HETATM   29  H   UNL     1     -37.997  59.398 -53.316  1.00  0.00     0.217 HD
ENDBRANCH  24  28
ENDBRANCH   9  22
BRANCH   7  30
HETATM   30  C   UNL     1     -45.252  60.375 -54.420  1.00  0.00     0.036 A 
HETATM   31  C   UNL     1     -45.514  60.305 -55.796  1.00  0.00     0.048 A 
HETATM   32 CL   UNL     1     -45.189  58.897 -56.750  1.00  0.00    -0.083 Cl
HETATM   33  C   UNL     1     -46.019  61.423 -56.474  1.00  0.00     0.025 A 
HETATM   34  C   UNL     1     -46.265  62.616 -55.793  1.00  0.00     0.002 A 
HETATM   35  C   UNL     1     -46.001  62.701 -54.430  1.00  0.00     0.001 A 
HETATM   36  C   UNL     1     -45.497  61.591 -53.750  1.00  0.00     0.017 A 
ENDBRANCH   7  30
TORSDOF 5
ENDMDL
MODEL 9
REMARK VINA RESULT:      -8.4      3.900      8.410
REMARK  5 active torsions:
REMARK  status: ('A' for Active; 'I' for Inactive)
REMARK    1  A    between atoms: C_7  and  C_8 
REMARK    2  A    between atoms: C_16  and  C_17 
REMARK    3  A    between atoms: C_19  and  O_20 
REMARK    4  A    between atoms: C_24  and  C_25 
REMARK       I    between atoms: C_25  and  N_26 
REMARK    5  A    between atoms: N_26  and  C_27 
ROOT
HETATM    1  C   UNL     1     -43.395  55.299 -58.102  1.00  0.00     0.070 C 
HETATM    2  C   UNL     1     -43.031  56.639 -57.513  1.00  0.00     0.037 C 
HETATM    3  N   UNL     1     -42.968  57.699 -58.417  1.00  0.00    -0.192 N 
HETATM    4  C   UNL     1     -42.431  58.894 -58.099  1.00  0.00     0.726 A 
HETATM    5  N   UNL     1     -42.113  59.154 -56.798  1.00  0.00    -0.083 N 
HETATM    6  N   UNL     1     -41.543  60.364 -56.655  1.00  0.00    -0.135 NA
HETATM    7  C   UNL     1     -41.556  60.811 -57.926  1.00  0.00     0.200 A 
HETATM    8  N   UNL     1     -42.116  59.929 -58.832  1.00  0.00    -0.041 NA
HETATM    9  C   UNL     1     -42.399  58.243 -55.688  1.00  0.00     0.202 C 
HETATM   10  C   UNL     1     -42.760  56.851 -56.199  1.00  0.00     0.062 C 
HETATM   11  H   UNL     1     -43.064  57.471 -59.404  1.00  0.00     0.184 HD
ENDROOT
BRANCH  10  12
HETATM   12  C   UNL     1     -42.588  55.699 -55.264  1.00  0.00     0.256 C 
HETATM   13  N   UNL     1     -41.279  55.342 -55.031  1.00  0.00    -0.323 N 
HETATM   14  H   UNL     1     -40.545  55.888 -55.464  1.00  0.00     0.169 HD
HETATM   15  O   UNL     1     -43.586  55.146 -54.813  1.00  0.00    -0.267 OA
BRANCH  13  16
HETATM   16  C   UNL     1     -40.811  54.269 -54.241  1.00  0.00     0.035 A 
HETATM   17  C   UNL     1     -40.321  53.069 -54.759  1.00  0.00     0.029 A 
HETATM   18  C   UNL     1     -39.879  52.056 -53.901  1.00  0.00     0.002 A 
HETATM   19  C   UNL     1     -39.913  52.239 -52.521  1.00  0.00     0.000 A 
HETATM   20  C   UNL     1     -40.397  53.433 -51.994  1.00  0.00     0.002 A 
HETATM   21  C   UNL     1     -40.851  54.440 -52.850  1.00  0.00     0.029 A 
ENDBRANCH  13  16
ENDBRANCH  10  12
BRANCH   9  22
HETATM   22  C   UNL     1     -43.488  58.871 -54.816  1.00  0.00    -0.025 A 
HETATM   23  C   UNL     1     -44.509  59.669 -55.369  1.00  0.00     0.046 A 
HETATM   24  C   UNL     1     -45.492  60.209 -54.545  1.00  0.00     0.066 A 
HETATM   25  C   UNL     1     -45.478  59.984 -53.175  1.00  0.00     0.036 A 
HETATM   26  C   UNL     1     -44.461  59.217 -52.612  1.00  0.00     0.003 A 
HETATM   27  C   UNL     1     -43.470  58.663 -53.425  1.00  0.00     0.010 A 
BRANCH  24  28
HETATM   28  O   UNL     1     -46.502  60.972 -55.050  1.00  0.00    -0.361 OA
HETATM   29  H   UNL     1     -47.336  60.477 -54.989  1.00  0.00     0.217 HD
ENDBRANCH  24  28
ENDBRANCH   9  22
BRANCH   7  30
HETATM   30  C   UNL     1     -41.106  62.146 -58.293  1.00  0.00     0.036 A 
HETATM   31  C   UNL     1     -41.828  63.310 -57.990  1.00  0.00     0.048 A 
HETATM   32 CL   UNL     1     -43.372  63.287 -57.207  1.00  0.00    -0.083 Cl
HETATM   33  C   UNL     1     -41.330  64.565 -58.365  1.00  0.00     0.025 A 
HETATM   34  C   UNL     1     -40.115  64.673 -59.044  1.00  0.00     0.002 A 
HETATM   35  C   UNL     1     -39.394  63.526 -59.358  1.00  0.00     0.001 A 
HETATM   36  C   UNL     1     -39.887  62.273 -58.988  1.00  0.00     0.017 A 
ENDBRANCH   7  30
TORSDOF 5
ENDMDL
MODEL 10
REMARK VINA RESULT:      -8.4      2.676      8.916
REMARK  5 active torsions:
REMARK  status: ('A' for Active; 'I' for Inactive)
REMARK    1  A    between atoms: C_7  and  C_8 
REMARK    2  A    between atoms: C_16  and  C_17 
REMARK    3  A    between atoms: C_19  and  O_20 
REMARK    4  A    between atoms: C_24  and  C_25 
REMARK       I    between atoms: C_25  and  N_26 
REMARK    5  A    between atoms: N_26  and  C_27 
ROOT
HETATM    1  C   UNL     1     -40.857  57.296 -50.552  1.00  0.00     0.070 C 
HETATM    2  C   UNL     1     -41.966  57.640 -51.516  1.00  0.00     0.037 C 
HETATM    3  N   UNL     1     -42.394  58.967 -51.497  1.00  0.00    -0.192 N 
HETATM    4  C   UNL     1     -43.519  59.376 -52.115  1.00  0.00     0.726 A 
HETATM    5  N   UNL     1     -44.166  58.517 -52.954  1.00  0.00    -0.083 N 
HETATM    6  N   UNL     1     -45.294  59.056 -53.450  1.00  0.00    -0.135 NA
HETATM    7  C   UNL     1     -45.273  60.276 -52.880  1.00  0.00     0.200 A 
HETATM    8  N   UNL     1     -44.178  60.504 -52.066  1.00  0.00    -0.041 NA
HETATM    9  C   UNL     1     -43.667  57.185 -53.305  1.00  0.00     0.202 C 
HETATM   10  C   UNL     1     -42.550  56.751 -52.361  1.00  0.00     0.062 C 
HETATM   11  H   UNL     1     -42.008  59.566 -50.770  1.00  0.00     0.184 HD
ENDROOT
BRANCH  10  12
HETATM   12  C   UNL     1     -42.276  55.288 -52.231  1.00  0.00     0.256 C 
HETATM   13  N   UNL     1     -41.116  54.868 -52.843  1.00  0.00    -0.323 N 
HETATM   14  H   UNL     1     -40.529  55.558 -53.292  1.00  0.00     0.169 HD
HETATM   15  O   UNL     1     -43.087  54.582 -51.643  1.00  0.00    -0.267 OA
BRANCH  13  16
HETATM   16  C   UNL     1     -40.625  53.546 -52.932  1.00  0.00     0.035 A 
HETATM   17  C   UNL     1     -40.021  52.862 -51.877  1.00  0.00     0.029 A 
HETATM   18  C   UNL     1     -39.560  51.552 -52.054  1.00  0.00     0.002 A 
HETATM   19  C   UNL     1     -39.710  50.915 -53.284  1.00  0.00     0.000 A 
HETATM   20  C   UNL     1     -40.313  51.588 -54.341  1.00  0.00     0.002 A 
HETATM   21  C   UNL     1     -40.762  52.900 -54.169  1.00  0.00     0.029 A 
ENDBRANCH  13  16
ENDBRANCH  10  12
BRANCH   9  22
HETATM   22  C   UNL     1     -43.248  57.199 -54.776  1.00  0.00    -0.025 A 
HETATM   23  C   UNL     1     -43.530  56.119 -55.635  1.00  0.00     0.046 A 
HETATM   24  C   UNL     1     -43.149  56.175 -56.972  1.00  0.00     0.066 A 
HETATM   25  C   UNL     1     -42.479  57.282 -57.477  1.00  0.00     0.036 A 
HETATM   26  C   UNL     1     -42.173  58.347 -56.634  1.00  0.00     0.003 A 
HETATM   27  C   UNL     1     -42.554  58.308 -55.291  1.00  0.00     0.010 A 
BRANCH  24  28
HETATM   28  O   UNL     1     -43.420  55.153 -57.832  1.00  0.00    -0.361 OA
HETATM   29  H   UNL     1     -42.772  54.441 -57.694  1.00  0.00     0.217 HD
ENDBRANCH  24  28
ENDBRANCH   9  22
BRANCH   7  30
HETATM   30  C   UNL     1     -46.268  61.297 -53.173  1.00  0.00     0.036 A 
HETATM   31  C   UNL     1     -46.256  62.067 -54.346  1.00  0.00     0.048 A 
HETATM   32 CL   UNL     1     -45.014  61.940 -55.547  1.00  0.00    -0.083 Cl
HETATM   33  C   UNL     1     -47.253  63.026 -54.570  1.00  0.00     0.025 A 
HETATM   34  C   UNL     1     -48.265  63.230 -53.631  1.00  0.00     0.002 A 
HETATM   35  C   UNL     1     -48.284  62.480 -52.460  1.00  0.00     0.001 A 
HETATM   36  C   UNL     1     -47.292  61.524 -52.232  1.00  0.00     0.017 A 
ENDBRANCH   7  30
TORSDOF 5
ENDMDL
