MODEL 1
REMARK VINA RESULT:      -8.1      0.000      0.000
REMARK  3 active torsions:
REMARK  status: ('A' for Active; 'I' for Inactive)
REMARK    1  A    between atoms: C_3  and  C_4 
REMARK    2  A    between atoms: C_10  and  C_11 
REMARK    3  A    between atoms: C_14  and  O_15 
ROOT
HETATM    1  C   UNL     1     -41.335  54.653 -52.881  1.00  0.00    -0.007 A 
HETATM    2  C   UNL     1     -42.350  55.514 -53.321  1.00  0.00     0.047 A 
HETATM    3  C   UNL     1     -42.488  55.737 -54.701  1.00  0.00     0.086 A 
HETATM    4  C   UNL     1     -41.629  55.108 -55.588  1.00  0.00     0.063 A 
HETATM    5  N   UNL     1     -42.036  55.549 -56.820  1.00  0.00    -0.338 N 
HETATM    6  H   UNL     1     -41.643  55.268 -57.705  1.00  0.00     0.167 HD
HETATM    7  C   UNL     1     -43.101  56.406 -56.657  1.00  0.00     0.139 A 
HETATM    8  N   UNL     1     -43.394  56.520 -55.372  1.00  0.00    -0.228 NA
HETATM    9  C   UNL     1     -40.621  54.233 -55.191  1.00  0.00     0.033 A 
HETATM   10  C   UNL     1     -40.495  54.017 -53.812  1.00  0.00     0.016 A 
ENDROOT
BRANCH   1  11
HETATM   11  C   UNL     1     -41.102  54.386 -51.424  1.00  0.00     0.069 C 
HETATM   12  C   UNL     1     -39.832  53.663 -50.994  1.00  0.00     0.045 C 
HETATM   13  C   UNL     1     -40.045  52.156 -51.143  1.00  0.00     0.017 C 
HETATM   14  C   UNL     1     -39.476  54.048 -49.567  1.00  0.00     0.115 C 
HETATM   15  C   UNL     1     -40.679  54.054 -48.668  1.00  0.00     0.238 C 
HETATM   16  N   UNL     1     -41.858  54.416 -49.264  1.00  0.00    -0.247 N 
HETATM   17  O   UNL     1     -40.603  53.828 -47.463  1.00  0.00    -0.272 OA
HETATM   18  N   UNL     1     -42.045  54.691 -50.581  1.00  0.00    -0.176 NA
HETATM   19  H   UNL     1     -42.664  54.529 -48.658  1.00  0.00     0.192 HD
ENDBRANCH   1  11
BRANCH   7  20
HETATM   20  C   UNL     1     -43.811  57.048 -57.766  1.00  0.00     0.010 A 
HETATM   21  C   UNL     1     -44.720  58.078 -57.497  1.00  0.00     0.018 A 
HETATM   22  C   UNL     1     -45.427  58.696 -58.532  1.00  0.00     0.037 A 
HETATM   23  C   UNL     1     -45.230  58.309 -59.858  1.00  0.00     0.068 A 
HETATM   24  C   UNL     1     -44.316  57.294 -60.140  1.00  0.00     0.037 A 
HETATM   25  C   UNL     1     -43.612  56.668 -59.101  1.00  0.00     0.018 A 
BRANCH  23  26
HETATM   26  O   UNL     1     -45.982  58.992 -60.772  1.00  0.00    -0.356 OA
HETATM   27  C   UNL     1     -47.335  58.585 -60.928  1.00  0.00     0.210 C 
ENDBRANCH  23  26
ENDBRANCH   7  20
TORSDOF 3
ENDMDL
MODEL 2
REMARK VINA RESULT:      -8.0      5.138      6.400
REMARK  3 active torsions:
REMARK  status: ('A' for Active; 'I' for Inactive)
REMARK    1  A    between atoms: C_3  and  C_4 
REMARK    2  A    between atoms: C_10  and  C_11 
REMARK    3  A    between atoms: C_14  and  O_15 
ROOT
HETATM    1  C   UNL     1     -40.613  54.122 -51.631  1.00  0.00    -0.007 A 
HETATM    2  C   UNL     1     -41.032  55.194 -52.432  1.00  0.00     0.047 A 
HETATM    3  C   UNL     1     -41.366  56.407 -51.807  1.00  0.00     0.086 A 
HETATM    4  C   UNL     1     -41.273  56.518 -50.429  1.00  0.00     0.063 A 
HETATM    5  N   UNL     1     -41.672  57.803 -50.168  1.00  0.00    -0.338 N 
HETATM    6  H   UNL     1     -41.700  58.237 -49.259  1.00  0.00     0.167 HD
HETATM    7  C   UNL     1     -41.984  58.423 -51.358  1.00  0.00     0.139 A 
HETATM    8  N   UNL     1     -41.791  57.587 -52.364  1.00  0.00    -0.228 NA
HETATM    9  C   UNL     1     -40.843  55.483 -49.602  1.00  0.00     0.033 A 
HETATM   10  C   UNL     1     -40.512  54.279 -50.237  1.00  0.00     0.016 A 
ENDROOT
BRANCH   1  11
HETATM   11  C   UNL     1     -40.268  52.786 -52.216  1.00  0.00     0.069 C 
HETATM   12  C   UNL     1     -40.214  52.628 -53.730  1.00  0.00     0.045 C 
HETATM   13  C   UNL     1     -41.631  52.390 -54.255  1.00  0.00     0.017 C 
HETATM   14  C   UNL     1     -39.274  51.491 -54.099  1.00  0.00     0.115 C 
HETATM   15  C   UNL     1     -39.476  50.287 -53.224  1.00  0.00     0.238 C 
HETATM   16  N   UNL     1     -39.853  50.552 -51.935  1.00  0.00    -0.247 N 
HETATM   17  O   UNL     1     -39.243  49.145 -53.611  1.00  0.00    -0.272 OA
HETATM   18  N   UNL     1     -40.126  51.775 -51.409  1.00  0.00    -0.176 NA
HETATM   19  H   UNL     1     -39.894  49.765 -51.295  1.00  0.00     0.192 HD
ENDBRANCH   1  11
BRANCH   7  20
HETATM   20  C   UNL     1     -42.423  59.816 -51.462  1.00  0.00     0.010 A 
HETATM   21  C   UNL     1     -42.797  60.327 -52.710  1.00  0.00     0.018 A 
HETATM   22  C   UNL     1     -43.202  61.659 -52.846  1.00  0.00     0.037 A 
HETATM   23  C   UNL     1     -43.254  62.502 -51.736  1.00  0.00     0.068 A 
HETATM   24  C   UNL     1     -42.898  62.000 -50.485  1.00  0.00     0.037 A 
HETATM   25  C   UNL     1     -42.485  60.667 -50.350  1.00  0.00     0.018 A 
BRANCH  23  26
HETATM   26  O   UNL     1     -43.666  63.778 -52.004  1.00  0.00    -0.356 OA
HETATM   27  C   UNL     1     -42.888  64.525 -52.931  1.00  0.00     0.210 C 
ENDBRANCH  23  26
ENDBRANCH   7  20
TORSDOF 3
ENDMDL
MODEL 3
REMARK VINA RESULT:      -7.9      2.229      9.544
REMARK  3 active torsions:
REMARK  status: ('A' for Active; 'I' for Inactive)
REMARK    1  A    between atoms: C_3  and  C_4 
REMARK    2  A    between atoms: C_10  and  C_11 
REMARK    3  A    between atoms: C_14  and  O_15 
ROOT
HETATM    1  C   UNL     1     -44.036  57.379 -57.124  1.00  0.00    -0.007 A 
HETATM    2  C   UNL     1     -43.088  56.346 -57.149  1.00  0.00     0.047 A 
HETATM    3  C   UNL     1     -42.759  55.709 -55.941  1.00  0.00     0.086 A 
HETATM    4  C   UNL     1     -43.373  56.109 -54.765  1.00  0.00     0.063 A 
HETATM    5  N   UNL     1     -42.822  55.298 -53.806  1.00  0.00    -0.338 N 
HETATM    6  H   UNL     1     -43.062  55.297 -52.828  1.00  0.00     0.167 HD
HETATM    7  C   UNL     1     -41.917  54.451 -54.407  1.00  0.00     0.139 A 
HETATM    8  N   UNL     1     -41.879  54.682 -55.708  1.00  0.00    -0.228 NA
HETATM    9  C   UNL     1     -44.332  57.117 -54.702  1.00  0.00     0.033 A 
HETATM   10  C   UNL     1     -44.652  57.743 -55.914  1.00  0.00     0.016 A 
ENDROOT
BRANCH   1  11
HETATM   11  C   UNL     1     -44.420  58.129 -58.364  1.00  0.00     0.069 C 
HETATM   12  C   UNL     1     -45.882  58.487 -58.595  1.00  0.00     0.045 C 
HETATM   13  C   UNL     1     -46.595  57.283 -59.213  1.00  0.00     0.017 C 
HETATM   14  C   UNL     1     -45.981  59.720 -59.479  1.00  0.00     0.115 C 
HETATM   15  C   UNL     1     -45.029  59.658 -60.639  1.00  0.00     0.238 C 
HETATM   16  N   UNL     1     -43.849  59.007 -60.400  1.00  0.00    -0.247 N 
HETATM   17  O   UNL     1     -45.256  60.220 -61.708  1.00  0.00    -0.272 OA
HETATM   18  N   UNL     1     -43.501  58.362 -59.256  1.00  0.00    -0.176 NA
HETATM   19  H   UNL     1     -43.147  59.042 -61.132  1.00  0.00     0.192 HD
ENDBRANCH   1  11
BRANCH   7  20
HETATM   20  C   UNL     1     -41.158  53.425 -53.688  1.00  0.00     0.010 A 
HETATM   21  C   UNL     1     -40.979  53.545 -52.304  1.00  0.00     0.018 A 
HETATM   22  C   UNL     1     -40.242  52.593 -51.593  1.00  0.00     0.037 A 
HETATM   23  C   UNL     1     -39.682  51.495 -52.246  1.00  0.00     0.068 A 
HETATM   24  C   UNL     1     -39.866  51.357 -53.621  1.00  0.00     0.037 A 
HETATM   25  C   UNL     1     -40.598  52.316 -54.336  1.00  0.00     0.018 A 
BRANCH  23  26
HETATM   26  O   UNL     1     -38.987  50.640 -51.437  1.00  0.00    -0.356 OA
HETATM   27  C   UNL     1     -39.750  49.782 -50.598  1.00  0.00     0.210 C 
ENDBRANCH  23  26
ENDBRANCH   7  20
TORSDOF 3
ENDMDL
MODEL 4
REMARK VINA RESULT:      -7.8      1.714      1.912
REMARK  3 active torsions:
REMARK  status: ('A' for Active; 'I' for Inactive)
REMARK    1  A    between atoms: C_3  and  C_4 
REMARK    2  A    between atoms: C_10  and  C_11 
REMARK    3  A    between atoms: C_14  and  O_15 
ROOT
HETATM    1  C   UNL     1     -41.694  54.702 -52.975  1.00  0.00    -0.007 A 
HETATM    2  C   UNL     1     -41.684  55.980 -53.549  1.00  0.00     0.047 A 
HETATM    3  C   UNL     1     -41.974  56.104 -54.918  1.00  0.00     0.086 A 
HETATM    4  C   UNL     1     -42.263  54.971 -55.663  1.00  0.00     0.063 A 
HETATM    5  N   UNL     1     -42.483  55.448 -56.928  1.00  0.00    -0.338 N 
HETATM    6  H   UNL     1     -42.747  54.895 -57.728  1.00  0.00     0.167 HD
HETATM    7  C   UNL     1     -42.331  56.817 -56.920  1.00  0.00     0.139 A 
HETATM    8  N   UNL     1     -42.033  57.230 -55.700  1.00  0.00    -0.228 NA
HETATM    9  C   UNL     1     -42.301  53.687 -55.125  1.00  0.00     0.033 A 
HETATM   10  C   UNL     1     -42.011  53.578 -53.759  1.00  0.00     0.016 A 
ENDROOT
BRANCH   1  11
HETATM   11  C   UNL     1     -41.366  54.482 -51.529  1.00  0.00     0.069 C 
HETATM   12  C   UNL     1     -40.039  53.832 -51.157  1.00  0.00     0.045 C 
HETATM   13  C   UNL     1     -40.185  52.313 -51.260  1.00  0.00     0.017 C 
HETATM   14  C   UNL     1     -39.621  54.269 -49.761  1.00  0.00     0.115 C 
HETATM   15  C   UNL     1     -40.771  54.239 -48.795  1.00  0.00     0.238 C 
HETATM   16  N   UNL     1     -41.998  54.528 -49.329  1.00  0.00    -0.247 N 
HETATM   17  O   UNL     1     -40.615  54.046 -47.592  1.00  0.00    -0.272 OA
HETATM   18  N   UNL     1     -42.273  54.762 -50.639  1.00  0.00    -0.176 NA
HETATM   19  H   UNL     1     -42.773  54.618 -48.680  1.00  0.00     0.192 HD
ENDBRANCH   1  11
BRANCH   7  20
HETATM   20  C   UNL     1     -42.520  57.667 -58.098  1.00  0.00     0.010 A 
HETATM   21  C   UNL     1     -41.944  58.942 -58.126  1.00  0.00     0.018 A 
HETATM   22  C   UNL     1     -42.123  59.784 -59.228  1.00  0.00     0.037 A 
HETATM   23  C   UNL     1     -42.868  59.364 -60.329  1.00  0.00     0.068 A 
HETATM   24  C   UNL     1     -43.435  58.090 -60.320  1.00  0.00     0.037 A 
HETATM   25  C   UNL     1     -43.262  57.249 -59.211  1.00  0.00     0.018 A 
BRANCH  23  26
HETATM   26  O   UNL     1     -42.967  60.282 -61.339  1.00  0.00    -0.356 OA
HETATM   27  C   UNL     1     -41.948  61.270 -61.414  1.00  0.00     0.210 C 
ENDBRANCH  23  26
ENDBRANCH   7  20
TORSDOF 3
ENDMDL
MODEL 5
REMARK VINA RESULT:      -7.8      5.159      8.230
REMARK  3 active torsions:
REMARK  status: ('A' for Active; 'I' for Inactive)
REMARK    1  A    between atoms: C_3  and  C_4 
REMARK    2  A    between atoms: C_10  and  C_11 
REMARK    3  A    between atoms: C_14  and  O_15 
ROOT
HETATM    1  C   UNL     1     -42.675  59.870 -51.967  1.00  0.00    -0.007 A 
HETATM    2  C   UNL     1     -42.628  58.590 -51.399  1.00  0.00     0.047 A 
HETATM    3  C   UNL     1     -41.981  57.564 -52.109  1.00  0.00     0.086 A 
HETATM    4  C   UNL     1     -41.407  57.839 -53.340  1.00  0.00     0.063 A 
HETATM    5  N   UNL     1     -40.883  56.638 -53.742  1.00  0.00    -0.338 N 
HETATM    6  H   UNL     1     -40.364  56.476 -54.590  1.00  0.00     0.167 HD
HETATM    7  C   UNL     1     -41.142  55.693 -52.773  1.00  0.00     0.139 A 
HETATM    8  N   UNL     1     -41.799  56.248 -51.769  1.00  0.00    -0.228 NA
HETATM    9  C   UNL     1     -41.416  59.102 -53.928  1.00  0.00     0.033 A 
HETATM   10  C   UNL     1     -42.063  60.115 -53.209  1.00  0.00     0.016 A 
ENDROOT
BRANCH   1  11
HETATM   11  C   UNL     1     -43.372  61.011 -51.288  1.00  0.00     0.069 C 
HETATM   12  C   UNL     1     -44.390  60.716 -50.194  1.00  0.00     0.045 C 
HETATM   13  C   UNL     1     -45.738  60.398 -50.843  1.00  0.00     0.017 C 
HETATM   14  C   UNL     1     -44.483  61.898 -49.241  1.00  0.00     0.115 C 
HETATM   15  C   UNL     1     -44.524  63.208 -49.973  1.00  0.00     0.238 C 
HETATM   16  N   UNL     1     -43.818  63.252 -51.145  1.00  0.00    -0.247 N 
HETATM   17  O   UNL     1     -45.086  64.201 -49.517  1.00  0.00    -0.272 OA
HETATM   18  N   UNL     1     -43.159  62.217 -51.729  1.00  0.00    -0.176 NA
HETATM   19  H   UNL     1     -43.742  64.154 -51.605  1.00  0.00     0.192 HD
ENDBRANCH   1  11
BRANCH   7  20
HETATM   20  C   UNL     1     -40.703  54.298 -52.855  1.00  0.00     0.010 A 
HETATM   21  C   UNL     1     -40.664  53.661 -54.101  1.00  0.00     0.018 A 
HETATM   22  C   UNL     1     -40.268  52.325 -54.208  1.00  0.00     0.037 A 
HETATM   23  C   UNL     1     -39.889  51.602 -53.077  1.00  0.00     0.068 A 
HETATM   24  C   UNL     1     -39.910  52.230 -51.832  1.00  0.00     0.037 A 
HETATM   25  C   UNL     1     -40.314  53.569 -51.723  1.00  0.00     0.018 A 
BRANCH  23  26
HETATM   26  O   UNL     1     -39.524  50.307 -53.319  1.00  0.00    -0.356 OA
HETATM   27  C   UNL     1     -39.756  49.806 -54.629  1.00  0.00     0.210 C 
ENDBRANCH  23  26
ENDBRANCH   7  20
TORSDOF 3
ENDMDL
MODEL 6
REMARK VINA RESULT:      -7.8     15.780     19.936
REMARK  3 active torsions:
REMARK  status: ('A' for Active; 'I' for Inactive)
REMARK    1  A    between atoms: C_3  and  C_4 
REMARK    2  A    between atoms: C_10  and  C_11 
REMARK    3  A    between atoms: C_14  and  O_15 
ROOT
HETATM    1  C   UNL     1     -35.655  41.048 -54.798  1.00  0.00    -0.007 A 
HETATM    2  C   UNL     1     -35.032  39.995 -54.114  1.00  0.00     0.047 A 
HETATM    3  C   UNL     1     -34.638  40.200 -52.781  1.00  0.00     0.086 A 
HETATM    4  C   UNL     1     -34.875  41.425 -52.177  1.00  0.00     0.063 A 
HETATM    5  N   UNL     1     -34.368  41.279 -50.912  1.00  0.00    -0.338 N 
HETATM    6  H   UNL     1     -34.395  41.974 -50.183  1.00  0.00     0.167 HD
HETATM    7  C   UNL     1     -33.855  40.007 -50.782  1.00  0.00     0.139 A 
HETATM    8  N   UNL     1     -34.024  39.337 -51.909  1.00  0.00    -0.228 NA
HETATM    9  C   UNL     1     -35.507  42.488 -52.817  1.00  0.00     0.033 A 
HETATM   10  C   UNL     1     -35.896  42.270 -54.145  1.00  0.00     0.016 A 
ENDROOT
BRANCH   1  11
HETATM   11  C   UNL     1     -36.077  40.919 -56.231  1.00  0.00     0.069 C 
HETATM   12  C   UNL     1     -37.269  41.726 -56.731  1.00  0.00     0.045 C 
HETATM   13  C   UNL     1     -38.556  40.977 -56.380  1.00  0.00     0.017 C 
HETATM   14  C   UNL     1     -37.141  41.965 -58.227  1.00  0.00     0.115 C 
HETATM   15  C   UNL     1     -36.709  40.728 -58.960  1.00  0.00     0.238 C 
HETATM   16  N   UNL     1     -35.875  39.893 -58.267  1.00  0.00    -0.247 N 
HETATM   17  O   UNL     1     -37.017  40.514 -60.130  1.00  0.00    -0.272 OA
HETATM   18  N   UNL     1     -35.472  40.043 -56.978  1.00  0.00    -0.176 NA
HETATM   19  H   UNL     1     -35.486  39.105 -58.774  1.00  0.00     0.192 HD
ENDBRANCH   1  11
BRANCH   7  20
HETATM   20  C   UNL     1     -33.255  39.490 -49.550  1.00  0.00     0.010 A 
HETATM   21  C   UNL     1     -32.038  40.018 -49.104  1.00  0.00     0.018 A 
HETATM   22  C   UNL     1     -31.431  39.532 -47.942  1.00  0.00     0.037 A 
HETATM   23  C   UNL     1     -32.034  38.520 -47.195  1.00  0.00     0.068 A 
HETATM   24  C   UNL     1     -33.254  37.996 -47.621  1.00  0.00     0.037 A 
HETATM   25  C   UNL     1     -33.860  38.478 -48.791  1.00  0.00     0.018 A 
BRANCH  23  26
HETATM   26  O   UNL     1     -31.338  38.135 -46.082  1.00  0.00    -0.356 OA
HETATM   27  C   UNL     1     -30.864  39.169 -45.229  1.00  0.00     0.210 C 
ENDBRANCH  23  26
ENDBRANCH   7  20
TORSDOF 3
ENDMDL
MODEL 7
REMARK VINA RESULT:      -7.7      2.534      9.489
REMARK  3 active torsions:
REMARK  status: ('A' for Active; 'I' for Inactive)
REMARK    1  A    between atoms: C_3  and  C_4 
REMARK    2  A    between atoms: C_10  and  C_11 
REMARK    3  A    between atoms: C_14  and  O_15 
ROOT
HETATM    1  C   UNL     1     -42.925  57.923 -57.019  1.00  0.00    -0.007 A 
HETATM    2  C   UNL     1     -42.620  56.555 -56.999  1.00  0.00     0.047 A 
HETATM    3  C   UNL     1     -42.048  56.012 -55.836  1.00  0.00     0.086 A 
HETATM    4  C   UNL     1     -41.802  56.832 -54.745  1.00  0.00     0.063 A 
HETATM    5  N   UNL     1     -41.247  55.993 -53.814  1.00  0.00    -0.338 N 
HETATM    6  H   UNL     1     -40.969  56.252 -52.881  1.00  0.00     0.167 HD
HETATM    7  C   UNL     1     -41.174  54.724 -54.345  1.00  0.00     0.139 A 
HETATM    8  N   UNL     1     -41.670  54.720 -55.571  1.00  0.00    -0.228 NA
HETATM    9  C   UNL     1     -42.109  58.190 -54.720  1.00  0.00     0.033 A 
HETATM   10  C   UNL     1     -42.680  58.718 -55.886  1.00  0.00     0.016 A 
ENDROOT
BRANCH   1  11
HETATM   11  C   UNL     1     -43.508  58.585 -58.231  1.00  0.00     0.069 C 
HETATM   12  C   UNL     1     -42.584  59.008 -59.366  1.00  0.00     0.045 C 
HETATM   13  C   UNL     1     -41.977  60.371 -59.027  1.00  0.00     0.017 C 
HETATM   14  C   UNL     1     -43.354  59.040 -60.676  1.00  0.00     0.115 C 
HETATM   15  C   UNL     1     -44.701  59.686 -60.522  1.00  0.00     0.238 C 
HETATM   16  N   UNL     1     -45.307  59.504 -59.308  1.00  0.00    -0.247 N 
HETATM   17  O   UNL     1     -45.260  60.272 -61.446  1.00  0.00    -0.272 OA
HETATM   18  N   UNL     1     -44.779  58.869 -58.230  1.00  0.00    -0.176 NA
HETATM   19  H   UNL     1     -46.260  59.840 -59.214  1.00  0.00     0.192 HD
ENDBRANCH   1  11
BRANCH   7  20
HETATM   20  C   UNL     1     -40.659  53.563 -53.617  1.00  0.00     0.010 A 
HETATM   21  C   UNL     1     -40.263  52.424 -54.329  1.00  0.00     0.018 A 
HETATM   22  C   UNL     1     -39.786  51.293 -53.661  1.00  0.00     0.037 A 
HETATM   23  C   UNL     1     -39.678  51.281 -52.270  1.00  0.00     0.068 A 
HETATM   24  C   UNL     1     -40.055  52.414 -51.551  1.00  0.00     0.037 A 
HETATM   25  C   UNL     1     -40.542  53.547 -52.220  1.00  0.00     0.018 A 
BRANCH  23  26
HETATM   26  O   UNL     1     -39.197  50.115 -51.742  1.00  0.00    -0.356 OA
HETATM   27  C   UNL     1     -39.855  49.611 -50.587  1.00  0.00     0.210 C 
ENDBRANCH  23  26
ENDBRANCH   7  20
TORSDOF 3
ENDMDL
MODEL 8
REMARK VINA RESULT:      -7.5     16.334     17.674
REMARK  3 active torsions:
REMARK  status: ('A' for Active; 'I' for Inactive)
REMARK    1  A    between atoms: C_3  and  C_4 
REMARK    2  A    between atoms: C_10  and  C_11 
REMARK    3  A    between atoms: C_14  and  O_15 
ROOT
HETATM    1  C   UNL     1     -34.512  40.727 -55.225  1.00  0.00    -0.007 A 
HETATM    2  C   UNL     1     -35.090  39.620 -55.862  1.00  0.00     0.047 A 
HETATM    3  C   UNL     1     -35.812  39.830 -57.048  1.00  0.00     0.086 A 
HETATM    4  C   UNL     1     -35.935  41.112 -57.559  1.00  0.00     0.063 A 
HETATM    5  N   UNL     1     -36.690  40.952 -58.692  1.00  0.00    -0.338 N 
HETATM    6  H   UNL     1     -36.952  41.684 -59.333  1.00  0.00     0.167 HD
HETATM    7  C   UNL     1     -36.996  39.617 -58.837  1.00  0.00     0.139 A 
HETATM    8  N   UNL     1     -36.458  38.922 -57.850  1.00  0.00    -0.228 NA
HETATM    9  C   UNL     1     -35.359  42.234 -56.967  1.00  0.00     0.033 A 
HETATM   10  C   UNL     1     -34.641  42.011 -55.785  1.00  0.00     0.016 A 
ENDROOT
BRANCH   1  11
HETATM   11  C   UNL     1     -33.752  40.592 -53.940  1.00  0.00     0.069 C 
HETATM   12  C   UNL     1     -34.519  40.402 -52.638  1.00  0.00     0.045 C 
HETATM   13  C   UNL     1     -34.968  41.770 -52.122  1.00  0.00     0.017 C 
HETATM   14  C   UNL     1     -33.650  39.671 -51.627  1.00  0.00     0.115 C 
HETATM   15  C   UNL     1     -32.246  40.205 -51.602  1.00  0.00     0.238 C 
HETATM   16  N   UNL     1     -31.768  40.663 -52.800  1.00  0.00    -0.247 N 
HETATM   17  O   UNL     1     -31.543  40.163 -50.595  1.00  0.00    -0.272 OA
HETATM   18  N   UNL     1     -32.460  40.744 -53.967  1.00  0.00    -0.176 NA
HETATM   19  H   UNL     1     -30.789  40.931 -52.834  1.00  0.00     0.192 HD
ENDBRANCH   1  11
BRANCH   7  20
HETATM   20  C   UNL     1     -37.770  39.073 -59.956  1.00  0.00     0.010 A 
HETATM   21  C   UNL     1     -37.250  39.149 -61.253  1.00  0.00     0.018 A 
HETATM   22  C   UNL     1     -37.973  38.657 -62.343  1.00  0.00     0.037 A 
HETATM   23  C   UNL     1     -39.223  38.067 -62.159  1.00  0.00     0.068 A 
HETATM   24  C   UNL     1     -39.746  37.972 -60.869  1.00  0.00     0.037 A 
HETATM   25  C   UNL     1     -39.024  38.472 -59.776  1.00  0.00     0.018 A 
BRANCH  23  26
HETATM   26  O   UNL     1     -39.825  37.627 -63.305  1.00  0.00    -0.356 OA
HETATM   27  C   UNL     1     -41.229  37.824 -63.413  1.00  0.00     0.210 C 
ENDBRANCH  23  26
ENDBRANCH   7  20
TORSDOF 3
ENDMDL
MODEL 9
REMARK VINA RESULT:      -7.4      2.120      2.719
REMARK  3 active torsions:
REMARK  status: ('A' for Active; 'I' for Inactive)
REMARK    1  A    between atoms: C_3  and  C_4 
REMARK    2  A    between atoms: C_10  and  C_11 
REMARK    3  A    between atoms: C_14  and  O_15 
ROOT
HETATM    1  C   UNL     1     -41.643  53.690 -53.356  1.00  0.00    -0.007 A 
HETATM    2  C   UNL     1     -41.338  54.061 -54.672  1.00  0.00     0.047 A 
HETATM    3  C   UNL     1     -42.144  55.022 -55.303  1.00  0.00     0.086 A 
HETATM    4  C   UNL     1     -43.212  55.579 -54.616  1.00  0.00     0.063 A 
HETATM    5  N   UNL     1     -43.770  56.451 -55.515  1.00  0.00    -0.338 N 
HETATM    6  H   UNL     1     -44.559  57.053 -55.338  1.00  0.00     0.167 HD
HETATM    7  C   UNL     1     -43.049  56.406 -56.687  1.00  0.00     0.139 A 
HETATM    8  N   UNL     1     -42.049  55.549 -56.567  1.00  0.00    -0.228 NA
HETATM    9  C   UNL     1     -43.536  55.251 -53.302  1.00  0.00     0.033 A 
HETATM   10  C   UNL     1     -42.723  54.292 -52.684  1.00  0.00     0.016 A 
ENDROOT
BRANCH   1  11
HETATM   11  C   UNL     1     -40.851  52.649 -52.623  1.00  0.00     0.069 C 
HETATM   12  C   UNL     1     -40.722  52.741 -51.108  1.00  0.00     0.045 C 
HETATM   13  C   UNL     1     -39.592  53.713 -50.764  1.00  0.00     0.017 C 
HETATM   14  C   UNL     1     -40.480  51.358 -50.524  1.00  0.00     0.115 C 
HETATM   15  C   UNL     1     -39.470  50.581 -51.319  1.00  0.00     0.238 C 
HETATM   16  N   UNL     1     -39.458  50.833 -52.664  1.00  0.00    -0.247 N 
HETATM   17  O   UNL     1     -38.754  49.720 -50.813  1.00  0.00    -0.272 OA
HETATM   18  N   UNL     1     -40.211  51.755 -53.319  1.00  0.00    -0.176 NA
HETATM   19  H   UNL     1     -38.859  50.247 -53.238  1.00  0.00     0.192 HD
ENDBRANCH   1  11
BRANCH   7  20
HETATM   20  C   UNL     1     -43.345  57.230 -57.861  1.00  0.00     0.010 A 
HETATM   21  C   UNL     1     -44.645  57.713 -58.052  1.00  0.00     0.018 A 
HETATM   22  C   UNL     1     -44.963  58.485 -59.172  1.00  0.00     0.037 A 
HETATM   23  C   UNL     1     -43.987  58.805 -60.116  1.00  0.00     0.068 A 
HETATM   24  C   UNL     1     -42.685  58.343 -59.929  1.00  0.00     0.037 A 
HETATM   25  C   UNL     1     -42.367  57.561 -58.809  1.00  0.00     0.018 A 
BRANCH  23  26
HETATM   26  O   UNL     1     -44.429  59.566 -61.163  1.00  0.00    -0.356 OA
HETATM   27  C   UNL     1     -44.666  60.943 -60.904  1.00  0.00     0.210 C 
ENDBRANCH  23  26
ENDBRANCH   7  20
TORSDOF 3
ENDMDL
MODEL 10
REMARK VINA RESULT:      -7.3      2.143      2.826
REMARK  3 active torsions:
REMARK  status: ('A' for Active; 'I' for Inactive)
REMARK    1  A    between atoms: C_3  and  C_4 
REMARK    2  A    between atoms: C_10  and  C_11 
REMARK    3  A    between atoms: C_14  and  O_15 
ROOT
HETATM    1  C   UNL     1     -40.966  54.272 -53.625  1.00  0.00    -0.007 A 
HETATM    2  C   UNL     1     -41.376  54.251 -54.965  1.00  0.00     0.047 A 
HETATM    3  C   UNL     1     -41.839  55.444 -55.544  1.00  0.00     0.086 A 
HETATM    4  C   UNL     1     -41.878  56.604 -54.787  1.00  0.00     0.063 A 
HETATM    5  N   UNL     1     -42.377  57.549 -55.646  1.00  0.00    -0.338 N 
HETATM    6  H   UNL     1     -42.515  58.524 -55.432  1.00  0.00     0.167 HD
HETATM    7  C   UNL     1     -42.619  56.958 -56.866  1.00  0.00     0.139 A 
HETATM    8  N   UNL     1     -42.284  55.679 -56.821  1.00  0.00    -0.228 NA
HETATM    9  C   UNL     1     -41.462  56.670 -53.459  1.00  0.00     0.033 A 
HETATM   10  C   UNL     1     -41.001  55.474 -52.894  1.00  0.00     0.016 A 
ENDROOT
BRANCH   1  11
HETATM   11  C   UNL     1     -40.488  53.036 -52.925  1.00  0.00     0.069 C 
HETATM   12  C   UNL     1     -39.911  51.891 -53.747  1.00  0.00     0.045 C 
HETATM   13  C   UNL     1     -41.061  51.034 -54.279  1.00  0.00     0.017 C 
HETATM   14  C   UNL     1     -38.944  51.080 -52.898  1.00  0.00     0.115 C 
HETATM   15  C   UNL     1     -39.486  50.820 -51.522  1.00  0.00     0.238 C 
HETATM   16  N   UNL     1     -40.282  51.806 -51.005  1.00  0.00    -0.247 N 
HETATM   17  O   UNL     1     -39.175  49.827 -50.868  1.00  0.00    -0.272 OA
HETATM   18  N   UNL     1     -40.676  52.940 -51.641  1.00  0.00    -0.176 NA
HETATM   19  H   UNL     1     -40.574  51.703 -50.038  1.00  0.00     0.192 HD
ENDBRANCH   1  11
BRANCH   7  20
HETATM   20  C   UNL     1     -43.132  57.677 -58.035  1.00  0.00     0.010 A 
HETATM   21  C   UNL     1     -42.231  58.293 -58.912  1.00  0.00     0.018 A 
HETATM   22  C   UNL     1     -42.691  59.003 -60.025  1.00  0.00     0.037 A 
HETATM   23  C   UNL     1     -44.056  59.100 -60.293  1.00  0.00     0.068 A 
HETATM   24  C   UNL     1     -44.962  58.478 -59.434  1.00  0.00     0.037 A 
HETATM   25  C   UNL     1     -44.502  57.772 -58.313  1.00  0.00     0.018 A 
BRANCH  23  26
HETATM   26  O   UNL     1     -44.372  59.822 -61.411  1.00  0.00    -0.356 OA
HETATM   27  C   UNL     1     -43.381  60.713 -61.904  1.00  0.00     0.210 C 
ENDBRANCH  23  26
ENDBRANCH   7  20
TORSDOF 3
ENDMDL
