MODEL 1
REMARK VINA RESULT:      -8.8      0.000      0.000
REMARK  6 active torsions:
REMARK  status: ('A' for Active; 'I' for Inactive)
REMARK    1  A    between atoms: C_5  and  O_6 
REMARK    2  A    between atoms: O_6  and  C_7 
REMARK    3  A    between atoms: C_7  and  C_8 
REMARK       I    between atoms: C_8  and  N_9 
REMARK    4  A    between atoms: N_9  and  C_10 
REMARK    5  A    between atoms: C_10  and  C_11 
REMARK       I    between atoms: C_11  and  N_12 
REMARK    6  A    between atoms: N_12  and  N_13 
ROOT
HETATM    1  C   UNL     1     -43.565  57.810 -52.844  1.00  0.00     0.255 C 
HETATM    2  N   UNL     1     -42.616  57.239 -53.677  1.00  0.00    -0.245 N 
HETATM    3  O   UNL     1     -44.361  58.690 -53.169  1.00  0.00    -0.270 OA
HETATM    4  H   UNL     1     -42.046  56.450 -53.362  1.00  0.00     0.192 HD
ENDROOT
BRANCH   1   5
HETATM    5  C   UNL     1     -43.487  57.290 -51.407  1.00  0.00     0.227 C 
BRANCH   5   6
HETATM    6  N   UNL     1     -43.966  55.918 -51.343  1.00  0.00    -0.350 N 
HETATM    7  C   UNL     1     -43.237  54.775 -51.175  1.00  0.00     0.242 C 
HETATM    8  O   UNL     1     -43.794  53.683 -51.288  1.00  0.00    -0.271 OA
HETATM    9  H   UNL     1     -44.913  55.758 -51.674  1.00  0.00     0.163 HD
BRANCH   7  10
HETATM   10  C   UNL     1     -41.769  54.891 -50.776  1.00  0.00     0.278 C 
BRANCH  10  11
HETATM   11  O   UNL     1     -40.965  54.938 -51.952  1.00  0.00    -0.342 OA
BRANCH  11  12
HETATM   12  C   UNL     1     -40.580  53.708 -52.412  1.00  0.00     0.069 A 
HETATM   13  C   UNL     1     -40.726  53.491 -53.781  1.00  0.00     0.037 A 
HETATM   14  C   UNL     1     -40.334  52.276 -54.347  1.00  0.00     0.009 A 
HETATM   15  C   UNL     1     -39.780  51.270 -53.549  1.00  0.00    -0.062 A 
HETATM   16  C   UNL     1     -39.321  49.977 -54.155  1.00  0.00     0.048 C 
HETATM   17  C   UNL     1     -39.599  51.511 -52.181  1.00  0.00     0.009 A 
HETATM   18  C   UNL     1     -39.997  52.725 -51.614  1.00  0.00     0.037 A 
ENDBRANCH  11  12
ENDBRANCH  10  11
ENDBRANCH   7  10
ENDBRANCH   5   6
ENDBRANCH   1   5
BRANCH   2  19
HETATM   19  N   UNL     1     -42.509  57.649 -54.977  1.00  0.00    -0.166 NA
HETATM   20  C   UNL     1     -42.814  56.779 -55.885  1.00  0.00     0.157 A 
HETATM   21  C   UNL     1     -43.288  55.335 -55.698  1.00  0.00     0.277 A 
HETATM   22  C   UNL     1     -42.770  57.002 -57.325  1.00  0.00     0.028 A 
HETATM   23  O   UNL     1     -43.419  54.788 -54.623  1.00  0.00    -0.266 OA
HETATM   24  N   UNL     1     -43.502  54.848 -56.968  1.00  0.00    -0.321 N 
HETATM   25  C   UNL     1     -43.196  55.816 -57.922  1.00  0.00     0.048 A 
HETATM   26  H   UNL     1     -43.824  53.909 -57.155  1.00  0.00     0.169 HD
HETATM   27  C   UNL     1     -43.269  55.691 -59.293  1.00  0.00     0.032 A 
HETATM   28  C   UNL     1     -42.895  56.804 -60.058  1.00  0.00     0.021 A 
HETATM   29  C   UNL     1     -42.464  57.996 -59.440  1.00  0.00     0.012 A 
HETATM   30 BR   UNL     1     -41.961  59.467 -60.520  1.00  0.00    -0.051 Br
HETATM   31  C   UNL     1     -42.396  58.112 -58.052  1.00  0.00     0.035 A 
ENDBRANCH   2  19
TORSDOF 6
ENDMDL
MODEL 2
REMARK VINA RESULT:      -8.2      1.980      2.682
REMARK  6 active torsions:
REMARK  status: ('A' for Active; 'I' for Inactive)
REMARK    1  A    between atoms: C_5  and  O_6 
REMARK    2  A    between atoms: O_6  and  C_7 
REMARK    3  A    between atoms: C_7  and  C_8 
REMARK       I    between atoms: C_8  and  N_9 
REMARK    4  A    between atoms: N_9  and  C_10 
REMARK    5  A    between atoms: C_10  and  C_11 
REMARK       I    between atoms: C_11  and  N_12 
REMARK    6  A    between atoms: N_12  and  N_13 
ROOT
HETATM    1  C   UNL     1     -42.229  56.506 -52.393  1.00  0.00     0.255 C 
HETATM    2  N   UNL     1     -41.454  56.520 -53.542  1.00  0.00    -0.245 N 
HETATM    3  O   UNL     1     -43.421  56.204 -52.341  1.00  0.00    -0.270 OA
HETATM    4  H   UNL     1     -40.447  56.697 -53.496  1.00  0.00     0.192 HD
ENDROOT
BRANCH   1   5
HETATM    5  C   UNL     1     -41.470  56.993 -51.157  1.00  0.00     0.227 C 
BRANCH   5   6
HETATM    6  N   UNL     1     -41.816  56.178 -50.002  1.00  0.00    -0.350 N 
HETATM    7  C   UNL     1     -41.293  54.972 -49.631  1.00  0.00     0.242 C 
HETATM    8  O   UNL     1     -41.807  54.353 -48.699  1.00  0.00    -0.271 OA
HETATM    9  H   UNL     1     -42.688  56.411 -49.534  1.00  0.00     0.163 HD
BRANCH   7  10
HETATM   10  C   UNL     1     -40.039  54.466 -50.337  1.00  0.00     0.278 C 
BRANCH  10  11
HETATM   11  O   UNL     1     -39.935  53.055 -50.157  1.00  0.00    -0.342 OA
BRANCH  11  12
HETATM   12  C   UNL     1     -39.900  52.346 -51.326  1.00  0.00     0.069 A 
HETATM   13  C   UNL     1     -39.617  50.987 -51.212  1.00  0.00     0.037 A 
HETATM   14  C   UNL     1     -39.588  50.175 -52.349  1.00  0.00     0.009 A 
HETATM   15  C   UNL     1     -39.854  50.716 -53.611  1.00  0.00    -0.062 A 
HETATM   16  C   UNL     1     -39.861  49.845 -54.831  1.00  0.00     0.048 C 
HETATM   17  C   UNL     1     -40.176  52.075 -53.712  1.00  0.00     0.009 A 
HETATM   18  C   UNL     1     -40.201  52.888 -52.575  1.00  0.00     0.037 A 
ENDBRANCH  11  12
ENDBRANCH  10  11
ENDBRANCH   7  10
ENDBRANCH   5   6
ENDBRANCH   1   5
BRANCH   2  19
HETATM   19  N   UNL     1     -42.007  56.179 -54.745  1.00  0.00    -0.166 NA
HETATM   20  C   UNL     1     -42.194  57.142 -55.589  1.00  0.00     0.157 A 
HETATM   21  C   UNL     1     -41.870  58.630 -55.422  1.00  0.00     0.277 A 
HETATM   22  C   UNL     1     -42.768  57.006 -56.922  1.00  0.00     0.028 A 
HETATM   23  O   UNL     1     -41.400  59.123 -54.418  1.00  0.00    -0.266 OA
HETATM   24  N   UNL     1     -42.232  59.224 -56.610  1.00  0.00    -0.321 N 
HETATM   25  C   UNL     1     -42.762  58.281 -57.488  1.00  0.00     0.048 A 
HETATM   26  H   UNL     1     -42.130  60.212 -56.790  1.00  0.00     0.169 HD
HETATM   27  C   UNL     1     -43.247  58.501 -58.759  1.00  0.00     0.032 A 
HETATM   28  C   UNL     1     -43.746  57.392 -59.455  1.00  0.00     0.021 A 
HETATM   29  C   UNL     1     -43.748  56.109 -58.869  1.00  0.00     0.012 A 
HETATM   30 BR   UNL     1     -44.443  54.647 -59.849  1.00  0.00    -0.051 Br
HETATM   31  C   UNL     1     -43.253  55.897 -57.582  1.00  0.00     0.035 A 
ENDBRANCH   2  19
TORSDOF 6
ENDMDL
MODEL 3
REMARK VINA RESULT:      -8.1      1.626      2.083
REMARK  6 active torsions:
REMARK  status: ('A' for Active; 'I' for Inactive)
REMARK    1  A    between atoms: C_5  and  O_6 
REMARK    2  A    between atoms: O_6  and  C_7 
REMARK    3  A    between atoms: C_7  and  C_8 
REMARK       I    between atoms: C_8  and  N_9 
REMARK    4  A    between atoms: N_9  and  C_10 
REMARK    5  A    between atoms: C_10  and  C_11 
REMARK       I    between atoms: C_11  and  N_12 
REMARK    6  A    between atoms: N_12  and  N_13 
ROOT
HETATM    1  C   UNL     1     -44.493  57.802 -52.647  1.00  0.00     0.255 C 
HETATM    2  N   UNL     1     -44.706  56.897 -53.675  1.00  0.00    -0.245 N 
HETATM    3  O   UNL     1     -44.521  59.028 -52.760  1.00  0.00    -0.270 OA
HETATM    4  H   UNL     1     -44.754  55.892 -53.489  1.00  0.00     0.192 HD
ENDROOT
BRANCH   1   5
HETATM    5  C   UNL     1     -44.128  57.127 -51.324  1.00  0.00     0.227 C 
BRANCH   5   6
HETATM    6  N   UNL     1     -42.736  57.389 -50.993  1.00  0.00    -0.350 N 
HETATM    7  C   UNL     1     -41.727  56.488 -50.806  1.00  0.00     0.242 C 
HETATM    8  O   UNL     1     -40.638  56.881 -50.388  1.00  0.00    -0.271 OA
HETATM    9  H   UNL     1     -42.527  58.321 -50.646  1.00  0.00     0.163 HD
BRANCH   7  10
HETATM   10  C   UNL     1     -41.961  55.031 -51.196  1.00  0.00     0.278 C 
BRANCH  10  11
HETATM   11  O   UNL     1     -40.786  54.275 -50.910  1.00  0.00    -0.342 OA
BRANCH  11  12
HETATM   12  C   UNL     1     -40.507  53.310 -51.839  1.00  0.00     0.069 A 
HETATM   13  C   UNL     1     -39.851  52.175 -51.367  1.00  0.00     0.037 A 
HETATM   14  C   UNL     1     -39.550  51.123 -52.235  1.00  0.00     0.009 A 
HETATM   15  C   UNL     1     -39.913  51.193 -53.584  1.00  0.00    -0.062 A 
HETATM   16  C   UNL     1     -39.627  50.052 -54.514  1.00  0.00     0.048 C 
HETATM   17  C   UNL     1     -40.607  52.320 -54.042  1.00  0.00     0.009 A 
HETATM   18  C   UNL     1     -40.905  53.374 -53.174  1.00  0.00     0.037 A 
ENDBRANCH  11  12
ENDBRANCH  10  11
ENDBRANCH   7  10
ENDBRANCH   5   6
ENDBRANCH   1   5
BRANCH   2  19
HETATM   19  N   UNL     1     -44.973  57.346 -54.939  1.00  0.00    -0.166 NA
HETATM   20  C   UNL     1     -44.038  57.185 -55.819  1.00  0.00     0.157 A 
HETATM   21  C   UNL     1     -42.658  56.547 -55.634  1.00  0.00     0.277 A 
HETATM   22  C   UNL     1     -44.107  57.588 -57.217  1.00  0.00     0.028 A 
HETATM   23  O   UNL     1     -42.234  56.115 -54.582  1.00  0.00    -0.266 OA
HETATM   24  N   UNL     1     -42.058  56.595 -56.873  1.00  0.00    -0.321 N 
HETATM   25  C   UNL     1     -42.899  57.207 -57.801  1.00  0.00     0.048 A 
HETATM   26  H   UNL     1     -41.131  56.240 -57.055  1.00  0.00     0.169 HD
HETATM   27  C   UNL     1     -42.640  57.448 -59.133  1.00  0.00     0.032 A 
HETATM   28  C   UNL     1     -43.639  58.095 -59.872  1.00  0.00     0.021 A 
HETATM   29  C   UNL     1     -44.855  58.478 -59.269  1.00  0.00     0.012 A 
HETATM   30 BR   UNL     1     -46.168  59.356 -60.311  1.00  0.00    -0.051 Br
HETATM   31  C   UNL     1     -45.108  58.226 -57.920  1.00  0.00     0.035 A 
ENDBRANCH   2  19
TORSDOF 6
ENDMDL
MODEL 4
REMARK VINA RESULT:      -8.1      1.846      2.408
REMARK  6 active torsions:
REMARK  status: ('A' for Active; 'I' for Inactive)
REMARK    1  A    between atoms: C_5  and  O_6 
REMARK    2  A    between atoms: O_6  and  C_7 
REMARK    3  A    between atoms: C_7  and  C_8 
REMARK       I    between atoms: C_8  and  N_9 
REMARK    4  A    between atoms: N_9  and  C_10 
REMARK    5  A    between atoms: C_10  and  C_11 
REMARK       I    between atoms: C_11  and  N_12 
REMARK    6  A    between atoms: N_12  and  N_13 
ROOT
HETATM    1  C   UNL     1     -43.669  56.338 -54.912  1.00  0.00     0.255 C 
HETATM    2  N   UNL     1     -42.546  56.446 -55.717  1.00  0.00    -0.245 N 
HETATM    3  O   UNL     1     -44.457  57.250 -54.664  1.00  0.00    -0.270 OA
HETATM    4  H   UNL     1     -41.985  55.622 -55.949  1.00  0.00     0.192 HD
ENDROOT
BRANCH   1   5
HETATM    5  C   UNL     1     -43.812  54.958 -54.269  1.00  0.00     0.227 C 
BRANCH   5   6
HETATM    6  N   UNL     1     -43.943  55.087 -52.826  1.00  0.00    -0.350 N 
HETATM    7  C   UNL     1     -42.950  55.182 -51.892  1.00  0.00     0.242 C 
HETATM    8  O   UNL     1     -43.242  55.141 -50.696  1.00  0.00    -0.271 OA
HETATM    9  H   UNL     1     -44.855  54.866 -52.437  1.00  0.00     0.163 HD
BRANCH   7  10
HETATM   10  C   UNL     1     -41.517  55.412 -52.362  1.00  0.00     0.278 C 
BRANCH  10  11
HETATM   11  O   UNL     1     -40.639  54.567 -51.623  1.00  0.00    -0.342 OA
BRANCH  11  12
HETATM   12  C   UNL     1     -40.371  53.373 -52.235  1.00  0.00     0.069 A 
HETATM   13  C   UNL     1     -40.563  53.333 -53.614  1.00  0.00     0.037 A 
HETATM   14  C   UNL     1     -40.287  52.166 -54.331  1.00  0.00     0.009 A 
HETATM   15  C   UNL     1     -39.805  51.029 -53.672  1.00  0.00    -0.062 A 
HETATM   16  C   UNL     1     -39.471  49.784 -54.439  1.00  0.00     0.048 C 
HETATM   17  C   UNL     1     -39.577  51.090 -52.292  1.00  0.00     0.009 A 
HETATM   18  C   UNL     1     -39.857  52.257 -51.575  1.00  0.00     0.037 A 
ENDBRANCH  11  12
ENDBRANCH  10  11
ENDBRANCH   7  10
ENDBRANCH   5   6
ENDBRANCH   1   5
BRANCH   2  19
HETATM   19  N   UNL     1     -42.239  57.639 -56.309  1.00  0.00    -0.166 NA
HETATM   20  C   UNL     1     -42.383  57.702 -57.594  1.00  0.00     0.157 A 
HETATM   21  C   UNL     1     -42.863  56.607 -58.551  1.00  0.00     0.277 A 
HETATM   22  C   UNL     1     -42.113  58.868 -58.424  1.00  0.00     0.028 A 
HETATM   23  O   UNL     1     -43.157  55.479 -58.215  1.00  0.00    -0.266 OA
HETATM   24  N   UNL     1     -42.866  57.183 -59.802  1.00  0.00    -0.321 N 
HETATM   25  C   UNL     1     -42.423  58.503 -59.734  1.00  0.00     0.048 A 
HETATM   26  H   UNL     1     -43.141  56.691 -60.639  1.00  0.00     0.169 HD
HETATM   27  C   UNL     1     -42.276  59.390 -60.778  1.00  0.00     0.032 A 
HETATM   28  C   UNL     1     -41.798  60.671 -60.468  1.00  0.00     0.021 A 
HETATM   29  C   UNL     1     -41.486  61.025 -59.139  1.00  0.00     0.012 A 
HETATM   30 BR   UNL     1     -40.837  62.766 -58.776  1.00  0.00    -0.051 Br
HETATM   31  C   UNL     1     -41.642  60.120 -58.089  1.00  0.00     0.035 A 
ENDBRANCH   2  19
TORSDOF 6
ENDMDL
MODEL 5
REMARK VINA RESULT:      -7.9      2.287      2.975
REMARK  6 active torsions:
REMARK  status: ('A' for Active; 'I' for Inactive)
REMARK    1  A    between atoms: C_5  and  O_6 
REMARK    2  A    between atoms: O_6  and  C_7 
REMARK    3  A    between atoms: C_7  and  C_8 
REMARK       I    between atoms: C_8  and  N_9 
REMARK    4  A    between atoms: N_9  and  C_10 
REMARK    5  A    between atoms: C_10  and  C_11 
REMARK       I    between atoms: C_11  and  N_12 
REMARK    6  A    between atoms: N_12  and  N_13 
ROOT
HETATM    1  C   UNL     1     -41.308  59.183 -53.210  1.00  0.00     0.255 C 
HETATM    2  N   UNL     1     -42.240  59.727 -54.080  1.00  0.00    -0.245 N 
HETATM    3  O   UNL     1     -40.088  59.199 -53.372  1.00  0.00    -0.270 OA
HETATM    4  H   UNL     1     -43.233  59.753 -53.837  1.00  0.00     0.192 HD
ENDROOT
BRANCH   1   5
HETATM    5  C   UNL     1     -41.950  58.463 -52.022  1.00  0.00     0.227 C 
BRANCH   5   6
HETATM    6  N   UNL     1     -42.869  57.439 -52.492  1.00  0.00    -0.350 N 
HETATM    7  C   UNL     1     -42.573  56.216 -53.024  1.00  0.00     0.242 C 
HETATM    8  O   UNL     1     -43.477  55.532 -53.504  1.00  0.00    -0.271 OA
HETATM    9  H   UNL     1     -43.828  57.737 -52.652  1.00  0.00     0.163 HD
BRANCH   7  10
HETATM   10  C   UNL     1     -41.138  55.704 -52.937  1.00  0.00     0.278 C 
BRANCH  10  11
HETATM   11  O   UNL     1     -41.084  54.612 -52.022  1.00  0.00    -0.342 OA
BRANCH  11  12
HETATM   12  C   UNL     1     -40.660  53.439 -52.581  1.00  0.00     0.069 A 
HETATM   13  C   UNL     1     -39.984  52.563 -51.734  1.00  0.00     0.037 A 
HETATM   14  C   UNL     1     -39.537  51.327 -52.208  1.00  0.00     0.009 A 
HETATM   15  C   UNL     1     -39.774  50.951 -53.535  1.00  0.00    -0.062 A 
HETATM   16  C   UNL     1     -39.331  49.611 -54.041  1.00  0.00     0.048 C 
HETATM   17  C   UNL     1     -40.489  51.820 -54.369  1.00  0.00     0.009 A 
HETATM   18  C   UNL     1     -40.931  53.058 -53.895  1.00  0.00     0.037 A 
ENDBRANCH  11  12
ENDBRANCH  10  11
ENDBRANCH   7  10
ENDBRANCH   5   6
ENDBRANCH   1   5
BRANCH   2  19
HETATM   19  N   UNL     1     -41.827  60.342 -55.229  1.00  0.00    -0.166 NA
HETATM   20  C   UNL     1     -42.293  59.868 -56.339  1.00  0.00     0.157 A 
HETATM   21  C   UNL     1     -43.260  58.698 -56.542  1.00  0.00     0.277 A 
HETATM   22  C   UNL     1     -41.985  60.368 -57.673  1.00  0.00     0.028 A 
HETATM   23  O   UNL     1     -43.713  58.017 -55.646  1.00  0.00    -0.266 OA
HETATM   24  N   UNL     1     -43.461  58.615 -57.902  1.00  0.00    -0.321 N 
HETATM   25  C   UNL     1     -42.714  59.585 -58.568  1.00  0.00     0.048 A 
HETATM   26  H   UNL     1     -44.061  57.927 -58.333  1.00  0.00     0.169 HD
HETATM   27  C   UNL     1     -42.645  59.800 -59.927  1.00  0.00     0.032 A 
HETATM   28  C   UNL     1     -41.810  60.833 -60.371  1.00  0.00     0.021 A 
HETATM   29  C   UNL     1     -41.076  61.616 -59.455  1.00  0.00     0.012 A 
HETATM   30 BR   UNL     1     -39.956  62.995 -60.107  1.00  0.00    -0.051 Br
HETATM   31  C   UNL     1     -41.156  61.392 -58.080  1.00  0.00     0.035 A 
ENDBRANCH   2  19
TORSDOF 6
ENDMDL
MODEL 6
REMARK VINA RESULT:      -7.8      3.498      7.230
REMARK  6 active torsions:
REMARK  status: ('A' for Active; 'I' for Inactive)
REMARK    1  A    between atoms: C_5  and  O_6 
REMARK    2  A    between atoms: O_6  and  C_7 
REMARK    3  A    between atoms: C_7  and  C_8 
REMARK       I    between atoms: C_8  and  N_9 
REMARK    4  A    between atoms: N_9  and  C_10 
REMARK    5  A    between atoms: C_10  and  C_11 
REMARK       I    between atoms: C_11  and  N_12 
REMARK    6  A    between atoms: N_12  and  N_13 
ROOT
HETATM    1  C   UNL     1     -42.004  59.366 -54.272  1.00  0.00     0.255 C 
HETATM    2  N   UNL     1     -42.740  58.195 -54.177  1.00  0.00    -0.245 N 
HETATM    3  O   UNL     1     -40.914  59.567 -53.739  1.00  0.00    -0.270 OA
HETATM    4  H   UNL     1     -43.598  58.067 -54.720  1.00  0.00     0.192 HD
ENDROOT
BRANCH   1   5
HETATM    5  C   UNL     1     -42.725  60.460 -55.063  1.00  0.00     0.227 C 
BRANCH   5   6
HETATM    6  N   UNL     1     -41.822  61.052 -56.037  1.00  0.00    -0.350 N 
HETATM    7  C   UNL     1     -41.845  60.928 -57.398  1.00  0.00     0.242 C 
HETATM    8  O   UNL     1     -40.914  61.385 -58.061  1.00  0.00    -0.271 OA
HETATM    9  H   UNL     1     -40.948  61.421 -55.672  1.00  0.00     0.163 HD
BRANCH   7  10
HETATM   10  C   UNL     1     -43.066  60.293 -58.057  1.00  0.00     0.278 C 
BRANCH  10  11
HETATM   11  O   UNL     1     -42.662  59.630 -59.252  1.00  0.00    -0.342 OA
BRANCH  11  12
HETATM   12  C   UNL     1     -43.186  58.374 -59.395  1.00  0.00     0.069 A 
HETATM   13  C   UNL     1     -42.283  57.366 -59.726  1.00  0.00     0.037 A 
HETATM   14  C   UNL     1     -42.719  56.046 -59.865  1.00  0.00     0.009 A 
HETATM   15  C   UNL     1     -44.065  55.722 -59.663  1.00  0.00    -0.062 A 
HETATM   16  C   UNL     1     -44.535  54.302 -59.774  1.00  0.00     0.048 C 
HETATM   17  C   UNL     1     -44.959  56.734 -59.292  1.00  0.00     0.009 A 
HETATM   18  C   UNL     1     -44.522  58.055 -59.157  1.00  0.00     0.037 A 
ENDBRANCH  11  12
ENDBRANCH  10  11
ENDBRANCH   7  10
ENDBRANCH   5   6
ENDBRANCH   1   5
BRANCH   2  19
HETATM   19  N   UNL     1     -42.264  57.144 -53.443  1.00  0.00    -0.166 NA
HETATM   20  C   UNL     1     -41.842  56.117 -54.108  1.00  0.00     0.157 A 
HETATM   21  C   UNL     1     -41.798  55.921 -55.626  1.00  0.00     0.277 A 
HETATM   22  C   UNL     1     -41.298  54.895 -53.530  1.00  0.00     0.028 A 
HETATM   23  O   UNL     1     -42.198  56.729 -56.437  1.00  0.00    -0.266 OA
HETATM   24  N   UNL     1     -41.240  54.677 -55.822  1.00  0.00    -0.321 N 
HETATM   25  C   UNL     1     -40.951  54.071 -54.601  1.00  0.00     0.048 A 
HETATM   26  H   UNL     1     -41.084  54.276 -56.736  1.00  0.00     0.169 HD
HETATM   27  C   UNL     1     -40.403  52.823 -54.395  1.00  0.00     0.032 A 
HETATM   28  C   UNL     1     -40.214  52.418 -53.068  1.00  0.00     0.021 A 
HETATM   29  C   UNL     1     -40.573  53.260 -51.994  1.00  0.00     0.012 A 
HETATM   30 BR   UNL     1     -40.305  52.661 -50.220  1.00  0.00    -0.051 Br
HETATM   31  C   UNL     1     -41.124  54.523 -52.214  1.00  0.00     0.035 A 
ENDBRANCH   2  19
TORSDOF 6
ENDMDL
MODEL 7
REMARK VINA RESULT:      -7.8      2.363      3.184
REMARK  6 active torsions:
REMARK  status: ('A' for Active; 'I' for Inactive)
REMARK    1  A    between atoms: C_5  and  O_6 
REMARK    2  A    between atoms: O_6  and  C_7 
REMARK    3  A    between atoms: C_7  and  C_8 
REMARK       I    between atoms: C_8  and  N_9 
REMARK    4  A    between atoms: N_9  and  C_10 
REMARK    5  A    between atoms: C_10  and  C_11 
REMARK       I    between atoms: C_11  and  N_12 
REMARK    6  A    between atoms: N_12  and  N_13 
ROOT
HETATM    1  C   UNL     1     -44.172  59.140 -54.285  1.00  0.00     0.255 C 
HETATM    2  N   UNL     1     -43.768  59.382 -55.589  1.00  0.00    -0.245 N 
HETATM    3  O   UNL     1     -45.134  58.448 -53.954  1.00  0.00    -0.270 OA
HETATM    4  H   UNL     1     -42.906  59.896 -55.785  1.00  0.00     0.192 HD
ENDROOT
BRANCH   1   5
HETATM    5  C   UNL     1     -43.335  59.896 -53.251  1.00  0.00     0.227 C 
BRANCH   5   6
HETATM    6  N   UNL     1     -41.918  59.746 -53.545  1.00  0.00    -0.350 N 
HETATM    7  C   UNL     1     -41.017  58.904 -52.957  1.00  0.00     0.242 C 
HETATM    8  O   UNL     1     -39.822  59.012 -53.234  1.00  0.00    -0.271 OA
HETATM    9  H   UNL     1     -41.492  60.492 -54.089  1.00  0.00     0.163 HD
BRANCH   7  10
HETATM   10  C   UNL     1     -41.532  57.804 -52.034  1.00  0.00     0.278 C 
BRANCH  10  11
HETATM   11  O   UNL     1     -42.027  56.724 -52.822  1.00  0.00    -0.342 OA
BRANCH  11  12
HETATM   12  C   UNL     1     -41.470  55.512 -52.517  1.00  0.00     0.069 A 
HETATM   13  C   UNL     1     -41.138  54.699 -53.599  1.00  0.00     0.037 A 
HETATM   14  C   UNL     1     -40.538  53.455 -53.388  1.00  0.00     0.009 A 
HETATM   15  C   UNL     1     -40.254  53.019 -52.090  1.00  0.00    -0.062 A 
HETATM   16  C   UNL     1     -39.576  51.702 -51.856  1.00  0.00     0.048 C 
HETATM   17  C   UNL     1     -40.554  53.859 -51.010  1.00  0.00     0.009 A 
HETATM   18  C   UNL     1     -41.159  55.101 -51.222  1.00  0.00     0.037 A 
ENDBRANCH  11  12
ENDBRANCH  10  11
ENDBRANCH   7  10
ENDBRANCH   5   6
ENDBRANCH   1   5
BRANCH   2  19
HETATM   19  N   UNL     1     -44.460  58.834 -56.633  1.00  0.00    -0.166 NA
HETATM   20  C   UNL     1     -43.918  57.813 -57.214  1.00  0.00     0.157 A 
HETATM   21  C   UNL     1     -42.591  57.123 -56.881  1.00  0.00     0.277 A 
HETATM   22  C   UNL     1     -44.478  57.080 -58.341  1.00  0.00     0.028 A 
HETATM   23  O   UNL     1     -41.830  57.480 -56.007  1.00  0.00    -0.266 OA
HETATM   24  N   UNL     1     -42.485  56.077 -57.770  1.00  0.00    -0.321 N 
HETATM   25  C   UNL     1     -43.582  56.050 -58.629  1.00  0.00     0.048 A 
HETATM   26  H   UNL     1     -41.702  55.439 -57.786  1.00  0.00     0.169 HD
HETATM   27  C   UNL     1     -43.818  55.162 -59.657  1.00  0.00     0.032 A 
HETATM   28  C   UNL     1     -44.992  55.340 -60.400  1.00  0.00     0.021 A 
HETATM   29  C   UNL     1     -45.888  56.388 -60.100  1.00  0.00     0.012 A 
HETATM   30 BR   UNL     1     -47.456  56.589 -61.140  1.00  0.00    -0.051 Br
HETATM   31  C   UNL     1     -45.641  57.279 -59.055  1.00  0.00     0.035 A 
ENDBRANCH   2  19
TORSDOF 6
ENDMDL
MODEL 8
REMARK VINA RESULT:      -7.7      2.270      2.496
REMARK  6 active torsions:
REMARK  status: ('A' for Active; 'I' for Inactive)
REMARK    1  A    between atoms: C_5  and  O_6 
REMARK    2  A    between atoms: O_6  and  C_7 
REMARK    3  A    between atoms: C_7  and  C_8 
REMARK       I    between atoms: C_8  and  N_9 
REMARK    4  A    between atoms: N_9  and  C_10 
REMARK    5  A    between atoms: C_10  and  C_11 
REMARK       I    between atoms: C_11  and  N_12 
REMARK    6  A    between atoms: N_12  and  N_13 
ROOT
HETATM    1  C   UNL     1     -41.951  58.771 -54.874  1.00  0.00     0.255 C 
HETATM    2  N   UNL     1     -43.005  57.919 -55.167  1.00  0.00    -0.245 N 
HETATM    3  O   UNL     1     -41.719  59.838 -55.443  1.00  0.00    -0.270 OA
HETATM    4  H   UNL     1     -43.186  57.091 -54.594  1.00  0.00     0.192 HD
ENDROOT
BRANCH   1   5
HETATM    5  C   UNL     1     -41.019  58.218 -53.795  1.00  0.00     0.227 C 
BRANCH   5   6
HETATM    6  N   UNL     1     -41.758  57.986 -52.563  1.00  0.00    -0.350 N 
HETATM    7  C   UNL     1     -42.271  56.811 -52.093  1.00  0.00     0.242 C 
HETATM    8  O   UNL     1     -42.995  56.824 -51.098  1.00  0.00    -0.271 OA
HETATM    9  H   UNL     1     -42.130  58.812 -52.102  1.00  0.00     0.163 HD
BRANCH   7  10
HETATM   10  C   UNL     1     -41.864  55.507 -52.774  1.00  0.00     0.278 C 
BRANCH  10  11
HETATM   11  O   UNL     1     -41.221  54.662 -51.822  1.00  0.00    -0.342 OA
BRANCH  11  12
HETATM   12  C   UNL     1     -40.769  53.481 -52.344  1.00  0.00     0.069 A 
HETATM   13  C   UNL     1     -41.150  53.202 -53.655  1.00  0.00     0.037 A 
HETATM   14  C   UNL     1     -40.713  52.033 -54.282  1.00  0.00     0.009 A 
HETATM   15  C   UNL     1     -39.881  51.136 -53.605  1.00  0.00    -0.062 A 
HETATM   16  C   UNL     1     -39.377  49.897 -54.284  1.00  0.00     0.048 C 
HETATM   17  C   UNL     1     -39.471  51.442 -52.301  1.00  0.00     0.009 A 
HETATM   18  C   UNL     1     -39.912  52.610 -51.672  1.00  0.00     0.037 A 
ENDBRANCH  11  12
ENDBRANCH  10  11
ENDBRANCH   7  10
ENDBRANCH   5   6
ENDBRANCH   1   5
BRANCH   2  19
HETATM   19  N   UNL     1     -43.888  58.238 -56.161  1.00  0.00    -0.166 NA
HETATM   20  C   UNL     1     -44.006  57.384 -57.126  1.00  0.00     0.157 A 
HETATM   21  C   UNL     1     -43.284  56.045 -57.304  1.00  0.00     0.277 A 
HETATM   22  C   UNL     1     -44.883  57.522 -58.281  1.00  0.00     0.028 A 
HETATM   23  O   UNL     1     -42.449  55.606 -56.541  1.00  0.00    -0.266 OA
HETATM   24  N   UNL     1     -43.779  55.510 -58.473  1.00  0.00    -0.321 N 
HETATM   25  C   UNL     1     -44.710  56.371 -59.050  1.00  0.00     0.048 A 
HETATM   26  H   UNL     1     -43.482  54.620 -58.846  1.00  0.00     0.169 HD
HETATM   27  C   UNL     1     -45.403  56.186 -60.227  1.00  0.00     0.032 A 
HETATM   28  C   UNL     1     -46.284  57.203 -60.618  1.00  0.00     0.021 A 
HETATM   29  C   UNL     1     -46.446  58.363 -59.832  1.00  0.00     0.012 A 
HETATM   30 BR   UNL     1     -47.643  59.711 -60.411  1.00  0.00    -0.051 Br
HETATM   31  C   UNL     1     -45.742  58.539 -58.641  1.00  0.00     0.035 A 
ENDBRANCH   2  19
TORSDOF 6
ENDMDL
MODEL 9
REMARK VINA RESULT:      -7.6      3.241      7.762
REMARK  6 active torsions:
REMARK  status: ('A' for Active; 'I' for Inactive)
REMARK    1  A    between atoms: C_5  and  O_6 
REMARK    2  A    between atoms: O_6  and  C_7 
REMARK    3  A    between atoms: C_7  and  C_8 
REMARK       I    between atoms: C_8  and  N_9 
REMARK    4  A    between atoms: N_9  and  C_10 
REMARK    5  A    between atoms: C_10  and  C_11 
REMARK       I    between atoms: C_11  and  N_12 
REMARK    6  A    between atoms: N_12  and  N_13 
ROOT
HETATM    1  C   UNL     1     -43.249  57.138 -54.160  1.00  0.00     0.255 C 
HETATM    2  N   UNL     1     -41.926  56.835 -53.878  1.00  0.00    -0.245 N 
HETATM    3  O   UNL     1     -44.112  56.324 -54.486  1.00  0.00    -0.270 OA
HETATM    4  H   UNL     1     -41.285  57.552 -53.528  1.00  0.00     0.192 HD
ENDROOT
BRANCH   1   5
HETATM    5  C   UNL     1     -43.541  58.639 -54.106  1.00  0.00     0.227 C 
BRANCH   5   6
HETATM    6  N   UNL     1     -42.548  59.372 -54.876  1.00  0.00    -0.350 N 
HETATM    7  C   UNL     1     -42.492  59.552 -56.229  1.00  0.00     0.242 C 
HETATM    8  O   UNL     1     -41.497  60.082 -56.725  1.00  0.00    -0.271 OA
HETATM    9  H   UNL     1     -41.681  59.593 -54.394  1.00  0.00     0.163 HD
BRANCH   7  10
HETATM   10  C   UNL     1     -43.699  59.159 -57.074  1.00  0.00     0.278 C 
BRANCH  10  11
HETATM   11  O   UNL     1     -43.554  57.806 -57.499  1.00  0.00    -0.342 OA
BRANCH  11  12
HETATM   12  C   UNL     1     -44.480  57.412 -58.426  1.00  0.00     0.069 A 
HETATM   13  C   UNL     1     -45.777  57.887 -58.240  1.00  0.00     0.037 A 
HETATM   14  C   UNL     1     -46.784  57.561 -59.151  1.00  0.00     0.009 A 
HETATM   15  C   UNL     1     -46.499  56.765 -60.265  1.00  0.00    -0.062 A 
HETATM   16  C   UNL     1     -47.567  56.441 -61.268  1.00  0.00     0.048 C 
HETATM   17  C   UNL     1     -45.185  56.324 -60.466  1.00  0.00     0.009 A 
HETATM   18  C   UNL     1     -44.179  56.646 -59.552  1.00  0.00     0.037 A 
ENDBRANCH  11  12
ENDBRANCH  10  11
ENDBRANCH   7  10
ENDBRANCH   5   6
ENDBRANCH   1   5
BRANCH   2  19
HETATM   19  N   UNL     1     -41.488  55.542 -53.953  1.00  0.00    -0.166 NA
HETATM   20  C   UNL     1     -41.140  54.983 -52.839  1.00  0.00     0.157 A 
HETATM   21  C   UNL     1     -41.157  55.581 -51.429  1.00  0.00     0.277 A 
HETATM   22  C   UNL     1     -40.645  53.621 -52.689  1.00  0.00     0.028 A 
HETATM   23  O   UNL     1     -41.490  56.718 -51.168  1.00  0.00    -0.266 OA
HETATM   24  N   UNL     1     -40.720  54.576 -50.595  1.00  0.00    -0.321 N 
HETATM   25  C   UNL     1     -40.415  53.430 -51.327  1.00  0.00     0.048 A 
HETATM   26  H   UNL     1     -40.630  54.685 -49.596  1.00  0.00     0.169 HD
HETATM   27  C   UNL     1     -39.935  52.232 -50.843  1.00  0.00     0.032 A 
HETATM   28  C   UNL     1     -39.687  51.218 -51.777  1.00  0.00     0.021 A 
HETATM   29  C   UNL     1     -39.921  51.425 -53.152  1.00  0.00     0.012 A 
HETATM   30 BR   UNL     1     -39.560  50.025 -54.373  1.00  0.00    -0.051 Br
HETATM   31  C   UNL     1     -40.409  52.641 -53.631  1.00  0.00     0.035 A 
ENDBRANCH   2  19
TORSDOF 6
ENDMDL
MODEL 10
REMARK VINA RESULT:      -7.5      3.564      7.161
REMARK  6 active torsions:
REMARK  status: ('A' for Active; 'I' for Inactive)
REMARK    1  A    between atoms: C_5  and  O_6 
REMARK    2  A    between atoms: O_6  and  C_7 
REMARK    3  A    between atoms: C_7  and  C_8 
REMARK       I    between atoms: C_8  and  N_9 
REMARK    4  A    between atoms: N_9  and  C_10 
REMARK    5  A    between atoms: C_10  and  C_11 
REMARK       I    between atoms: C_11  and  N_12 
REMARK    6  A    between atoms: N_12  and  N_13 
ROOT
HETATM    1  C   UNL     1     -43.983  57.105 -55.583  1.00  0.00     0.255 C 
HETATM    2  N   UNL     1     -44.436  56.240 -54.598  1.00  0.00    -0.245 N 
HETATM    3  O   UNL     1     -42.820  57.187 -55.978  1.00  0.00    -0.270 OA
HETATM    4  H   UNL     1     -45.433  56.166 -54.383  1.00  0.00     0.192 HD
ENDROOT
BRANCH   1   5
HETATM    5  C   UNL     1     -45.075  58.041 -56.103  1.00  0.00     0.227 C 
BRANCH   5   6
HETATM    6  N   UNL     1     -45.677  58.774 -55.000  1.00  0.00    -0.350 N 
HETATM    7  C   UNL     1     -45.269  59.955 -54.448  1.00  0.00     0.242 C 
HETATM    8  O   UNL     1     -45.816  60.361 -53.422  1.00  0.00    -0.271 OA
HETATM    9  H   UNL     1     -46.339  58.258 -54.427  1.00  0.00     0.163 HD
BRANCH   7  10
HETATM   10  C   UNL     1     -44.201  60.773 -55.166  1.00  0.00     0.278 C 
BRANCH  10  11
HETATM   11  O   UNL     1     -43.452  61.514 -54.206  1.00  0.00    -0.342 OA
BRANCH  11  12
HETATM   12  C   UNL     1     -42.608  60.749 -53.448  1.00  0.00     0.069 A 
HETATM   13  C   UNL     1     -42.695  60.921 -52.069  1.00  0.00     0.037 A 
HETATM   14  C   UNL     1     -41.893  60.163 -51.212  1.00  0.00     0.009 A 
HETATM   15  C   UNL     1     -41.003  59.216 -51.730  1.00  0.00    -0.062 A 
HETATM   16  C   UNL     1     -40.166  58.372 -50.815  1.00  0.00     0.048 C 
HETATM   17  C   UNL     1     -40.950  59.021 -53.115  1.00  0.00     0.009 A 
HETATM   18  C   UNL     1     -41.749  59.783 -53.972  1.00  0.00     0.037 A 
ENDBRANCH  11  12
ENDBRANCH  10  11
ENDBRANCH   7  10
ENDBRANCH   5   6
ENDBRANCH   1   5
BRANCH   2  19
HETATM   19  N   UNL     1     -43.564  55.387 -53.981  1.00  0.00    -0.166 NA
HETATM   20  C   UNL     1     -43.291  55.637 -52.741  1.00  0.00     0.157 A 
HETATM   21  C   UNL     1     -43.824  56.770 -51.859  1.00  0.00     0.277 A 
HETATM   22  C   UNL     1     -42.391  54.862 -51.896  1.00  0.00     0.028 A 
HETATM   23  O   UNL     1     -44.585  57.636 -52.237  1.00  0.00    -0.266 OA
HETATM   24  N   UNL     1     -43.251  56.576 -50.622  1.00  0.00    -0.321 N 
HETATM   25  C   UNL     1     -42.410  55.466 -50.639  1.00  0.00     0.048 A 
HETATM   26  H   UNL     1     -43.424  57.179 -49.830  1.00  0.00     0.169 HD
HETATM   27  C   UNL     1     -41.654  54.973 -49.597  1.00  0.00     0.032 A 
HETATM   28  C   UNL     1     -40.867  53.843 -49.856  1.00  0.00     0.021 A 
HETATM   29  C   UNL     1     -40.856  53.244 -51.133  1.00  0.00     0.012 A 
HETATM   30 BR   UNL     1     -39.768  51.724 -51.431  1.00  0.00    -0.051 Br
HETATM   31  C   UNL     1     -41.627  53.750 -52.180  1.00  0.00     0.035 A 
ENDBRANCH   2  19
TORSDOF 6
ENDMDL
