MODEL 1
REMARK VINA RESULT:      -8.5      0.000      0.000
REMARK  11 active torsions:
REMARK  status: ('A' for Active; 'I' for Inactive)
REMARK    1  A    between atoms: C_6  and  O_9 
REMARK    2  A    between atoms: O_9  and  C_10 
REMARK    3  A    between atoms: C_10  and  C_12 
REMARK    4  A    between atoms: C_12  and  C_13 
REMARK    5  A    between atoms: C_16  and  N_17 
REMARK       I    between atoms: N_17  and  C_18 
REMARK    6  A    between atoms: C_18  and  C_20 
REMARK    7  A    between atoms: C_24  and  C_26 
REMARK    8  A    between atoms: C_28  and  C_34 
REMARK    9  A    between atoms: C_31  and  C_32 
REMARK   10  A    between atoms: C_32  and  N_33 
REMARK       I    between atoms: C_34  and  N_36 
REMARK   11  A    between atoms: N_36  and  C_37 
ROOT
HETATM    1  C   UNL     1     -43.596  56.494 -57.995  1.00  0.00     0.033 A 
HETATM    2  C   UNL     1     -43.560  55.361 -58.812  1.00  0.00     0.017 A 
HETATM    3  C   UNL     1     -43.867  55.482 -60.163  1.00  0.00     0.002 A 
HETATM    4  C   UNL     1     -44.183  56.734 -60.700  1.00  0.00     0.012 A 
HETATM    5  C   UNL     1     -44.249  57.888 -59.894  1.00  0.00    -0.024 A 
HETATM    6  C   UNL     1     -44.000  57.732 -58.520  1.00  0.00     0.029 A 
ENDROOT
BRANCH   1   7
HETATM    7  C   UNL     1     -43.108  56.448 -56.589  1.00  0.00     0.256 C 
HETATM    8  N   UNL     1     -43.230  55.198 -56.005  1.00  0.00    -0.323 N 
HETATM    9  H   UNL     1     -43.623  54.466 -56.581  1.00  0.00     0.169 HD
HETATM   10  O   UNL     1     -42.589  57.447 -56.111  1.00  0.00    -0.267 OA
BRANCH   8  11
HETATM   11  C   UNL     1     -42.739  54.778 -54.751  1.00  0.00     0.035 A 
HETATM   12  C   UNL     1     -43.544  54.488 -53.653  1.00  0.00     0.030 A 
HETATM   13  C   UNL     1     -42.970  54.116 -52.430  1.00  0.00     0.010 A 
HETATM   14  C   UNL     1     -41.579  54.032 -52.287  1.00  0.00    -0.049 A 
HETATM   15  C   UNL     1     -40.773  54.303 -53.398  1.00  0.00     0.010 A 
HETATM   16  C   UNL     1     -41.349  54.673 -54.616  1.00  0.00     0.030 A 
BRANCH  14  17
HETATM   17  C   UNL     1     -40.965  53.633 -50.969  1.00  0.00     0.149 C 
BRANCH  17  18
HETATM   18  C   UNL     1     -41.011  54.730 -49.929  1.00  0.00     0.263 C 
HETATM   19  O   UNL     1     -41.447  54.632 -48.791  1.00  0.00    -0.265 OA
BRANCH  18  20
HETATM   20  O   UNL     1     -40.430  55.870 -50.420  1.00  0.00    -0.316 OA
BRANCH  20  21
HETATM   21  C   UNL     1     -41.193  57.075 -50.228  1.00  0.00     0.135 C 
HETATM   22  C   UNL     1     -40.300  58.304 -50.393  1.00  0.00     0.060 C 
HETATM   23  C   UNL     1     -41.115  59.581 -50.290  1.00  0.00     0.237 C 
HETATM   24  N   UNL     1     -42.246  59.579 -51.293  1.00  0.00    -0.075 N 
HETATM   25  C   UNL     1     -41.807  59.876 -52.703  1.00  0.00     0.269 C 
HETATM   26  C   UNL     1     -43.130  58.361 -51.175  1.00  0.00     0.237 C 
HETATM   27  H   UNL     1     -42.843  60.378 -51.035  1.00  0.00     0.279 HD
HETATM   28  C   UNL     1     -42.311  57.085 -51.268  1.00  0.00     0.060 C 
ENDBRANCH  20  21
ENDBRANCH  18  20
ENDBRANCH  17  18
ENDBRANCH  14  17
ENDBRANCH   8  11
ENDBRANCH   1   7
BRANCH   5  29
HETATM   29  C   UNL     1     -44.526  59.217 -60.499  1.00  0.00    -0.017 A 
HETATM   30  C   UNL     1     -43.456  60.133 -60.653  1.00  0.00     0.030 A 
HETATM   31  C   UNL     1     -43.660  61.424 -61.163  1.00  0.00     0.033 A 
HETATM   32  C   UNL     1     -44.933  61.805 -61.578  1.00  0.00     0.017 A 
HETATM   33  C   UNL     1     -45.998  60.919 -61.455  1.00  0.00     0.011 A 
HETATM   34  C   UNL     1     -45.832  59.644 -60.873  1.00  0.00    -0.020 A 
BRANCH  31  35
HETATM   35  C   UNL     1     -42.586  62.454 -61.184  1.00  0.00     0.256 C 
HETATM   36  O   UNL     1     -42.888  63.594 -61.516  1.00  0.00    -0.267 OA
HETATM   37  N   UNL     1     -41.322  62.019 -60.835  1.00  0.00    -0.320 N 
HETATM   38  H   UNL     1     -41.167  61.020 -60.743  1.00  0.00     0.169 HD
BRANCH  37  39
HETATM   39  C   UNL     1     -40.164  62.824 -60.702  1.00  0.00     0.076 A 
HETATM   40  C   UNL     1     -39.665  63.284 -59.484  1.00  0.00     0.052 A 
HETATM   41  C   UNL     1     -38.511  64.059 -59.488  1.00  0.00     0.118 A 
HETATM   42  N   UNL     1     -37.831  64.399 -60.605  1.00  0.00    -0.270 NA
HETATM   43  C   UNL     1     -38.331  63.939 -61.774  1.00  0.00     0.160 A 
HETATM   44  C   UNL     1     -39.471  63.160 -61.865  1.00  0.00     0.160 A 
HETATM   45  F   UNL     1     -39.907  62.732 -63.060  1.00  0.00    -0.202 F 
ENDBRANCH  37  39
ENDBRANCH  31  35
BRANCH  34  46
HETATM   46  C   UNL     1     -47.064  58.775 -60.682  1.00  0.00     0.306 C 
BRANCH  46  47
HETATM   47  N   UNL     1     -47.588  58.221 -61.932  1.00  0.00     0.082 N 
HETATM   48  H   UNL     1     -48.589  58.408 -61.976  1.00  0.00     0.313 HD
HETATM   49  H   UNL     1     -47.486  57.208 -61.914  1.00  0.00     0.313 HD
ENDBRANCH  46  47
ENDBRANCH  34  46
ENDBRANCH   5  29
TORSDOF 11
ENDMDL
MODEL 2
REMARK VINA RESULT:      -8.4      6.477     11.796
REMARK  11 active torsions:
REMARK  status: ('A' for Active; 'I' for Inactive)
REMARK    1  A    between atoms: C_6  and  O_9 
REMARK    2  A    between atoms: O_9  and  C_10 
REMARK    3  A    between atoms: C_10  and  C_12 
REMARK    4  A    between atoms: C_12  and  C_13 
REMARK    5  A    between atoms: C_16  and  N_17 
REMARK       I    between atoms: N_17  and  C_18 
REMARK    6  A    between atoms: C_18  and  C_20 
REMARK    7  A    between atoms: C_24  and  C_26 
REMARK    8  A    between atoms: C_28  and  C_34 
REMARK    9  A    between atoms: C_31  and  C_32 
REMARK   10  A    between atoms: C_32  and  N_33 
REMARK       I    between atoms: C_34  and  N_36 
REMARK   11  A    between atoms: N_36  and  C_37 
ROOT
HETATM    1  C   UNL     1     -44.106  60.326 -50.672  1.00  0.00     0.033 A 
HETATM    2  C   UNL     1     -43.046  60.931 -49.992  1.00  0.00     0.017 A 
HETATM    3  C   UNL     1     -41.744  60.503 -50.235  1.00  0.00     0.002 A 
HETATM    4  C   UNL     1     -41.503  59.495 -51.174  1.00  0.00     0.012 A 
HETATM    5  C   UNL     1     -42.555  58.853 -51.855  1.00  0.00    -0.024 A 
HETATM    6  C   UNL     1     -43.866  59.254 -51.546  1.00  0.00     0.029 A 
ENDROOT
BRANCH   1   7
HETATM    7  C   UNL     1     -45.491  60.864 -50.578  1.00  0.00     0.256 C 
HETATM    8  N   UNL     1     -45.865  61.617 -51.678  1.00  0.00    -0.323 N 
HETATM    9  H   UNL     1     -45.178  61.715 -52.414  1.00  0.00     0.169 HD
HETATM   10  O   UNL     1     -46.184  60.548 -49.621  1.00  0.00    -0.267 OA
BRANCH   8  11
HETATM   11  C   UNL     1     -47.139  62.145 -51.972  1.00  0.00     0.035 A 
HETATM   12  C   UNL     1     -47.937  61.722 -53.031  1.00  0.00     0.030 A 
HETATM   13  C   UNL     1     -49.175  62.331 -53.276  1.00  0.00     0.010 A 
HETATM   14  C   UNL     1     -49.632  63.377 -52.463  1.00  0.00    -0.049 A 
HETATM   15  C   UNL     1     -48.839  63.786 -51.386  1.00  0.00     0.010 A 
HETATM   16  C   UNL     1     -47.605  63.176 -51.146  1.00  0.00     0.030 A 
BRANCH  14  17
HETATM   17  C   UNL     1     -50.964  64.031 -52.731  1.00  0.00     0.149 C 
BRANCH  17  18
HETATM   18  C   UNL     1     -52.143  63.196 -52.283  1.00  0.00     0.263 C 
HETATM   19  O   UNL     1     -52.260  62.623 -51.209  1.00  0.00    -0.265 OA
BRANCH  18  20
HETATM   20  O   UNL     1     -53.123  63.211 -53.242  1.00  0.00    -0.316 OA
BRANCH  20  21
HETATM   21  C   UNL     1     -52.690  62.840 -54.562  1.00  0.00     0.135 C 
HETATM   22  C   UNL     1     -52.502  61.326 -54.657  1.00  0.00     0.060 C 
HETATM   23  C   UNL     1     -52.142  60.915 -56.073  1.00  0.00     0.237 C 
HETATM   24  N   UNL     1     -53.178  61.407 -57.057  1.00  0.00    -0.075 N 
HETATM   25  C   UNL     1     -54.447  60.595 -57.057  1.00  0.00     0.269 C 
HETATM   26  C   UNL     1     -53.408  62.896 -56.967  1.00  0.00     0.237 C 
HETATM   27  H   UNL     1     -52.769  61.247 -57.989  1.00  0.00     0.279 HD
HETATM   28  C   UNL     1     -53.759  63.307 -55.548  1.00  0.00     0.060 C 
ENDBRANCH  20  21
ENDBRANCH  18  20
ENDBRANCH  17  18
ENDBRANCH  14  17
ENDBRANCH   8  11
ENDBRANCH   1   7
BRANCH   5  29
HETATM   29  C   UNL     1     -42.269  57.826 -52.892  1.00  0.00    -0.017 A 
HETATM   30  C   UNL     1     -42.237  56.462 -52.511  1.00  0.00     0.030 A 
HETATM   31  C   UNL     1     -41.917  55.450 -53.427  1.00  0.00     0.033 A 
HETATM   32  C   UNL     1     -41.675  55.779 -54.758  1.00  0.00     0.017 A 
HETATM   33  C   UNL     1     -41.719  57.109 -55.163  1.00  0.00     0.011 A 
HETATM   34  C   UNL     1     -41.961  58.152 -54.244  1.00  0.00    -0.020 A 
BRANCH  31  35
HETATM   35  C   UNL     1     -41.719  54.033 -53.016  1.00  0.00     0.256 C 
HETATM   36  O   UNL     1     -42.545  53.533 -52.261  1.00  0.00    -0.267 OA
HETATM   37  N   UNL     1     -40.595  53.407 -53.518  1.00  0.00    -0.320 N 
HETATM   38  H   UNL     1     -39.902  53.975 -53.994  1.00  0.00     0.169 HD
BRANCH  37  39
HETATM   39  C   UNL     1     -40.239  52.048 -53.336  1.00  0.00     0.076 A 
HETATM   40  C   UNL     1     -40.330  51.074 -54.329  1.00  0.00     0.052 A 
HETATM   41  C   UNL     1     -39.938  49.776 -54.027  1.00  0.00     0.118 A 
HETATM   42  N   UNL     1     -39.467  49.389 -52.821  1.00  0.00    -0.270 NA
HETATM   43  C   UNL     1     -39.383  50.350 -51.874  1.00  0.00     0.160 A 
HETATM   44  C   UNL     1     -39.749  51.667 -52.087  1.00  0.00     0.160 A 
HETATM   45  F   UNL     1     -39.632  52.571 -51.102  1.00  0.00    -0.202 F 
ENDBRANCH  37  39
ENDBRANCH  31  35
BRANCH  34  46
HETATM   46  C   UNL     1     -41.892  59.584 -54.747  1.00  0.00     0.306 C 
BRANCH  46  47
HETATM   47  N   UNL     1     -42.158  59.714 -56.181  1.00  0.00     0.082 N 
HETATM   48  H   UNL     1     -41.330  59.411 -56.693  1.00  0.00     0.313 HD
HETATM   49  H   UNL     1     -42.292  60.697 -56.406  1.00  0.00     0.313 HD
ENDBRANCH  46  47
ENDBRANCH  34  46
ENDBRANCH   5  29
TORSDOF 11
ENDMDL
MODEL 3
REMARK VINA RESULT:      -8.3      5.008     11.683
REMARK  11 active torsions:
REMARK  status: ('A' for Active; 'I' for Inactive)
REMARK    1  A    between atoms: C_6  and  O_9 
REMARK    2  A    between atoms: O_9  and  C_10 
REMARK    3  A    between atoms: C_10  and  C_12 
REMARK    4  A    between atoms: C_12  and  C_13 
REMARK    5  A    between atoms: C_16  and  N_17 
REMARK       I    between atoms: N_17  and  C_18 
REMARK    6  A    between atoms: C_18  and  C_20 
REMARK    7  A    between atoms: C_24  and  C_26 
REMARK    8  A    between atoms: C_28  and  C_34 
REMARK    9  A    between atoms: C_31  and  C_32 
REMARK   10  A    between atoms: C_32  and  N_33 
REMARK       I    between atoms: C_34  and  N_36 
REMARK   11  A    between atoms: N_36  and  C_37 
ROOT
HETATM    1  C   UNL     1     -44.677  57.365 -59.289  1.00  0.00     0.033 A 
HETATM    2  C   UNL     1     -43.854  56.957 -60.343  1.00  0.00     0.017 A 
HETATM    3  C   UNL     1     -42.542  56.578 -60.078  1.00  0.00     0.002 A 
HETATM    4  C   UNL     1     -42.064  56.581 -58.763  1.00  0.00     0.012 A 
HETATM    5  C   UNL     1     -42.865  57.010 -57.687  1.00  0.00    -0.024 A 
HETATM    6  C   UNL     1     -44.166  57.451 -57.985  1.00  0.00     0.029 A 
ENDROOT
BRANCH   1   7
HETATM    7  C   UNL     1     -46.131  57.610 -59.496  1.00  0.00     0.256 C 
HETATM    8  N   UNL     1     -46.434  58.086 -60.761  1.00  0.00    -0.323 N 
HETATM    9  H   UNL     1     -45.657  58.210 -61.396  1.00  0.00     0.169 HD
HETATM   10  O   UNL     1     -46.913  57.310 -58.605  1.00  0.00    -0.267 OA
BRANCH   8  11
HETATM   11  C   UNL     1     -47.710  58.284 -61.327  1.00  0.00     0.035 A 
HETATM   12  C   UNL     1     -48.450  57.288 -61.958  1.00  0.00     0.030 A 
HETATM   13  C   UNL     1     -49.694  57.582 -62.530  1.00  0.00     0.010 A 
HETATM   14  C   UNL     1     -50.217  58.881 -62.482  1.00  0.00    -0.049 A 
HETATM   15  C   UNL     1     -49.482  59.876 -61.830  1.00  0.00     0.010 A 
HETATM   16  C   UNL     1     -48.241  59.579 -61.259  1.00  0.00     0.030 A 
BRANCH  14  17
HETATM   17  C   UNL     1     -51.556  59.194 -63.102  1.00  0.00     0.149 C 
BRANCH  17  18
HETATM   18  C   UNL     1     -52.448  60.031 -62.212  1.00  0.00     0.263 C 
HETATM   19  O   UNL     1     -52.988  61.086 -62.513  1.00  0.00    -0.265 OA
BRANCH  18  20
HETATM   20  O   UNL     1     -52.627  59.409 -61.004  1.00  0.00    -0.316 OA
BRANCH  20  21
HETATM   21  C   UNL     1     -53.026  60.273 -59.926  1.00  0.00     0.135 C 
HETATM   22  C   UNL     1     -53.832  59.494 -58.887  1.00  0.00     0.060 C 
HETATM   23  C   UNL     1     -54.172  60.373 -57.697  1.00  0.00     0.237 C 
HETATM   24  N   UNL     1     -52.922  60.971 -57.094  1.00  0.00    -0.075 N 
HETATM   25  C   UNL     1     -52.131  60.001 -56.255  1.00  0.00     0.269 C 
HETATM   26  C   UNL     1     -52.089  61.723 -58.103  1.00  0.00     0.237 C 
HETATM   27  H   UNL     1     -53.252  61.681 -56.425  1.00  0.00     0.279 HD
HETATM   28  C   UNL     1     -51.757  60.844 -59.297  1.00  0.00     0.060 C 
ENDBRANCH  20  21
ENDBRANCH  18  20
ENDBRANCH  17  18
ENDBRANCH  14  17
ENDBRANCH   8  11
ENDBRANCH   1   7
BRANCH   5  29
HETATM   29  C   UNL     1     -42.355  56.946 -56.292  1.00  0.00    -0.017 A 
HETATM   30  C   UNL     1     -42.116  55.676 -55.710  1.00  0.00     0.030 A 
HETATM   31  C   UNL     1     -41.690  55.545 -54.380  1.00  0.00     0.033 A 
HETATM   32  C   UNL     1     -41.442  56.686 -53.622  1.00  0.00     0.017 A 
HETATM   33  C   UNL     1     -41.650  57.945 -54.175  1.00  0.00     0.011 A 
HETATM   34  C   UNL     1     -42.154  58.102 -55.484  1.00  0.00    -0.020 A 
BRANCH  31  35
HETATM   35  C   UNL     1     -41.589  54.224 -53.701  1.00  0.00     0.256 C 
HETATM   36  O   UNL     1     -42.510  53.883 -52.967  1.00  0.00    -0.267 OA
HETATM   37  N   UNL     1     -40.440  53.500 -53.951  1.00  0.00    -0.320 N 
HETATM   38  H   UNL     1     -39.680  53.961 -54.439  1.00  0.00     0.169 HD
BRANCH  37  39
HETATM   39  C   UNL     1     -40.155  52.191 -53.488  1.00  0.00     0.076 A 
HETATM   40  C   UNL     1     -40.214  51.049 -54.284  1.00  0.00     0.052 A 
HETATM   41  C   UNL     1     -39.899  49.822 -53.711  1.00  0.00     0.118 A 
HETATM   42  N   UNL     1     -39.534  49.661 -52.420  1.00  0.00    -0.270 NA
HETATM   43  C   UNL     1     -39.479  50.783 -51.668  1.00  0.00     0.160 A 
HETATM   44  C   UNL     1     -39.773  52.044 -52.155  1.00  0.00     0.160 A 
HETATM   45  F   UNL     1     -39.691  53.117 -51.352  1.00  0.00    -0.202 F 
ENDBRANCH  37  39
ENDBRANCH  31  35
BRANCH  34  46
HETATM   46  C   UNL     1     -42.449  59.508 -55.978  1.00  0.00     0.306 C 
BRANCH  46  47
HETATM   47  N   UNL     1     -42.130  60.550 -55.001  1.00  0.00     0.082 N 
HETATM   48  H   UNL     1     -42.939  61.162 -54.903  1.00  0.00     0.313 HD
HETATM   49  H   UNL     1     -41.375  61.127 -55.365  1.00  0.00     0.313 HD
ENDBRANCH  46  47
ENDBRANCH  34  46
ENDBRANCH   5  29
TORSDOF 11
ENDMDL
MODEL 4
REMARK VINA RESULT:      -8.1      4.212      7.189
REMARK  11 active torsions:
REMARK  status: ('A' for Active; 'I' for Inactive)
REMARK    1  A    between atoms: C_6  and  O_9 
REMARK    2  A    between atoms: O_9  and  C_10 
REMARK    3  A    between atoms: C_10  and  C_12 
REMARK    4  A    between atoms: C_12  and  C_13 
REMARK    5  A    between atoms: C_16  and  N_17 
REMARK       I    between atoms: N_17  and  C_18 
REMARK    6  A    between atoms: C_18  and  C_20 
REMARK    7  A    between atoms: C_24  and  C_26 
REMARK    8  A    between atoms: C_28  and  C_34 
REMARK    9  A    between atoms: C_31  and  C_32 
REMARK   10  A    between atoms: C_32  and  N_33 
REMARK       I    between atoms: C_34  and  N_36 
REMARK   11  A    between atoms: N_36  and  C_37 
ROOT
HETATM    1  C   UNL     1     -43.922  56.513 -57.936  1.00  0.00     0.033 A 
HETATM    2  C   UNL     1     -43.871  55.777 -59.123  1.00  0.00     0.017 A 
HETATM    3  C   UNL     1     -44.493  56.276 -60.263  1.00  0.00     0.002 A 
HETATM    4  C   UNL     1     -45.139  57.516 -60.223  1.00  0.00     0.012 A 
HETATM    5  C   UNL     1     -45.225  58.266 -59.034  1.00  0.00    -0.024 A 
HETATM    6  C   UNL     1     -44.647  57.713 -57.878  1.00  0.00     0.029 A 
ENDROOT
BRANCH   1   7
HETATM    7  C   UNL     1     -43.128  56.109 -56.743  1.00  0.00     0.256 C 
HETATM    8  N   UNL     1     -43.334  56.925 -55.643  1.00  0.00    -0.323 N 
HETATM    9  H   UNL     1     -43.989  57.687 -55.761  1.00  0.00     0.169 HD
HETATM   10  O   UNL     1     -42.452  55.091 -56.800  1.00  0.00    -0.267 OA
BRANCH   8  11
HETATM   11  C   UNL     1     -42.856  56.742 -54.329  1.00  0.00     0.035 A 
HETATM   12  C   UNL     1     -41.573  57.084 -53.908  1.00  0.00     0.030 A 
HETATM   13  C   UNL     1     -41.167  56.830 -52.591  1.00  0.00     0.010 A 
HETATM   14  C   UNL     1     -42.038  56.225 -51.676  1.00  0.00    -0.049 A 
HETATM   15  C   UNL     1     -43.332  55.901 -52.095  1.00  0.00     0.010 A 
HETATM   16  C   UNL     1     -43.735  56.157 -53.409  1.00  0.00     0.030 A 
BRANCH  14  17
HETATM   17  C   UNL     1     -41.596  55.951 -50.261  1.00  0.00     0.149 C 
BRANCH  17  18
HETATM   18  C   UNL     1     -40.709  54.732 -50.134  1.00  0.00     0.263 C 
HETATM   19  O   UNL     1     -39.727  54.621 -49.414  1.00  0.00    -0.265 OA
BRANCH  18  20
HETATM   20  O   UNL     1     -41.195  53.712 -50.911  1.00  0.00    -0.316 OA
BRANCH  20  21
HETATM   21  C   UNL     1     -40.277  53.205 -51.896  1.00  0.00     0.135 C 
HETATM   22  C   UNL     1     -39.857  51.777 -51.549  1.00  0.00     0.060 C 
HETATM   23  C   UNL     1     -38.967  51.198 -52.634  1.00  0.00     0.237 C 
HETATM   24  N   UNL     1     -39.648  51.263 -53.981  1.00  0.00    -0.075 N 
HETATM   25  C   UNL     1     -40.709  50.211 -54.175  1.00  0.00     0.269 C 
HETATM   26  C   UNL     1     -40.102  52.658 -54.339  1.00  0.00     0.237 C 
HETATM   27  H   UNL     1     -38.920  51.025 -54.669  1.00  0.00     0.279 HD
HETATM   28  C   UNL     1     -40.985  53.239 -53.249  1.00  0.00     0.060 C 
ENDBRANCH  20  21
ENDBRANCH  18  20
ENDBRANCH  17  18
ENDBRANCH  14  17
ENDBRANCH   8  11
ENDBRANCH   1   7
BRANCH   5  29
HETATM   29  C   UNL     1     -45.863  59.608 -59.031  1.00  0.00    -0.017 A 
HETATM   30  C   UNL     1     -47.223  59.717 -58.645  1.00  0.00     0.030 A 
HETATM   31  C   UNL     1     -47.901  60.944 -58.676  1.00  0.00     0.033 A 
HETATM   32  C   UNL     1     -47.215  62.098 -59.043  1.00  0.00     0.017 A 
HETATM   33  C   UNL     1     -45.875  62.024 -59.408  1.00  0.00     0.011 A 
HETATM   34  C   UNL     1     -45.193  60.789 -59.461  1.00  0.00    -0.020 A 
BRANCH  31  35
HETATM   35  C   UNL     1     -49.365  61.054 -58.431  1.00  0.00     0.256 C 
HETATM   36  O   UNL     1     -50.052  61.595 -59.289  1.00  0.00    -0.267 OA
HETATM   37  N   UNL     1     -49.820  60.541 -57.232  1.00  0.00    -0.320 N 
HETATM   38  H   UNL     1     -49.133  60.271 -56.535  1.00  0.00     0.169 HD
BRANCH  37  39
HETATM   39  C   UNL     1     -51.171  60.456 -56.813  1.00  0.00     0.076 A 
HETATM   40  C   UNL     1     -52.174  59.807 -57.531  1.00  0.00     0.052 A 
HETATM   41  C   UNL     1     -53.460  59.785 -57.005  1.00  0.00     0.118 A 
HETATM   42  N   UNL     1     -53.808  60.356 -55.830  1.00  0.00    -0.270 NA
HETATM   43  C   UNL     1     -52.818  60.975 -55.149  1.00  0.00     0.160 A 
HETATM   44  C   UNL     1     -51.510  61.045 -55.595  1.00  0.00     0.160 A 
HETATM   45  F   UNL     1     -50.576  61.672 -54.863  1.00  0.00    -0.202 F 
ENDBRANCH  37  39
ENDBRANCH  31  35
BRANCH  34  46
HETATM   46  C   UNL     1     -43.761  60.780 -59.967  1.00  0.00     0.306 C 
BRANCH  46  47
HETATM   47  N   UNL     1     -43.652  60.572 -61.413  1.00  0.00     0.082 N 
HETATM   48  H   UNL     1     -43.697  59.571 -61.601  1.00  0.00     0.313 HD
HETATM   49  H   UNL     1     -42.734  60.883 -61.725  1.00  0.00     0.313 HD
ENDBRANCH  46  47
ENDBRANCH  34  46
ENDBRANCH   5  29
TORSDOF 11
ENDMDL
MODEL 5
REMARK VINA RESULT:      -8.1      6.758     10.701
REMARK  11 active torsions:
REMARK  status: ('A' for Active; 'I' for Inactive)
REMARK    1  A    between atoms: C_6  and  O_9 
REMARK    2  A    between atoms: O_9  and  C_10 
REMARK    3  A    between atoms: C_10  and  C_12 
REMARK    4  A    between atoms: C_12  and  C_13 
REMARK    5  A    between atoms: C_16  and  N_17 
REMARK       I    between atoms: N_17  and  C_18 
REMARK    6  A    between atoms: C_18  and  C_20 
REMARK    7  A    between atoms: C_24  and  C_26 
REMARK    8  A    between atoms: C_28  and  C_34 
REMARK    9  A    between atoms: C_31  and  C_32 
REMARK   10  A    between atoms: C_32  and  N_33 
REMARK       I    between atoms: C_34  and  N_36 
REMARK   11  A    between atoms: N_36  and  C_37 
ROOT
HETATM    1  C   UNL     1     -43.363  62.101 -50.541  1.00  0.00     0.033 A 
HETATM    2  C   UNL     1     -42.560  63.193 -50.201  1.00  0.00     0.017 A 
HETATM    3  C   UNL     1     -43.158  64.378 -49.783  1.00  0.00     0.002 A 
HETATM    4  C   UNL     1     -44.550  64.461 -49.680  1.00  0.00     0.012 A 
HETATM    5  C   UNL     1     -45.383  63.383 -50.039  1.00  0.00    -0.024 A 
HETATM    6  C   UNL     1     -44.761  62.218 -50.521  1.00  0.00     0.029 A 
ENDROOT
BRANCH   1   7
HETATM    7  C   UNL     1     -42.769  60.765 -50.823  1.00  0.00     0.256 C 
HETATM    8  N   UNL     1     -43.253  60.183 -51.983  1.00  0.00    -0.323 N 
HETATM    9  H   UNL     1     -43.937  60.714 -52.505  1.00  0.00     0.169 HD
HETATM   10  O   UNL     1     -41.886  60.344 -50.090  1.00  0.00    -0.267 OA
BRANCH   8  11
HETATM   11  C   UNL     1     -42.804  59.001 -52.609  1.00  0.00     0.035 A 
HETATM   12  C   UNL     1     -43.494  57.792 -52.586  1.00  0.00     0.030 A 
HETATM   13  C   UNL     1     -42.955  56.655 -53.201  1.00  0.00     0.010 A 
HETATM   14  C   UNL     1     -41.713  56.710 -53.847  1.00  0.00    -0.049 A 
HETATM   15  C   UNL     1     -41.031  57.931 -53.888  1.00  0.00     0.010 A 
HETATM   16  C   UNL     1     -41.573  59.063 -53.273  1.00  0.00     0.030 A 
BRANCH  14  17
HETATM   17  C   UNL     1     -41.135  55.483 -54.506  1.00  0.00     0.149 C 
BRANCH  17  18
HETATM   18  C   UNL     1     -42.185  54.489 -54.949  1.00  0.00     0.263 C 
HETATM   19  O   UNL     1     -42.935  54.605 -55.908  1.00  0.00    -0.265 OA
BRANCH  18  20
HETATM   20  O   UNL     1     -42.150  53.377 -54.148  1.00  0.00    -0.316 OA
BRANCH  20  21
HETATM   21  C   UNL     1     -40.869  53.086 -53.563  1.00  0.00     0.135 C 
HETATM   22  C   UNL     1     -40.949  53.159 -52.039  1.00  0.00     0.060 C 
HETATM   23  C   UNL     1     -39.627  52.756 -51.409  1.00  0.00     0.237 C 
HETATM   24  N   UNL     1     -39.204  51.383 -51.877  1.00  0.00    -0.075 N 
HETATM   25  C   UNL     1     -39.956  50.259 -51.214  1.00  0.00     0.269 C 
HETATM   26  C   UNL     1     -39.144  51.271 -53.381  1.00  0.00     0.237 C 
HETATM   27  H   UNL     1     -38.233  51.270 -51.554  1.00  0.00     0.279 HD
HETATM   28  C   UNL     1     -40.464  51.683 -54.010  1.00  0.00     0.060 C 
ENDBRANCH  20  21
ENDBRANCH  18  20
ENDBRANCH  17  18
ENDBRANCH  14  17
ENDBRANCH   8  11
ENDBRANCH   1   7
BRANCH   5  29
HETATM   29  C   UNL     1     -46.856  63.474 -49.863  1.00  0.00    -0.017 A 
HETATM   30  C   UNL     1     -47.684  63.447 -51.013  1.00  0.00     0.030 A 
HETATM   31  C   UNL     1     -49.076  63.587 -50.921  1.00  0.00     0.033 A 
HETATM   32  C   UNL     1     -49.674  63.703 -49.668  1.00  0.00     0.017 A 
HETATM   33  C   UNL     1     -48.886  63.713 -48.522  1.00  0.00     0.011 A 
HETATM   34  C   UNL     1     -47.478  63.654 -48.594  1.00  0.00    -0.020 A 
BRANCH  31  35
HETATM   35  C   UNL     1     -49.947  63.723 -52.120  1.00  0.00     0.256 C 
HETATM   36  O   UNL     1     -49.837  64.739 -52.798  1.00  0.00    -0.267 OA
HETATM   37  N   UNL     1     -50.824  62.682 -52.355  1.00  0.00    -0.320 N 
HETATM   38  H   UNL     1     -50.937  61.979 -51.632  1.00  0.00     0.169 HD
BRANCH  37  39
HETATM   39  C   UNL     1     -51.687  62.546 -53.470  1.00  0.00     0.076 A 
HETATM   40  C   UNL     1     -51.351  61.875 -54.645  1.00  0.00     0.052 A 
HETATM   41  C   UNL     1     -52.293  61.803 -55.663  1.00  0.00     0.118 A 
HETATM   42  N   UNL     1     -53.530  62.345 -55.590  1.00  0.00    -0.270 NA
HETATM   43  C   UNL     1     -53.836  62.987 -54.440  1.00  0.00     0.160 A 
HETATM   44  C   UNL     1     -52.961  63.106 -53.375  1.00  0.00     0.160 A 
HETATM   45  F   UNL     1     -53.335  63.753 -52.260  1.00  0.00    -0.202 F 
ENDBRANCH  37  39
ENDBRANCH  31  35
BRANCH  34  46
HETATM   46  C   UNL     1     -46.686  63.773 -47.303  1.00  0.00     0.306 C 
BRANCH  46  47
HETATM   47  N   UNL     1     -47.201  62.931 -46.222  1.00  0.00     0.082 N 
HETATM   48  H   UNL     1     -47.907  63.457 -45.708  1.00  0.00     0.313 HD
HETATM   49  H   UNL     1     -46.449  62.740 -45.563  1.00  0.00     0.313 HD
ENDBRANCH  46  47
ENDBRANCH  34  46
ENDBRANCH   5  29
TORSDOF 11
ENDMDL
MODEL 6
REMARK VINA RESULT:      -7.9      5.770     10.205
REMARK  11 active torsions:
REMARK  status: ('A' for Active; 'I' for Inactive)
REMARK    1  A    between atoms: C_6  and  O_9 
REMARK    2  A    between atoms: O_9  and  C_10 
REMARK    3  A    between atoms: C_10  and  C_12 
REMARK    4  A    between atoms: C_12  and  C_13 
REMARK    5  A    between atoms: C_16  and  N_17 
REMARK       I    between atoms: N_17  and  C_18 
REMARK    6  A    between atoms: C_18  and  C_20 
REMARK    7  A    between atoms: C_24  and  C_26 
REMARK    8  A    between atoms: C_28  and  C_34 
REMARK    9  A    between atoms: C_31  and  C_32 
REMARK   10  A    between atoms: C_32  and  N_33 
REMARK       I    between atoms: C_34  and  N_36 
REMARK   11  A    between atoms: N_36  and  C_37 
ROOT
HETATM    1  C   UNL     1     -42.950  60.022 -51.035  1.00  0.00     0.033 A 
HETATM    2  C   UNL     1     -41.816  60.065 -50.220  1.00  0.00     0.017 A 
HETATM    3  C   UNL     1     -40.948  58.978 -50.198  1.00  0.00     0.002 A 
HETATM    4  C   UNL     1     -41.199  57.865 -51.008  1.00  0.00     0.012 A 
HETATM    5  C   UNL     1     -42.347  57.787 -51.821  1.00  0.00    -0.024 A 
HETATM    6  C   UNL     1     -43.244  58.868 -51.777  1.00  0.00     0.029 A 
ENDROOT
BRANCH   1   7
HETATM    7  C   UNL     1     -43.810  61.223 -51.225  1.00  0.00     0.256 C 
HETATM    8  N   UNL     1     -45.044  60.933 -51.782  1.00  0.00    -0.323 N 
HETATM    9  H   UNL     1     -45.229  59.961 -51.991  1.00  0.00     0.169 HD
HETATM   10  O   UNL     1     -43.410  62.306 -50.820  1.00  0.00    -0.267 OA
BRANCH   8  11
HETATM   11  C   UNL     1     -46.138  61.805 -51.961  1.00  0.00     0.035 A 
HETATM   12  C   UNL     1     -46.710  62.563 -50.943  1.00  0.00     0.030 A 
HETATM   13  C   UNL     1     -47.822  63.375 -51.200  1.00  0.00     0.010 A 
HETATM   14  C   UNL     1     -48.383  63.436 -52.483  1.00  0.00    -0.049 A 
HETATM   15  C   UNL     1     -47.795  62.689 -53.509  1.00  0.00     0.010 A 
HETATM   16  C   UNL     1     -46.684  61.882 -53.248  1.00  0.00     0.030 A 
BRANCH  14  17
HETATM   17  C   UNL     1     -49.582  64.308 -52.756  1.00  0.00     0.149 C 
BRANCH  17  18
HETATM   18  C   UNL     1     -50.901  63.596 -52.556  1.00  0.00     0.263 C 
HETATM   19  O   UNL     1     -51.243  62.968 -51.563  1.00  0.00    -0.265 OA
BRANCH  18  20
HETATM   20  O   UNL     1     -51.716  63.797 -53.640  1.00  0.00    -0.316 OA
BRANCH  20  21
HETATM   21  C   UNL     1     -52.626  62.721 -53.927  1.00  0.00     0.135 C 
HETATM   22  C   UNL     1     -53.823  63.234 -54.728  1.00  0.00     0.060 C 
HETATM   23  C   UNL     1     -54.739  62.089 -55.121  1.00  0.00     0.237 C 
HETATM   24  N   UNL     1     -53.978  61.027 -55.880  1.00  0.00    -0.075 N 
HETATM   25  C   UNL     1     -53.689  61.395 -57.312  1.00  0.00     0.269 C 
HETATM   26  C   UNL     1     -52.772  60.521 -55.126  1.00  0.00     0.237 C 
HETATM   27  H   UNL     1     -54.619  60.223 -55.945  1.00  0.00     0.279 HD
HETATM   28  C   UNL     1     -51.861  61.668 -54.726  1.00  0.00     0.060 C 
ENDBRANCH  20  21
ENDBRANCH  18  20
ENDBRANCH  17  18
ENDBRANCH  14  17
ENDBRANCH   8  11
ENDBRANCH   1   7
BRANCH   5  29
HETATM   29  C   UNL     1     -42.560  56.621 -52.718  1.00  0.00    -0.017 A 
HETATM   30  C   UNL     1     -42.508  56.821 -54.120  1.00  0.00     0.030 A 
HETATM   31  C   UNL     1     -42.757  55.776 -55.022  1.00  0.00     0.033 A 
HETATM   32  C   UNL     1     -43.011  54.496 -54.536  1.00  0.00     0.017 A 
HETATM   33  C   UNL     1     -43.049  54.268 -53.165  1.00  0.00     0.011 A 
HETATM   34  C   UNL     1     -42.880  55.319 -52.238  1.00  0.00    -0.020 A 
BRANCH  31  35
HETATM   35  C   UNL     1     -42.866  55.996 -56.490  1.00  0.00     0.256 C 
HETATM   36  O   UNL     1     -43.043  55.018 -57.206  1.00  0.00    -0.267 OA
HETATM   37  N   UNL     1     -42.742  57.304 -56.918  1.00  0.00    -0.320 N 
HETATM   38  H   UNL     1     -42.432  58.000 -56.248  1.00  0.00     0.169 HD
BRANCH  37  39
HETATM   39  C   UNL     1     -42.892  57.770 -58.247  1.00  0.00     0.076 A 
HETATM   40  C   UNL     1     -41.830  58.014 -59.116  1.00  0.00     0.052 A 
HETATM   41  C   UNL     1     -42.111  58.460 -60.402  1.00  0.00     0.118 A 
HETATM   42  N   UNL     1     -43.360  58.674 -60.873  1.00  0.00    -0.270 NA
HETATM   43  C   UNL     1     -44.375  58.426 -60.014  1.00  0.00     0.160 A 
HETATM   44  C   UNL     1     -44.188  57.979 -58.719  1.00  0.00     0.160 A 
HETATM   45  F   UNL     1     -45.243  57.747 -57.923  1.00  0.00    -0.202 F 
ENDBRANCH  37  39
ENDBRANCH  31  35
BRANCH  34  46
HETATM   46  C   UNL     1     -43.036  55.007 -50.760  1.00  0.00     0.306 C 
BRANCH  46  47
HETATM   47  N   UNL     1     -44.410  54.678 -50.373  1.00  0.00     0.082 N 
HETATM   48  H   UNL     1     -44.797  55.464 -49.852  1.00  0.00     0.313 HD
HETATM   49  H   UNL     1     -44.394  53.887 -49.733  1.00  0.00     0.313 HD
ENDBRANCH  46  47
ENDBRANCH  34  46
ENDBRANCH   5  29
TORSDOF 11
ENDMDL
MODEL 7
REMARK VINA RESULT:      -7.7      2.814      5.803
REMARK  11 active torsions:
REMARK  status: ('A' for Active; 'I' for Inactive)
REMARK    1  A    between atoms: C_6  and  O_9 
REMARK    2  A    between atoms: O_9  and  C_10 
REMARK    3  A    between atoms: C_10  and  C_12 
REMARK    4  A    between atoms: C_12  and  C_13 
REMARK    5  A    between atoms: C_16  and  N_17 
REMARK       I    between atoms: N_17  and  C_18 
REMARK    6  A    between atoms: C_18  and  C_20 
REMARK    7  A    between atoms: C_24  and  C_26 
REMARK    8  A    between atoms: C_28  and  C_34 
REMARK    9  A    between atoms: C_31  and  C_32 
REMARK   10  A    between atoms: C_32  and  N_33 
REMARK       I    between atoms: C_34  and  N_36 
REMARK   11  A    between atoms: N_36  and  C_37 
ROOT
HETATM    1  C   UNL     1     -43.708  56.330 -58.079  1.00  0.00     0.033 A 
HETATM    2  C   UNL     1     -43.719  55.164 -58.849  1.00  0.00     0.017 A 
HETATM    3  C   UNL     1     -44.131  55.225 -60.176  1.00  0.00     0.002 A 
HETATM    4  C   UNL     1     -44.505  56.451 -60.738  1.00  0.00     0.012 A 
HETATM    5  C   UNL     1     -44.525  57.637 -59.977  1.00  0.00    -0.024 A 
HETATM    6  C   UNL     1     -44.168  57.541 -58.621  1.00  0.00     0.029 A 
ENDROOT
BRANCH   1   7
HETATM    7  C   UNL     1     -43.112  56.348 -56.715  1.00  0.00     0.256 C 
HETATM    8  N   UNL     1     -43.217  55.137 -56.052  1.00  0.00    -0.323 N 
HETATM    9  H   UNL     1     -43.671  54.385 -56.554  1.00  0.00     0.169 HD
HETATM   10  O   UNL     1     -42.533  57.357 -56.336  1.00  0.00    -0.267 OA
BRANCH   8  11
HETATM   11  C   UNL     1     -42.640  54.773 -54.818  1.00  0.00     0.035 A 
HETATM   12  C   UNL     1     -41.273  54.598 -54.614  1.00  0.00     0.030 A 
HETATM   13  C   UNL     1     -40.788  54.196 -53.363  1.00  0.00     0.010 A 
HETATM   14  C   UNL     1     -41.665  53.958 -52.296  1.00  0.00    -0.049 A 
HETATM   15  C   UNL     1     -43.035  54.154 -52.497  1.00  0.00     0.010 A 
HETATM   16  C   UNL     1     -43.515  54.556 -53.747  1.00  0.00     0.030 A 
BRANCH  14  17
HETATM   17  C   UNL     1     -41.138  53.523 -50.952  1.00  0.00     0.149 C 
BRANCH  17  18
HETATM   18  C   UNL     1     -41.074  54.645 -49.940  1.00  0.00     0.263 C 
HETATM   19  O   UNL     1     -41.397  54.579 -48.763  1.00  0.00    -0.265 OA
BRANCH  18  20
HETATM   20  O   UNL     1     -40.536  55.767 -50.514  1.00  0.00    -0.316 OA
BRANCH  20  21
HETATM   21  C   UNL     1     -41.257  56.987 -50.262  1.00  0.00     0.135 C 
HETATM   22  C   UNL     1     -40.323  58.192 -50.372  1.00  0.00     0.060 C 
HETATM   23  C   UNL     1     -41.094  59.489 -50.206  1.00  0.00     0.237 C 
HETATM   24  N   UNL     1     -42.228  59.573 -51.202  1.00  0.00    -0.075 N 
HETATM   25  C   UNL     1     -41.782  59.921 -52.598  1.00  0.00     0.269 C 
HETATM   26  C   UNL     1     -43.151  58.381 -51.137  1.00  0.00     0.237 C 
HETATM   27  H   UNL     1     -42.795  60.379 -50.904  1.00  0.00     0.279 HD
HETATM   28  C   UNL     1     -42.378  57.084 -51.295  1.00  0.00     0.060 C 
ENDBRANCH  20  21
ENDBRANCH  18  20
ENDBRANCH  17  18
ENDBRANCH  14  17
ENDBRANCH   8  11
ENDBRANCH   1   7
BRANCH   5  29
HETATM   29  C   UNL     1     -44.866  58.937 -60.612  1.00  0.00    -0.017 A 
HETATM   30  C   UNL     1     -46.232  59.279 -60.773  1.00  0.00     0.030 A 
HETATM   31  C   UNL     1     -46.623  60.463 -61.415  1.00  0.00     0.033 A 
HETATM   32  C   UNL     1     -45.651  61.355 -61.862  1.00  0.00     0.017 A 
HETATM   33  C   UNL     1     -44.303  61.053 -61.698  1.00  0.00     0.011 A 
HETATM   34  C   UNL     1     -43.886  59.832 -61.127  1.00  0.00    -0.020 A 
BRANCH  31  35
HETATM   35  C   UNL     1     -48.044  60.765 -61.739  1.00  0.00     0.256 C 
HETATM   36  O   UNL     1     -48.286  61.796 -62.354  1.00  0.00    -0.267 OA
HETATM   37  N   UNL     1     -48.976  59.847 -61.294  1.00  0.00    -0.320 N 
HETATM   38  H   UNL     1     -48.667  59.124 -60.652  1.00  0.00     0.169 HD
BRANCH  37  39
HETATM   39  C   UNL     1     -50.369  59.874 -61.549  1.00  0.00     0.076 A 
HETATM   40  C   UNL     1     -50.979  59.249 -62.635  1.00  0.00     0.052 A 
HETATM   41  C   UNL     1     -52.359  59.341 -62.767  1.00  0.00     0.118 A 
HETATM   42  N   UNL     1     -53.160  60.002 -61.901  1.00  0.00    -0.270 NA
HETATM   43  C   UNL     1     -52.547  60.597 -60.853  1.00  0.00     0.160 A 
HETATM   44  C   UNL     1     -51.181  60.555 -60.642  1.00  0.00     0.160 A 
HETATM   45  F   UNL     1     -50.641  61.164 -59.575  1.00  0.00    -0.202 F 
ENDBRANCH  37  39
ENDBRANCH  31  35
BRANCH  34  46
HETATM   46  C   UNL     1     -42.397  59.533 -61.077  1.00  0.00     0.306 C 
BRANCH  46  47
HETATM   47  N   UNL     1     -41.577  60.530 -61.768  1.00  0.00     0.082 N 
HETATM   48  H   UNL     1     -41.803  61.451 -61.395  1.00  0.00     0.313 HD
HETATM   49  H   UNL     1     -41.835  60.547 -62.753  1.00  0.00     0.313 HD
ENDBRANCH  46  47
ENDBRANCH  34  46
ENDBRANCH   5  29
TORSDOF 11
ENDMDL
MODEL 8
REMARK VINA RESULT:      -7.7      5.091     12.194
REMARK  11 active torsions:
REMARK  status: ('A' for Active; 'I' for Inactive)
REMARK    1  A    between atoms: C_6  and  O_9 
REMARK    2  A    between atoms: O_9  and  C_10 
REMARK    3  A    between atoms: C_10  and  C_12 
REMARK    4  A    between atoms: C_12  and  C_13 
REMARK    5  A    between atoms: C_16  and  N_17 
REMARK       I    between atoms: N_17  and  C_18 
REMARK    6  A    between atoms: C_18  and  C_20 
REMARK    7  A    between atoms: C_24  and  C_26 
REMARK    8  A    between atoms: C_28  and  C_34 
REMARK    9  A    between atoms: C_31  and  C_32 
REMARK   10  A    between atoms: C_32  and  N_33 
REMARK       I    between atoms: C_34  and  N_36 
REMARK   11  A    between atoms: N_36  and  C_37 
ROOT
HETATM    1  C   UNL     1     -44.883  58.737 -55.574  1.00  0.00     0.033 A 
HETATM    2  C   UNL     1     -45.475  59.903 -55.083  1.00  0.00     0.017 A 
HETATM    3  C   UNL     1     -45.179  60.329 -53.792  1.00  0.00     0.002 A 
HETATM    4  C   UNL     1     -44.274  59.606 -53.007  1.00  0.00     0.012 A 
HETATM    5  C   UNL     1     -43.682  58.415 -53.470  1.00  0.00    -0.024 A 
HETATM    6  C   UNL     1     -44.046  57.968 -54.752  1.00  0.00     0.029 A 
ENDROOT
BRANCH   1   7
HETATM    7  C   UNL     1     -45.031  58.339 -57.002  1.00  0.00     0.256 C 
HETATM    8  N   UNL     1     -46.340  58.382 -57.452  1.00  0.00    -0.323 N 
HETATM    9  H   UNL     1     -47.039  58.676 -56.783  1.00  0.00     0.169 HD
HETATM   10  O   UNL     1     -44.026  58.095 -57.654  1.00  0.00    -0.267 OA
BRANCH   8  11
HETATM   11  C   UNL     1     -46.806  58.207 -58.771  1.00  0.00     0.035 A 
HETATM   12  C   UNL     1     -47.198  59.248 -59.608  1.00  0.00     0.030 A 
HETATM   13  C   UNL     1     -47.688  58.981 -60.893  1.00  0.00     0.010 A 
HETATM   14  C   UNL     1     -47.798  57.664 -61.359  1.00  0.00    -0.049 A 
HETATM   15  C   UNL     1     -47.384  56.620 -60.525  1.00  0.00     0.010 A 
HETATM   16  C   UNL     1     -46.894  56.891 -59.244  1.00  0.00     0.030 A 
BRANCH  14  17
HETATM   17  C   UNL     1     -48.328  57.381 -62.742  1.00  0.00     0.149 C 
BRANCH  17  18
HETATM   18  C   UNL     1     -49.470  58.287 -63.144  1.00  0.00     0.263 C 
HETATM   19  O   UNL     1     -49.448  59.132 -64.028  1.00  0.00    -0.265 OA
BRANCH  18  20
HETATM   20  O   UNL     1     -50.588  57.994 -62.408  1.00  0.00    -0.316 OA
BRANCH  20  21
HETATM   21  C   UNL     1     -51.533  59.071 -62.278  1.00  0.00     0.135 C 
HETATM   22  C   UNL     1     -52.890  58.539 -61.818  1.00  0.00     0.060 C 
HETATM   23  C   UNL     1     -53.865  59.678 -61.582  1.00  0.00     0.237 C 
HETATM   24  N   UNL     1     -53.299  60.677 -60.599  1.00  0.00    -0.075 N 
HETATM   25  C   UNL     1     -53.362  60.217 -59.166  1.00  0.00     0.269 C 
HETATM   26  C   UNL     1     -51.944  61.199 -61.011  1.00  0.00     0.237 C 
HETATM   27  H   UNL     1     -53.931  61.489 -60.638  1.00  0.00     0.279 HD
HETATM   28  C   UNL     1     -50.973  60.058 -61.255  1.00  0.00     0.060 C 
ENDBRANCH  20  21
ENDBRANCH  18  20
ENDBRANCH  17  18
ENDBRANCH  14  17
ENDBRANCH   8  11
ENDBRANCH   1   7
BRANCH   5  29
HETATM   29  C   UNL     1     -42.677  57.698 -52.641  1.00  0.00    -0.017 A 
HETATM   30  C   UNL     1     -42.522  56.301 -52.814  1.00  0.00     0.030 A 
HETATM   31  C   UNL     1     -41.634  55.556 -52.024  1.00  0.00     0.033 A 
HETATM   32  C   UNL     1     -40.844  56.206 -51.080  1.00  0.00     0.017 A 
HETATM   33  C   UNL     1     -40.962  57.580 -50.903  1.00  0.00     0.011 A 
HETATM   34  C   UNL     1     -41.905  58.338 -51.630  1.00  0.00    -0.020 A 
BRANCH  31  35
HETATM   35  C   UNL     1     -41.572  54.069 -52.077  1.00  0.00     0.256 C 
HETATM   36  O   UNL     1     -42.545  53.439 -51.679  1.00  0.00    -0.267 OA
HETATM   37  N   UNL     1     -40.398  53.528 -52.564  1.00  0.00    -0.320 N 
HETATM   38  H   UNL     1     -39.607  54.148 -52.703  1.00  0.00     0.169 HD
BRANCH  37  39
HETATM   39  C   UNL     1     -40.135  52.154 -52.786  1.00  0.00     0.076 A 
HETATM   40  C   UNL     1     -40.173  51.540 -54.036  1.00  0.00     0.052 A 
HETATM   41  C   UNL     1     -39.884  50.184 -54.121  1.00  0.00     0.118 A 
HETATM   42  N   UNL     1     -39.564  49.410 -53.060  1.00  0.00    -0.270 NA
HETATM   43  C   UNL     1     -39.529  50.027 -51.858  1.00  0.00     0.160 A 
HETATM   44  C   UNL     1     -39.800  51.372 -51.680  1.00  0.00     0.160 A 
HETATM   45  F   UNL     1     -39.741  51.919 -50.456  1.00  0.00    -0.202 F 
ENDBRANCH  37  39
ENDBRANCH  31  35
BRANCH  34  46
HETATM   46  C   UNL     1     -42.042  59.816 -51.305  1.00  0.00     0.306 C 
BRANCH  46  47
HETATM   47  N   UNL     1     -42.437  60.077 -49.920  1.00  0.00     0.082 N 
HETATM   48  H   UNL     1     -43.275  59.535 -49.714  1.00  0.00     0.313 HD
HETATM   49  H   UNL     1     -42.696  61.056 -49.827  1.00  0.00     0.313 HD
ENDBRANCH  46  47
ENDBRANCH  34  46
ENDBRANCH   5  29
TORSDOF 11
ENDMDL
MODEL 9
REMARK VINA RESULT:      -7.7      3.334     11.549
REMARK  11 active torsions:
REMARK  status: ('A' for Active; 'I' for Inactive)
REMARK    1  A    between atoms: C_6  and  O_9 
REMARK    2  A    between atoms: O_9  and  C_10 
REMARK    3  A    between atoms: C_10  and  C_12 
REMARK    4  A    between atoms: C_12  and  C_13 
REMARK    5  A    between atoms: C_16  and  N_17 
REMARK       I    between atoms: N_17  and  C_18 
REMARK    6  A    between atoms: C_18  and  C_20 
REMARK    7  A    between atoms: C_24  and  C_26 
REMARK    8  A    between atoms: C_28  and  C_34 
REMARK    9  A    between atoms: C_31  and  C_32 
REMARK   10  A    between atoms: C_32  and  N_33 
REMARK       I    between atoms: C_34  and  N_36 
REMARK   11  A    between atoms: N_36  and  C_37 
ROOT
HETATM    1  C   UNL     1     -43.813  59.723 -55.443  1.00  0.00     0.033 A 
HETATM    2  C   UNL     1     -45.070  60.097 -54.960  1.00  0.00     0.017 A 
HETATM    3  C   UNL     1     -45.469  59.676 -53.695  1.00  0.00     0.002 A 
HETATM    4  C   UNL     1     -44.605  58.909 -52.907  1.00  0.00     0.012 A 
HETATM    5  C   UNL     1     -43.342  58.499 -53.379  1.00  0.00    -0.024 A 
HETATM    6  C   UNL     1     -42.986  58.879 -54.685  1.00  0.00     0.029 A 
ENDROOT
BRANCH   1   7
HETATM    7  C   UNL     1     -43.273  60.290 -56.709  1.00  0.00     0.256 C 
HETATM    8  N   UNL     1     -43.566  59.523 -57.824  1.00  0.00    -0.323 N 
HETATM    9  H   UNL     1     -44.107  58.683 -57.666  1.00  0.00     0.169 HD
HETATM   10  O   UNL     1     -42.711  61.376 -56.678  1.00  0.00    -0.267 OA
BRANCH   8  11
HETATM   11  C   UNL     1     -43.332  59.840 -59.178  1.00  0.00     0.035 A 
HETATM   12  C   UNL     1     -42.149  59.556 -59.856  1.00  0.00     0.030 A 
HETATM   13  C   UNL     1     -41.985  59.944 -61.192  1.00  0.00     0.010 A 
HETATM   14  C   UNL     1     -43.003  60.627 -61.870  1.00  0.00    -0.049 A 
HETATM   15  C   UNL     1     -44.199  60.893 -61.195  1.00  0.00     0.010 A 
HETATM   16  C   UNL     1     -44.359  60.504 -59.862  1.00  0.00     0.030 A 
BRANCH  14  17
HETATM   17  C   UNL     1     -42.822  61.045 -63.308  1.00  0.00     0.149 C 
BRANCH  17  18
HETATM   18  C   UNL     1     -42.526  62.519 -63.472  1.00  0.00     0.263 C 
HETATM   19  O   UNL     1     -43.343  63.428 -63.462  1.00  0.00    -0.265 OA
BRANCH  18  20
HETATM   20  O   UNL     1     -41.174  62.720 -63.579  1.00  0.00    -0.316 OA
BRANCH  20  21
HETATM   21  C   UNL     1     -40.627  63.690 -62.668  1.00  0.00     0.135 C 
HETATM   22  C   UNL     1     -41.433  63.717 -61.370  1.00  0.00     0.060 C 
HETATM   23  C   UNL     1     -40.804  64.666 -60.365  1.00  0.00     0.237 C 
HETATM   24  N   UNL     1     -39.359  64.304 -60.113  1.00  0.00    -0.075 N 
HETATM   25  C   UNL     1     -39.182  63.107 -59.217  1.00  0.00     0.269 C 
HETATM   26  C   UNL     1     -38.543  64.240 -61.382  1.00  0.00     0.237 C 
HETATM   27  H   UNL     1     -38.969  65.090 -59.574  1.00  0.00     0.279 HD
HETATM   28  C   UNL     1     -39.178  63.297 -62.389  1.00  0.00     0.060 C 
ENDBRANCH  20  21
ENDBRANCH  18  20
ENDBRANCH  17  18
ENDBRANCH  14  17
ENDBRANCH   8  11
ENDBRANCH   1   7
BRANCH   5  29
HETATM   29  C   UNL     1     -42.417  57.736 -52.501  1.00  0.00    -0.017 A 
HETATM   30  C   UNL     1     -42.299  56.336 -52.687  1.00  0.00     0.030 A 
HETATM   31  C   UNL     1     -41.489  55.549 -51.856  1.00  0.00     0.033 A 
HETATM   32  C   UNL     1     -40.738  56.158 -50.853  1.00  0.00     0.017 A 
HETATM   33  C   UNL     1     -40.821  57.532 -50.661  1.00  0.00     0.011 A 
HETATM   34  C   UNL     1     -41.689  58.334 -51.433  1.00  0.00    -0.020 A 
BRANCH  31  35
HETATM   35  C   UNL     1     -41.474  54.063 -51.930  1.00  0.00     0.256 C 
HETATM   36  O   UNL     1     -42.525  53.467 -51.728  1.00  0.00    -0.267 OA
HETATM   37  N   UNL     1     -40.252  53.481 -52.208  1.00  0.00    -0.320 N 
HETATM   38  H   UNL     1     -39.426  54.070 -52.188  1.00  0.00     0.169 HD
BRANCH  37  39
HETATM   39  C   UNL     1     -40.005  52.101 -52.409  1.00  0.00     0.076 A 
HETATM   40  C   UNL     1     -39.743  51.194 -51.383  1.00  0.00     0.052 A 
HETATM   41  C   UNL     1     -39.529  49.861 -51.712  1.00  0.00     0.118 A 
HETATM   42  N   UNL     1     -39.558  49.379 -52.974  1.00  0.00    -0.270 NA
HETATM   43  C   UNL     1     -39.818  50.275 -53.953  1.00  0.00     0.160 A 
HETATM   44  C   UNL     1     -40.046  51.619 -53.717  1.00  0.00     0.160 A 
HETATM   45  F   UNL     1     -40.305  52.451 -54.738  1.00  0.00    -0.202 F 
ENDBRANCH  37  39
ENDBRANCH  31  35
BRANCH  34  46
HETATM   46  C   UNL     1     -41.797  59.811 -51.093  1.00  0.00     0.306 C 
BRANCH  46  47
HETATM   47  N   UNL     1     -42.548  60.075 -49.865  1.00  0.00     0.082 N 
HETATM   48  H   UNL     1     -42.431  61.057 -49.617  1.00  0.00     0.313 HD
HETATM   49  H   UNL     1     -42.140  59.536 -49.104  1.00  0.00     0.313 HD
ENDBRANCH  46  47
ENDBRANCH  34  46
ENDBRANCH   5  29
TORSDOF 11
ENDMDL
MODEL 10
REMARK VINA RESULT:      -7.6      3.550      6.832
REMARK  11 active torsions:
REMARK  status: ('A' for Active; 'I' for Inactive)
REMARK    1  A    between atoms: C_6  and  O_9 
REMARK    2  A    between atoms: O_9  and  C_10 
REMARK    3  A    between atoms: C_10  and  C_12 
REMARK    4  A    between atoms: C_12  and  C_13 
REMARK    5  A    between atoms: C_16  and  N_17 
REMARK       I    between atoms: N_17  and  C_18 
REMARK    6  A    between atoms: C_18  and  C_20 
REMARK    7  A    between atoms: C_24  and  C_26 
REMARK    8  A    between atoms: C_28  and  C_34 
REMARK    9  A    between atoms: C_31  and  C_32 
REMARK   10  A    between atoms: C_32  and  N_33 
REMARK       I    between atoms: C_34  and  N_36 
REMARK   11  A    between atoms: N_36  and  C_37 
ROOT
HETATM    1  C   UNL     1     -45.059  61.073 -52.485  1.00  0.00     0.033 A 
HETATM    2  C   UNL     1     -46.346  61.527 -52.184  1.00  0.00     0.017 A 
HETATM    3  C   UNL     1     -47.096  62.160 -53.170  1.00  0.00     0.002 A 
HETATM    4  C   UNL     1     -46.572  62.314 -54.458  1.00  0.00     0.012 A 
HETATM    5  C   UNL     1     -45.269  61.886 -54.781  1.00  0.00    -0.024 A 
HETATM    6  C   UNL     1     -44.504  61.309 -53.753  1.00  0.00     0.029 A 
ENDROOT
BRANCH   1   7
HETATM    7  C   UNL     1     -44.290  60.239 -51.521  1.00  0.00     0.256 C 
HETATM    8  N   UNL     1     -43.702  59.128 -52.102  1.00  0.00    -0.323 N 
HETATM    9  H   UNL     1     -43.850  59.005 -53.096  1.00  0.00     0.169 HD
HETATM   10  O   UNL     1     -44.175  60.625 -50.367  1.00  0.00    -0.267 OA
BRANCH   8  11
HETATM   11  C   UNL     1     -42.800  58.219 -51.512  1.00  0.00     0.035 A 
HETATM   12  C   UNL     1     -41.447  58.480 -51.309  1.00  0.00     0.030 A 
HETATM   13  C   UNL     1     -40.611  57.504 -50.751  1.00  0.00     0.010 A 
HETATM   14  C   UNL     1     -41.118  56.247 -50.392  1.00  0.00    -0.049 A 
HETATM   15  C   UNL     1     -42.481  55.995 -50.577  1.00  0.00     0.010 A 
HETATM   16  C   UNL     1     -43.311  56.972 -51.133  1.00  0.00     0.030 A 
BRANCH  14  17
HETATM   17  C   UNL     1     -40.214  55.198 -49.794  1.00  0.00     0.149 C 
BRANCH  17  18
HETATM   18  C   UNL     1     -40.949  53.948 -49.364  1.00  0.00     0.263 C 
HETATM   19  O   UNL     1     -41.170  53.596 -48.214  1.00  0.00    -0.265 OA
BRANCH  18  20
HETATM   20  O   UNL     1     -41.400  53.264 -50.463  1.00  0.00    -0.316 OA
BRANCH  20  21
HETATM   21  C   UNL     1     -40.394  52.944 -51.439  1.00  0.00     0.135 C 
HETATM   22  C   UNL     1     -39.938  51.494 -51.282  1.00  0.00     0.060 C 
HETATM   23  C   UNL     1     -38.949  51.117 -52.370  1.00  0.00     0.237 C 
HETATM   24  N   UNL     1     -39.534  51.369 -53.740  1.00  0.00    -0.075 N 
HETATM   25  C   UNL     1     -40.532  50.327 -54.173  1.00  0.00     0.269 C 
HETATM   26  C   UNL     1     -40.020  52.787 -53.917  1.00  0.00     0.237 C 
HETATM   27  H   UNL     1     -38.749  51.263 -54.398  1.00  0.00     0.279 HD
HETATM   28  C   UNL     1     -41.003  53.165 -52.822  1.00  0.00     0.060 C 
ENDBRANCH  20  21
ENDBRANCH  18  20
ENDBRANCH  17  18
ENDBRANCH  14  17
ENDBRANCH   8  11
ENDBRANCH   1   7
BRANCH   5  29
HETATM   29  C   UNL     1     -44.758  62.006 -56.172  1.00  0.00    -0.017 A 
HETATM   30  C   UNL     1     -44.852  60.884 -57.033  1.00  0.00     0.030 A 
HETATM   31  C   UNL     1     -44.337  60.911 -58.336  1.00  0.00     0.033 A 
HETATM   32  C   UNL     1     -43.763  62.083 -58.824  1.00  0.00     0.017 A 
HETATM   33  C   UNL     1     -43.676  63.205 -58.007  1.00  0.00     0.011 A 
HETATM   34  C   UNL     1     -44.115  63.176 -56.666  1.00  0.00    -0.020 A 
BRANCH  31  35
HETATM   35  C   UNL     1     -44.280  59.699 -59.199  1.00  0.00     0.256 C 
HETATM   36  O   UNL     1     -43.639  59.765 -60.241  1.00  0.00    -0.267 OA
HETATM   37  N   UNL     1     -44.979  58.598 -58.744  1.00  0.00    -0.320 N 
HETATM   38  H   UNL     1     -45.606  58.720 -57.955  1.00  0.00     0.169 HD
BRANCH  37  39
HETATM   39  C   UNL     1     -45.007  57.315 -59.344  1.00  0.00     0.076 A 
HETATM   40  C   UNL     1     -45.967  56.901 -60.266  1.00  0.00     0.052 A 
HETATM   41  C   UNL     1     -45.876  55.618 -60.792  1.00  0.00     0.118 A 
HETATM   42  N   UNL     1     -44.908  54.733 -60.465  1.00  0.00    -0.270 NA
HETATM   43  C   UNL     1     -43.986  55.157 -59.571  1.00  0.00     0.160 A 
HETATM   44  C   UNL     1     -43.997  56.417 -59.000  1.00  0.00     0.160 A 
HETATM   45  F   UNL     1     -43.044  56.772 -58.124  1.00  0.00    -0.202 F 
ENDBRANCH  37  39
ENDBRANCH  31  35
BRANCH  34  46
HETATM   46  C   UNL     1     -43.891  64.411 -55.810  1.00  0.00     0.306 C 
BRANCH  46  47
HETATM   47  N   UNL     1     -42.642  64.375 -55.046  1.00  0.00     0.082 N 
HETATM   48  H   UNL     1     -41.871  64.211 -55.692  1.00  0.00     0.313 HD
HETATM   49  H   UNL     1     -42.662  63.577 -54.414  1.00  0.00     0.313 HD
ENDBRANCH  46  47
ENDBRANCH  34  46
ENDBRANCH   5  29
TORSDOF 11
ENDMDL
