MODEL 1
REMARK VINA RESULT:      -7.3      0.000      0.000
REMARK  10 active torsions:
REMARK  status: ('A' for Active; 'I' for Inactive)
REMARK    1  A    between atoms: C_2  and  C_3 
REMARK    2  A    between atoms: C_3  and  N_4 
REMARK    3  A    between atoms: C_7  and  C_8 
REMARK       I    between atoms: C_8  and  N_9 
REMARK    4  A    between atoms: N_9  and  C_10 
REMARK    5  A    between atoms: C_10  and  C_11 
REMARK    6  A    between atoms: C_11  and  O_12 
REMARK    7  A    between atoms: C_11  and  C_13 
REMARK    8  A    between atoms: C_13  and  O_14 
REMARK    9  A    between atoms: O_14  and  C_15 
REMARK   10  A    between atoms: C_23  and  C_24 
ROOT
HETATM    1  C   UNL     1     -41.675  56.091 -52.635  1.00  0.00     0.255 C 
HETATM    2  N   UNL     1     -43.046  56.094 -52.607  1.00  0.00    -0.354 N 
HETATM    3  O   UNL     1     -41.014  57.051 -53.017  1.00  0.00    -0.268 OA
HETATM    4  H   UNL     1     -43.528  55.298 -52.209  1.00  0.00     0.162 HD
ENDROOT
BRANCH   2   5
HETATM    5  C   UNL     1     -43.806  57.317 -52.788  1.00  0.00     0.156 C 
BRANCH   5   6
HETATM    6  C   UNL     1     -44.679  57.278 -54.043  1.00  0.00     0.160 C 
BRANCH   6   7
HETATM    7  O   UNL     1     -44.896  55.907 -54.419  1.00  0.00    -0.392 OA
HETATM    8  H   UNL     1     -44.041  55.457 -54.271  1.00  0.00     0.210 HD
ENDBRANCH   6   7
BRANCH   6   9
HETATM    9  C   UNL     1     -44.037  58.030 -55.213  1.00  0.00     0.209 C 
BRANCH   9  10
HETATM   10  O   UNL     1     -42.999  57.194 -55.740  1.00  0.00    -0.349 OA
BRANCH  10  11
HETATM   11  C   UNL     1     -42.835  57.203 -57.098  1.00  0.00     0.069 A 
HETATM   12  C   UNL     1     -43.463  56.148 -57.768  1.00  0.00     0.043 A 
HETATM   13  C   UNL     1     -43.378  56.026 -59.161  1.00  0.00    -0.059 A 
HETATM   14  C   UNL     1     -44.046  54.890 -59.876  1.00  0.00     0.048 C 
HETATM   15  C   UNL     1     -42.630  56.964 -59.879  1.00  0.00     0.007 A 
HETATM   16  C   UNL     1     -41.999  58.015 -59.217  1.00  0.00     0.003 A 
HETATM   17  C   UNL     1     -42.103  58.138 -57.829  1.00  0.00     0.037 A 
ENDBRANCH  10  11
ENDBRANCH   9  10
ENDBRANCH   6   9
ENDBRANCH   5   6
ENDBRANCH   2   5
BRANCH   1  18
HETATM   18  C   UNL     1     -41.058  54.837 -52.266  1.00  0.00     0.075 A 
HETATM   19  C   UNL     1     -40.690  54.511 -50.942  1.00  0.00     0.158 A 
HETATM   20  N   UNL     1     -40.226  53.272 -50.821  1.00  0.00    -0.183 NA
HETATM   21  N   UNL     1     -40.373  52.751 -52.057  1.00  0.00    -0.268 N 
HETATM   22  C   UNL     1     -40.810  53.676 -52.991  1.00  0.00     0.052 A 
BRANCH  21  23
HETATM   23  C   UNL     1     -40.122  51.320 -52.242  1.00  0.00     0.106 C 
HETATM   24  C   UNL     1     -39.704  50.636 -50.936  1.00  0.00     0.034 C 
BRANCH  23  25
HETATM   25  C   UNL     1     -39.175  51.031 -53.422  1.00  0.00     0.022 C 
HETATM   26  C   UNL     1     -39.659  49.991 -54.424  1.00  0.00     0.007 C 
ENDBRANCH  23  25
ENDBRANCH  21  23
BRANCH  22  27
HETATM   27  C   UNL     1     -41.044  53.362 -54.473  1.00  0.00     0.038 A 
HETATM   28  C   UNL     1     -42.304  53.802 -55.180  1.00  0.00     0.011 A 
HETATM   29  C   UNL     1     -41.006  54.458 -55.511  1.00  0.00     0.011 A 
ENDBRANCH  22  27
ENDBRANCH   1  18
TORSDOF 10
ENDMDL
MODEL 2
REMARK VINA RESULT:      -7.3      2.512      7.838
REMARK  10 active torsions:
REMARK  status: ('A' for Active; 'I' for Inactive)
REMARK    1  A    between atoms: C_2  and  C_3 
REMARK    2  A    between atoms: C_3  and  N_4 
REMARK    3  A    between atoms: C_7  and  C_8 
REMARK       I    between atoms: C_8  and  N_9 
REMARK    4  A    between atoms: N_9  and  C_10 
REMARK    5  A    between atoms: C_10  and  C_11 
REMARK    6  A    between atoms: C_11  and  O_12 
REMARK    7  A    between atoms: C_11  and  C_13 
REMARK    8  A    between atoms: C_13  and  O_14 
REMARK    9  A    between atoms: O_14  and  C_15 
REMARK   10  A    between atoms: C_23  and  C_24 
ROOT
HETATM    1  C   UNL     1     -42.982  55.820 -56.353  1.00  0.00     0.255 C 
HETATM    2  N   UNL     1     -43.734  55.919 -55.211  1.00  0.00    -0.354 N 
HETATM    3  O   UNL     1     -42.119  54.963 -56.511  1.00  0.00    -0.268 OA
HETATM    4  H   UNL     1     -44.482  56.601 -55.176  1.00  0.00     0.162 HD
ENDROOT
BRANCH   2   5
HETATM    5  C   UNL     1     -43.739  54.866 -54.212  1.00  0.00     0.156 C 
BRANCH   5   6
HETATM    6  C   UNL     1     -43.374  55.384 -52.820  1.00  0.00     0.160 C 
BRANCH   6   7
HETATM    7  O   UNL     1     -43.855  56.733 -52.683  1.00  0.00    -0.392 OA
HETATM    8  H   UNL     1     -44.501  56.707 -51.951  1.00  0.00     0.210 HD
ENDBRANCH   6   7
BRANCH   6   9
HETATM    9  C   UNL     1     -41.862  55.357 -52.575  1.00  0.00     0.209 C 
BRANCH   9  10
HETATM   10  O   UNL     1     -41.289  54.468 -53.542  1.00  0.00    -0.349 OA
BRANCH  10  11
HETATM   11  C   UNL     1     -40.678  53.345 -53.056  1.00  0.00     0.069 A 
HETATM   12  C   UNL     1     -40.536  52.309 -53.985  1.00  0.00     0.043 A 
HETATM   13  C   UNL     1     -39.933  51.097 -53.628  1.00  0.00    -0.059 A 
HETATM   14  C   UNL     1     -39.789  49.985 -54.625  1.00  0.00     0.048 C 
HETATM   15  C   UNL     1     -39.492  50.920 -52.313  1.00  0.00     0.007 A 
HETATM   16  C   UNL     1     -39.633  51.947 -51.381  1.00  0.00     0.003 A 
HETATM   17  C   UNL     1     -40.222  53.159 -51.751  1.00  0.00     0.037 A 
ENDBRANCH  10  11
ENDBRANCH   9  10
ENDBRANCH   6   9
ENDBRANCH   5   6
ENDBRANCH   2   5
BRANCH   1  18
HETATM   18  C   UNL     1     -43.214  56.859 -57.331  1.00  0.00     0.075 A 
HETATM   19  C   UNL     1     -43.194  58.237 -57.022  1.00  0.00     0.158 A 
HETATM   20  N   UNL     1     -43.339  59.012 -58.091  1.00  0.00    -0.183 NA
HETATM   21  N   UNL     1     -43.365  58.140 -59.120  1.00  0.00    -0.268 N 
HETATM   22  C   UNL     1     -43.361  56.815 -58.714  1.00  0.00     0.052 A 
BRANCH  21  23
HETATM   23  C   UNL     1     -43.335  58.673 -60.484  1.00  0.00     0.106 C 
HETATM   24  C   UNL     1     -41.978  59.296 -60.828  1.00  0.00     0.034 C 
BRANCH  23  25
HETATM   25  C   UNL     1     -44.532  59.593 -60.788  1.00  0.00     0.022 C 
HETATM   26  C   UNL     1     -44.242  60.786 -61.690  1.00  0.00     0.007 C 
ENDBRANCH  23  25
ENDBRANCH  21  23
BRANCH  22  27
HETATM   27  C   UNL     1     -43.405  55.619 -59.670  1.00  0.00     0.038 A 
HETATM   28  C   UNL     1     -44.399  54.498 -59.480  1.00  0.00     0.011 A 
HETATM   29  C   UNL     1     -44.558  55.437 -60.628  1.00  0.00     0.011 A 
ENDBRANCH  22  27
ENDBRANCH   1  18
TORSDOF 10
ENDMDL
MODEL 3
REMARK VINA RESULT:      -7.2      2.332      6.673
REMARK  10 active torsions:
REMARK  status: ('A' for Active; 'I' for Inactive)
REMARK    1  A    between atoms: C_2  and  C_3 
REMARK    2  A    between atoms: C_3  and  N_4 
REMARK    3  A    between atoms: C_7  and  C_8 
REMARK       I    between atoms: C_8  and  N_9 
REMARK    4  A    between atoms: N_9  and  C_10 
REMARK    5  A    between atoms: C_10  and  C_11 
REMARK    6  A    between atoms: C_11  and  O_12 
REMARK    7  A    between atoms: C_11  and  C_13 
REMARK    8  A    between atoms: C_13  and  O_14 
REMARK    9  A    between atoms: O_14  and  C_15 
REMARK   10  A    between atoms: C_23  and  C_24 
ROOT
HETATM    1  C   UNL     1     -42.751  56.667 -51.678  1.00  0.00     0.255 C 
HETATM    2  N   UNL     1     -41.869  55.794 -51.094  1.00  0.00    -0.354 N 
HETATM    3  O   UNL     1     -43.464  57.427 -51.032  1.00  0.00    -0.268 OA
HETATM    4  H   UNL     1     -41.256  55.249 -51.688  1.00  0.00     0.162 HD
ENDROOT
BRANCH   2   5
HETATM    5  C   UNL     1     -41.534  55.883 -49.685  1.00  0.00     0.156 C 
BRANCH   5   6
HETATM    6  C   UNL     1     -41.058  54.546 -49.116  1.00  0.00     0.160 C 
BRANCH   6   7
HETATM    7  O   UNL     1     -40.791  54.704 -47.712  1.00  0.00    -0.392 OA
HETATM    8  H   UNL     1     -41.559  54.312 -47.253  1.00  0.00     0.210 HD
ENDBRANCH   6   7
BRANCH   6   9
HETATM    9  C   UNL     1     -39.796  54.039 -49.819  1.00  0.00     0.209 C 
BRANCH   9  10
HETATM   10  O   UNL     1     -40.107  52.761 -50.388  1.00  0.00    -0.349 OA
BRANCH  10  11
HETATM   11  C   UNL     1     -40.164  52.695 -51.753  1.00  0.00     0.069 A 
HETATM   12  C   UNL     1     -39.815  51.452 -52.291  1.00  0.00     0.043 A 
HETATM   13  C   UNL     1     -39.822  51.237 -53.675  1.00  0.00    -0.059 A 
HETATM   14  C   UNL     1     -39.441  49.906 -54.251  1.00  0.00     0.048 C 
HETATM   15  C   UNL     1     -40.162  52.296 -54.524  1.00  0.00     0.007 A 
HETATM   16  C   UNL     1     -40.508  53.538 -53.994  1.00  0.00     0.003 A 
HETATM   17  C   UNL     1     -40.513  53.738 -52.611  1.00  0.00     0.037 A 
ENDBRANCH  10  11
ENDBRANCH   9  10
ENDBRANCH   6   9
ENDBRANCH   5   6
ENDBRANCH   2   5
BRANCH   1  18
HETATM   18  C   UNL     1     -42.850  56.567 -53.117  1.00  0.00     0.075 A 
HETATM   19  C   UNL     1     -43.721  55.673 -53.777  1.00  0.00     0.158 A 
HETATM   20  N   UNL     1     -43.714  55.818 -55.097  1.00  0.00    -0.183 NA
HETATM   21  N   UNL     1     -42.900  56.874 -55.300  1.00  0.00    -0.268 N 
HETATM   22  C   UNL     1     -42.293  57.327 -54.140  1.00  0.00     0.052 A 
BRANCH  21  23
HETATM   23  C   UNL     1     -42.806  57.428 -56.653  1.00  0.00     0.106 C 
HETATM   24  C   UNL     1     -43.843  58.529 -56.897  1.00  0.00     0.034 C 
BRANCH  23  25
HETATM   25  C   UNL     1     -42.793  56.339 -57.742  1.00  0.00     0.022 C 
HETATM   26  C   UNL     1     -43.872  56.454 -58.811  1.00  0.00     0.007 C 
ENDBRANCH  23  25
ENDBRANCH  21  23
BRANCH  22  27
HETATM   27  C   UNL     1     -41.307  58.500 -54.083  1.00  0.00     0.038 A 
HETATM   28  C   UNL     1     -41.491  59.633 -53.102  1.00  0.00     0.011 A 
HETATM   29  C   UNL     1     -40.371  58.666 -52.910  1.00  0.00     0.011 A 
ENDBRANCH  22  27
ENDBRANCH   1  18
TORSDOF 10
ENDMDL
MODEL 4
REMARK VINA RESULT:      -7.2      3.077      7.493
REMARK  10 active torsions:
REMARK  status: ('A' for Active; 'I' for Inactive)
REMARK    1  A    between atoms: C_2  and  C_3 
REMARK    2  A    between atoms: C_3  and  N_4 
REMARK    3  A    between atoms: C_7  and  C_8 
REMARK       I    between atoms: C_8  and  N_9 
REMARK    4  A    between atoms: N_9  and  C_10 
REMARK    5  A    between atoms: C_10  and  C_11 
REMARK    6  A    between atoms: C_11  and  O_12 
REMARK    7  A    between atoms: C_11  and  C_13 
REMARK    8  A    between atoms: C_13  and  O_14 
REMARK    9  A    between atoms: O_14  and  C_15 
REMARK   10  A    between atoms: C_23  and  C_24 
ROOT
HETATM    1  C   UNL     1     -43.616  56.639 -52.194  1.00  0.00     0.255 C 
HETATM    2  N   UNL     1     -44.171  56.363 -53.417  1.00  0.00    -0.354 N 
HETATM    3  O   UNL     1     -42.941  55.829 -51.569  1.00  0.00    -0.268 OA
HETATM    4  H   UNL     1     -44.653  57.102 -53.913  1.00  0.00     0.162 HD
ENDROOT
BRANCH   2   5
HETATM    5  C   UNL     1     -43.790  55.184 -54.173  1.00  0.00     0.156 C 
BRANCH   5   6
HETATM    6  C   UNL     1     -42.762  55.500 -55.261  1.00  0.00     0.160 C 
BRANCH   6   7
HETATM    7  O   UNL     1     -43.413  55.464 -56.543  1.00  0.00    -0.392 OA
HETATM    8  H   UNL     1     -44.190  54.884 -56.426  1.00  0.00     0.210 HD
ENDBRANCH   6   7
BRANCH   6   9
HETATM    9  C   UNL     1     -41.596  54.506 -55.255  1.00  0.00     0.209 C 
BRANCH   9  10
HETATM   10  O   UNL     1     -40.869  54.708 -54.038  1.00  0.00    -0.349 OA
BRANCH  10  11
HETATM   11  C   UNL     1     -40.470  53.584 -53.368  1.00  0.00     0.069 A 
HETATM   12  C   UNL     1     -40.289  52.457 -54.176  1.00  0.00     0.043 A 
HETATM   13  C   UNL     1     -39.885  51.233 -53.628  1.00  0.00    -0.059 A 
HETATM   14  C   UNL     1     -39.699  50.024 -54.495  1.00  0.00     0.048 C 
HETATM   15  C   UNL     1     -39.687  51.142 -52.246  1.00  0.00     0.007 A 
HETATM   16  C   UNL     1     -39.869  52.260 -51.435  1.00  0.00     0.003 A 
HETATM   17  C   UNL     1     -40.256  53.481 -51.994  1.00  0.00     0.037 A 
ENDBRANCH  10  11
ENDBRANCH   9  10
ENDBRANCH   6   9
ENDBRANCH   5   6
ENDBRANCH   2   5
BRANCH   1  18
HETATM   18  C   UNL     1     -43.960  57.932 -51.643  1.00  0.00     0.075 A 
HETATM   19  C   UNL     1     -45.271  58.290 -51.259  1.00  0.00     0.158 A 
HETATM   20  N   UNL     1     -45.338  59.489 -50.694  1.00  0.00    -0.183 NA
HETATM   21  N   UNL     1     -44.051  59.885 -50.624  1.00  0.00    -0.268 N 
HETATM   22  C   UNL     1     -43.176  59.010 -51.247  1.00  0.00     0.052 A 
BRANCH  21  23
HETATM   23  C   UNL     1     -43.739  61.108 -49.880  1.00  0.00     0.106 C 
HETATM   24  C   UNL     1     -44.656  61.293 -48.667  1.00  0.00     0.034 C 
BRANCH  23  25
HETATM   25  C   UNL     1     -43.656  62.350 -50.787  1.00  0.00     0.022 C 
HETATM   26  C   UNL     1     -42.750  63.472 -50.297  1.00  0.00     0.007 C 
ENDBRANCH  23  25
ENDBRANCH  21  23
BRANCH  22  27
HETATM   27  C   UNL     1     -41.660  59.221 -51.336  1.00  0.00     0.038 A 
HETATM   28  C   UNL     1     -40.829  59.475 -50.101  1.00  0.00     0.011 A 
HETATM   29  C   UNL     1     -40.702  58.175 -50.820  1.00  0.00     0.011 A 
ENDBRANCH  22  27
ENDBRANCH   1  18
TORSDOF 10
ENDMDL
MODEL 5
REMARK VINA RESULT:      -7.1      1.457      2.166
REMARK  10 active torsions:
REMARK  status: ('A' for Active; 'I' for Inactive)
REMARK    1  A    between atoms: C_2  and  C_3 
REMARK    2  A    between atoms: C_3  and  N_4 
REMARK    3  A    between atoms: C_7  and  C_8 
REMARK       I    between atoms: C_8  and  N_9 
REMARK    4  A    between atoms: N_9  and  C_10 
REMARK    5  A    between atoms: C_10  and  C_11 
REMARK    6  A    between atoms: C_11  and  O_12 
REMARK    7  A    between atoms: C_11  and  C_13 
REMARK    8  A    between atoms: C_13  and  O_14 
REMARK    9  A    between atoms: O_14  and  C_15 
REMARK   10  A    between atoms: C_23  and  C_24 
ROOT
HETATM    1  C   UNL     1     -41.888  56.795 -53.975  1.00  0.00     0.255 C 
HETATM    2  N   UNL     1     -43.113  57.028 -54.544  1.00  0.00    -0.354 N 
HETATM    3  O   UNL     1     -41.207  57.681 -53.470  1.00  0.00    -0.268 OA
HETATM    4  H   UNL     1     -43.656  56.241 -54.874  1.00  0.00     0.162 HD
ENDROOT
BRANCH   2   5
HETATM    5  C   UNL     1     -43.804  58.293 -54.365  1.00  0.00     0.156 C 
BRANCH   5   6
HETATM    6  C   UNL     1     -45.079  58.380 -55.204  1.00  0.00     0.160 C 
BRANCH   6   7
HETATM    7  O   UNL     1     -45.706  57.087 -55.239  1.00  0.00    -0.392 OA
HETATM    8  H   UNL     1     -45.370  56.655 -56.048  1.00  0.00     0.210 HD
ENDBRANCH   6   7
BRANCH   6   9
HETATM    9  C   UNL     1     -44.794  58.845 -56.636  1.00  0.00     0.209 C 
BRANCH   9  10
HETATM   10  O   UNL     1     -43.390  58.679 -56.867  1.00  0.00    -0.349 OA
BRANCH  10  11
HETATM   11  C   UNL     1     -43.031  57.994 -57.995  1.00  0.00     0.069 A 
HETATM   12  C   UNL     1     -43.745  56.810 -58.210  1.00  0.00     0.043 A 
HETATM   13  C   UNL     1     -43.482  56.001 -59.323  1.00  0.00    -0.059 A 
HETATM   14  C   UNL     1     -44.243  54.729 -59.547  1.00  0.00     0.048 C 
HETATM   15  C   UNL     1     -42.472  56.380 -60.213  1.00  0.00     0.007 A 
HETATM   16  C   UNL     1     -41.755  57.557 -60.003  1.00  0.00     0.003 A 
HETATM   17  C   UNL     1     -42.035  58.365 -58.898  1.00  0.00     0.037 A 
ENDBRANCH  10  11
ENDBRANCH   9  10
ENDBRANCH   6   9
ENDBRANCH   5   6
ENDBRANCH   2   5
BRANCH   1  18
HETATM   18  C   UNL     1     -41.407  55.436 -54.092  1.00  0.00     0.075 A 
HETATM   19  C   UNL     1     -40.335  55.060 -54.932  1.00  0.00     0.158 A 
HETATM   20  N   UNL     1     -40.004  53.780 -54.810  1.00  0.00    -0.183 NA
HETATM   21  N   UNL     1     -40.804  53.333 -53.820  1.00  0.00    -0.268 N 
HETATM   22  C   UNL     1     -41.723  54.277 -53.392  1.00  0.00     0.052 A 
BRANCH  21  23
HETATM   23  C   UNL     1     -40.575  51.983 -53.298  1.00  0.00     0.106 C 
HETATM   24  C   UNL     1     -39.541  51.972 -52.167  1.00  0.00     0.034 C 
BRANCH  23  25
HETATM   25  C   UNL     1     -40.286  50.957 -54.409  1.00  0.00     0.022 C 
HETATM   26  C   UNL     1     -39.400  49.782 -54.016  1.00  0.00     0.007 C 
ENDBRANCH  23  25
ENDBRANCH  21  23
BRANCH  22  27
HETATM   27  C   UNL     1     -42.765  54.032 -52.295  1.00  0.00     0.038 A 
HETATM   28  C   UNL     1     -42.388  54.071 -50.832  1.00  0.00     0.011 A 
HETATM   29  C   UNL     1     -43.231  55.160 -51.406  1.00  0.00     0.011 A 
ENDBRANCH  22  27
ENDBRANCH   1  18
TORSDOF 10
ENDMDL
MODEL 6
REMARK VINA RESULT:      -7.0      2.353      6.848
REMARK  10 active torsions:
REMARK  status: ('A' for Active; 'I' for Inactive)
REMARK    1  A    between atoms: C_2  and  C_3 
REMARK    2  A    between atoms: C_3  and  N_4 
REMARK    3  A    between atoms: C_7  and  C_8 
REMARK       I    between atoms: C_8  and  N_9 
REMARK    4  A    between atoms: N_9  and  C_10 
REMARK    5  A    between atoms: C_10  and  C_11 
REMARK    6  A    between atoms: C_11  and  O_12 
REMARK    7  A    between atoms: C_11  and  C_13 
REMARK    8  A    between atoms: C_13  and  O_14 
REMARK    9  A    between atoms: O_14  and  C_15 
REMARK   10  A    between atoms: C_23  and  C_24 
ROOT
HETATM    1  C   UNL     1     -42.412  57.738 -54.298  1.00  0.00     0.255 C 
HETATM    2  N   UNL     1     -43.498  57.980 -53.496  1.00  0.00    -0.354 N 
HETATM    3  O   UNL     1     -41.263  57.704 -53.874  1.00  0.00    -0.268 OA
HETATM    4  H   UNL     1     -44.425  57.918 -53.897  1.00  0.00     0.162 HD
ENDROOT
BRANCH   2   5
HETATM    5  C   UNL     1     -43.389  57.962 -52.049  1.00  0.00     0.156 C 
BRANCH   5   6
HETATM    6  C   UNL     1     -44.538  57.198 -51.390  1.00  0.00     0.160 C 
BRANCH   6   7
HETATM    7  O   UNL     1     -45.137  58.031 -50.383  1.00  0.00    -0.392 OA
HETATM    8  H   UNL     1     -45.079  57.520 -49.552  1.00  0.00     0.210 HD
ENDBRANCH   6   7
BRANCH   6   9
HETATM    9  C   UNL     1     -44.066  55.888 -50.751  1.00  0.00     0.209 C 
BRANCH   9  10
HETATM   10  O   UNL     1     -43.118  55.293 -51.646  1.00  0.00    -0.349 OA
BRANCH  10  11
HETATM   11  C   UNL     1     -41.961  54.822 -51.091  1.00  0.00     0.069 A 
HETATM   12  C   UNL     1     -41.426  53.696 -51.725  1.00  0.00     0.043 A 
HETATM   13  C   UNL     1     -40.245  53.101 -51.263  1.00  0.00    -0.059 A 
HETATM   14  C   UNL     1     -39.677  51.889 -51.940  1.00  0.00     0.048 C 
HETATM   15  C   UNL     1     -39.613  53.634 -50.135  1.00  0.00     0.007 A 
HETATM   16  C   UNL     1     -40.143  54.754 -49.497  1.00  0.00     0.003 A 
HETATM   17  C   UNL     1     -41.313  55.351 -49.975  1.00  0.00     0.037 A 
ENDBRANCH  10  11
ENDBRANCH   9  10
ENDBRANCH   6   9
ENDBRANCH   5   6
ENDBRANCH   2   5
BRANCH   1  18
HETATM   18  C   UNL     1     -42.709  57.614 -55.708  1.00  0.00     0.075 A 
HETATM   19  C   UNL     1     -42.889  58.722 -56.566  1.00  0.00     0.158 A 
HETATM   20  N   UNL     1     -43.059  58.375 -57.836  1.00  0.00    -0.183 NA
HETATM   21  N   UNL     1     -42.901  57.036 -57.828  1.00  0.00    -0.268 N 
HETATM   22  C   UNL     1     -42.753  56.511 -56.554  1.00  0.00     0.052 A 
BRANCH  21  23
HETATM   23  C   UNL     1     -42.846  56.334 -59.113  1.00  0.00     0.106 C 
HETATM   24  C   UNL     1     -42.040  57.111 -60.158  1.00  0.00     0.034 C 
BRANCH  23  25
HETATM   25  C   UNL     1     -44.236  55.893 -59.608  1.00  0.00     0.022 C 
HETATM   26  C   UNL     1     -44.492  54.391 -59.621  1.00  0.00     0.007 C 
ENDBRANCH  23  25
ENDBRANCH  21  23
BRANCH  22  27
HETATM   27  C   UNL     1     -42.576  55.019 -56.250  1.00  0.00     0.038 A 
HETATM   28  C   UNL     1     -41.582  54.541 -55.218  1.00  0.00     0.011 A 
HETATM   29  C   UNL     1     -43.044  54.436 -54.938  1.00  0.00     0.011 A 
ENDBRANCH  22  27
ENDBRANCH   1  18
TORSDOF 10
ENDMDL
MODEL 7
REMARK VINA RESULT:      -7.0      2.372      6.713
REMARK  10 active torsions:
REMARK  status: ('A' for Active; 'I' for Inactive)
REMARK    1  A    between atoms: C_2  and  C_3 
REMARK    2  A    between atoms: C_3  and  N_4 
REMARK    3  A    between atoms: C_7  and  C_8 
REMARK       I    between atoms: C_8  and  N_9 
REMARK    4  A    between atoms: N_9  and  C_10 
REMARK    5  A    between atoms: C_10  and  C_11 
REMARK    6  A    between atoms: C_11  and  O_12 
REMARK    7  A    between atoms: C_11  and  C_13 
REMARK    8  A    between atoms: C_13  and  O_14 
REMARK    9  A    between atoms: O_14  and  C_15 
REMARK   10  A    between atoms: C_23  and  C_24 
ROOT
HETATM    1  C   UNL     1     -42.403  57.224 -54.196  1.00  0.00     0.255 C 
HETATM    2  N   UNL     1     -43.506  57.728 -53.555  1.00  0.00    -0.354 N 
HETATM    3  O   UNL     1     -41.287  57.206 -53.688  1.00  0.00    -0.268 OA
HETATM    4  H   UNL     1     -44.411  57.643 -54.001  1.00  0.00     0.162 HD
ENDROOT
BRANCH   2   5
HETATM    5  C   UNL     1     -43.482  58.045 -52.139  1.00  0.00     0.156 C 
BRANCH   5   6
HETATM    6  C   UNL     1     -44.362  57.102 -51.319  1.00  0.00     0.160 C 
BRANCH   6   7
HETATM    7  O   UNL     1     -44.958  57.840 -50.238  1.00  0.00    -0.392 OA
HETATM    8  H   UNL     1     -45.353  57.168 -49.648  1.00  0.00     0.210 HD
ENDBRANCH   6   7
BRANCH   6   9
HETATM    9  C   UNL     1     -43.567  55.922 -50.750  1.00  0.00     0.209 C 
BRANCH   9  10
HETATM   10  O   UNL     1     -43.334  55.005 -51.827  1.00  0.00    -0.349 OA
BRANCH  10  11
HETATM   11  C   UNL     1     -42.210  54.232 -51.741  1.00  0.00     0.069 A 
HETATM   12  C   UNL     1     -41.774  53.700 -52.959  1.00  0.00     0.043 A 
HETATM   13  C   UNL     1     -40.638  52.884 -53.025  1.00  0.00    -0.059 A 
HETATM   14  C   UNL     1     -40.176  52.308 -54.330  1.00  0.00     0.048 C 
HETATM   15  C   UNL     1     -39.950  52.583 -51.844  1.00  0.00     0.007 A 
HETATM   16  C   UNL     1     -40.381  53.108 -50.627  1.00  0.00     0.003 A 
HETATM   17  C   UNL     1     -41.506  53.934 -50.574  1.00  0.00     0.037 A 
ENDBRANCH  10  11
ENDBRANCH   9  10
ENDBRANCH   6   9
ENDBRANCH   5   6
ENDBRANCH   2   5
BRANCH   1  18
HETATM   18  C   UNL     1     -42.629  56.794 -55.558  1.00  0.00     0.075 A 
HETATM   19  C   UNL     1     -42.734  55.438 -55.938  1.00  0.00     0.158 A 
HETATM   20  N   UNL     1     -43.035  55.279 -57.222  1.00  0.00    -0.183 NA
HETATM   21  N   UNL     1     -43.217  56.539 -57.668  1.00  0.00    -0.268 N 
HETATM   22  C   UNL     1     -42.918  57.503 -56.719  1.00  0.00     0.052 A 
BRANCH  21  23
HETATM   23  C   UNL     1     -43.743  56.727 -59.022  1.00  0.00     0.106 C 
HETATM   24  C   UNL     1     -45.193  57.223 -59.012  1.00  0.00     0.034 C 
BRANCH  23  25
HETATM   25  C   UNL     1     -43.516  55.500 -59.924  1.00  0.00     0.022 C 
HETATM   26  C   UNL     1     -44.767  54.727 -60.322  1.00  0.00     0.007 C 
ENDBRANCH  23  25
ENDBRANCH  21  23
BRANCH  22  27
HETATM   27  C   UNL     1     -43.018  59.013 -56.961  1.00  0.00     0.038 A 
HETATM   28  C   UNL     1     -42.012  59.972 -56.368  1.00  0.00     0.011 A 
HETATM   29  C   UNL     1     -42.016  59.723 -57.839  1.00  0.00     0.011 A 
ENDBRANCH  22  27
ENDBRANCH   1  18
TORSDOF 10
ENDMDL
MODEL 8
REMARK VINA RESULT:      -6.9      2.136      3.333
REMARK  10 active torsions:
REMARK  status: ('A' for Active; 'I' for Inactive)
REMARK    1  A    between atoms: C_2  and  C_3 
REMARK    2  A    between atoms: C_3  and  N_4 
REMARK    3  A    between atoms: C_7  and  C_8 
REMARK       I    between atoms: C_8  and  N_9 
REMARK    4  A    between atoms: N_9  and  C_10 
REMARK    5  A    between atoms: C_10  and  C_11 
REMARK    6  A    between atoms: C_11  and  O_12 
REMARK    7  A    between atoms: C_11  and  C_13 
REMARK    8  A    between atoms: C_13  and  O_14 
REMARK    9  A    between atoms: O_14  and  C_15 
REMARK   10  A    between atoms: C_23  and  C_24 
ROOT
HETATM    1  C   UNL     1     -41.415  58.636 -53.790  1.00  0.00     0.255 C 
HETATM    2  N   UNL     1     -42.369  58.685 -54.773  1.00  0.00    -0.354 N 
HETATM    3  O   UNL     1     -40.538  59.484 -53.668  1.00  0.00    -0.268 OA
HETATM    4  H   UNL     1     -43.110  57.994 -54.770  1.00  0.00     0.162 HD
ENDROOT
BRANCH   2   5
HETATM    5  C   UNL     1     -42.563  59.873 -55.584  1.00  0.00     0.156 C 
BRANCH   5   6
HETATM    6  C   UNL     1     -41.895  59.755 -56.954  1.00  0.00     0.160 C 
BRANCH   6   7
HETATM    7  O   UNL     1     -41.171  60.967 -57.227  1.00  0.00    -0.392 OA
HETATM    8  H   UNL     1     -41.768  61.694 -56.964  1.00  0.00     0.210 HD
ENDBRANCH   6   7
BRANCH   6   9
HETATM    9  C   UNL     1     -42.915  59.511 -58.071  1.00  0.00     0.209 C 
BRANCH   9  10
HETATM   10  O   UNL     1     -43.882  58.581 -57.570  1.00  0.00    -0.349 OA
BRANCH  10  11
HETATM   11  C   UNL     1     -44.109  57.464 -58.326  1.00  0.00     0.069 A 
HETATM   12  C   UNL     1     -45.358  57.430 -58.956  1.00  0.00     0.043 A 
HETATM   13  C   UNL     1     -45.731  56.346 -59.760  1.00  0.00    -0.059 A 
HETATM   14  C   UNL     1     -47.074  56.308 -60.428  1.00  0.00     0.048 C 
HETATM   15  C   UNL     1     -44.844  55.275 -59.909  1.00  0.00     0.007 A 
HETATM   16  C   UNL     1     -43.599  55.302 -59.282  1.00  0.00     0.003 A 
HETATM   17  C   UNL     1     -43.230  56.395 -58.494  1.00  0.00     0.037 A 
ENDBRANCH  10  11
ENDBRANCH   9  10
ENDBRANCH   6   9
ENDBRANCH   5   6
ENDBRANCH   2   5
BRANCH   1  18
HETATM   18  C   UNL     1     -41.459  57.457 -52.953  1.00  0.00     0.075 A 
HETATM   19  C   UNL     1     -41.629  57.503 -51.552  1.00  0.00     0.158 A 
HETATM   20  N   UNL     1     -41.733  56.300 -51.000  1.00  0.00    -0.183 NA
HETATM   21  N   UNL     1     -41.720  55.460 -52.055  1.00  0.00    -0.268 N 
HETATM   22  C   UNL     1     -41.487  56.101 -53.261  1.00  0.00     0.052 A 
BRANCH  21  23
HETATM   23  C   UNL     1     -41.999  54.041 -51.818  1.00  0.00     0.106 C 
HETATM   24  C   UNL     1     -43.453  53.805 -51.395  1.00  0.00     0.034 C 
BRANCH  23  25
HETATM   25  C   UNL     1     -40.969  53.381 -50.883  1.00  0.00     0.022 C 
HETATM   26  C   UNL     1     -39.952  52.466 -51.554  1.00  0.00     0.007 C 
ENDBRANCH  23  25
ENDBRANCH  21  23
BRANCH  22  27
HETATM   27  C   UNL     1     -41.402  55.388 -54.616  1.00  0.00     0.038 A 
HETATM   28  C   UNL     1     -40.161  54.632 -55.028  1.00  0.00     0.011 A 
HETATM   29  C   UNL     1     -41.407  53.881 -54.698  1.00  0.00     0.011 A 
ENDBRANCH  22  27
ENDBRANCH   1  18
TORSDOF 10
ENDMDL
MODEL 9
REMARK VINA RESULT:      -6.9      2.504      6.827
REMARK  10 active torsions:
REMARK  status: ('A' for Active; 'I' for Inactive)
REMARK    1  A    between atoms: C_2  and  C_3 
REMARK    2  A    between atoms: C_3  and  N_4 
REMARK    3  A    between atoms: C_7  and  C_8 
REMARK       I    between atoms: C_8  and  N_9 
REMARK    4  A    between atoms: N_9  and  C_10 
REMARK    5  A    between atoms: C_10  and  C_11 
REMARK    6  A    between atoms: C_11  and  O_12 
REMARK    7  A    between atoms: C_11  and  C_13 
REMARK    8  A    between atoms: C_13  and  O_14 
REMARK    9  A    between atoms: O_14  and  C_15 
REMARK   10  A    between atoms: C_23  and  C_24 
ROOT
HETATM    1  C   UNL     1     -43.703  58.341 -54.050  1.00  0.00     0.255 C 
HETATM    2  N   UNL     1     -42.555  59.011 -53.712  1.00  0.00    -0.354 N 
HETATM    3  O   UNL     1     -44.543  58.000 -53.225  1.00  0.00    -0.268 OA
HETATM    4  H   UNL     1     -41.940  59.330 -54.451  1.00  0.00     0.162 HD
ENDROOT
BRANCH   2   5
HETATM    5  C   UNL     1     -42.372  59.585 -52.392  1.00  0.00     0.156 C 
BRANCH   5   6
HETATM    6  C   UNL     1     -40.974  59.320 -51.832  1.00  0.00     0.160 C 
BRANCH   6   7
HETATM    7  O   UNL     1     -40.069  59.091 -52.924  1.00  0.00    -0.392 OA
HETATM    8  H   UNL     1     -39.246  58.757 -52.517  1.00  0.00     0.210 HD
ENDBRANCH   6   7
BRANCH   6   9
HETATM    9  C   UNL     1     -40.952  58.111 -50.892  1.00  0.00     0.209 C 
BRANCH   9  10
HETATM   10  O   UNL     1     -41.543  57.011 -51.596  1.00  0.00    -0.349 OA
BRANCH  10  11
HETATM   11  C   UNL     1     -41.062  55.765 -51.303  1.00  0.00     0.069 A 
HETATM   12  C   UNL     1     -41.004  54.891 -52.394  1.00  0.00     0.043 A 
HETATM   13  C   UNL     1     -40.536  53.580 -52.243  1.00  0.00    -0.059 A 
HETATM   14  C   UNL     1     -40.483  52.642 -53.412  1.00  0.00     0.048 C 
HETATM   15  C   UNL     1     -40.146  53.141 -50.974  1.00  0.00     0.007 A 
HETATM   16  C   UNL     1     -40.204  54.006 -49.883  1.00  0.00     0.003 A 
HETATM   17  C   UNL     1     -40.657  55.317 -50.046  1.00  0.00     0.037 A 
ENDBRANCH  10  11
ENDBRANCH   9  10
ENDBRANCH   6   9
ENDBRANCH   5   6
ENDBRANCH   2   5
BRANCH   1  18
HETATM   18  C   UNL     1     -43.813  57.981 -55.446  1.00  0.00     0.075 A 
HETATM   19  C   UNL     1     -44.271  58.868 -56.445  1.00  0.00     0.158 A 
HETATM   20  N   UNL     1     -44.201  58.355 -57.668  1.00  0.00    -0.183 NA
HETATM   21  N   UNL     1     -43.611  57.157 -57.481  1.00  0.00    -0.268 N 
HETATM   22  C   UNL     1     -43.414  56.847 -56.145  1.00  0.00     0.052 A 
BRANCH  21  23
HETATM   23  C   UNL     1     -43.212  56.387 -58.662  1.00  0.00     0.106 C 
HETATM   24  C   UNL     1     -42.200  57.145 -59.528  1.00  0.00     0.034 C 
BRANCH  23  25
HETATM   25  C   UNL     1     -44.418  55.845 -59.453  1.00  0.00     0.022 C 
HETATM   26  C   UNL     1     -44.468  54.334 -59.636  1.00  0.00     0.007 C 
ENDBRANCH  23  25
ENDBRANCH  21  23
BRANCH  22  27
HETATM   27  C   UNL     1     -42.783  55.543 -55.646  1.00  0.00     0.038 A 
HETATM   28  C   UNL     1     -43.497  54.653 -54.655  1.00  0.00     0.011 A 
HETATM   29  C   UNL     1     -43.337  54.203 -56.068  1.00  0.00     0.011 A 
ENDBRANCH  22  27
ENDBRANCH   1  18
TORSDOF 10
ENDMDL
MODEL 10
REMARK VINA RESULT:      -6.8      2.740      7.797
REMARK  10 active torsions:
REMARK  status: ('A' for Active; 'I' for Inactive)
REMARK    1  A    between atoms: C_2  and  C_3 
REMARK    2  A    between atoms: C_3  and  N_4 
REMARK    3  A    between atoms: C_7  and  C_8 
REMARK       I    between atoms: C_8  and  N_9 
REMARK    4  A    between atoms: N_9  and  C_10 
REMARK    5  A    between atoms: C_10  and  C_11 
REMARK    6  A    between atoms: C_11  and  O_12 
REMARK    7  A    between atoms: C_11  and  C_13 
REMARK    8  A    between atoms: C_13  and  O_14 
REMARK    9  A    between atoms: O_14  and  C_15 
REMARK   10  A    between atoms: C_23  and  C_24 
ROOT
HETATM    1  C   UNL     1     -44.120  58.128 -55.250  1.00  0.00     0.255 C 
HETATM    2  N   UNL     1     -44.672  57.223 -54.380  1.00  0.00    -0.354 N 
HETATM    3  O   UNL     1     -43.163  58.836 -54.959  1.00  0.00    -0.268 OA
HETATM    4  H   UNL     1     -45.412  56.617 -54.711  1.00  0.00     0.162 HD
ENDROOT
BRANCH   2   5
HETATM    5  C   UNL     1     -44.007  56.859 -53.143  1.00  0.00     0.156 C 
BRANCH   5   6
HETATM    6  C   UNL     1     -43.461  55.431 -53.176  1.00  0.00     0.160 C 
BRANCH   6   7
HETATM    7  O   UNL     1     -43.782  54.779 -51.935  1.00  0.00    -0.392 OA
HETATM    8  H   UNL     1     -43.103  55.078 -51.299  1.00  0.00     0.210 HD
ENDBRANCH   6   7
BRANCH   6   9
HETATM    9  C   UNL     1     -41.944  55.401 -53.388  1.00  0.00     0.209 C 
BRANCH   9  10
HETATM   10  O   UNL     1     -41.638  54.204 -54.113  1.00  0.00    -0.349 OA
BRANCH  10  11
HETATM   11  C   UNL     1     -40.917  53.250 -53.448  1.00  0.00     0.069 A 
HETATM   12  C   UNL     1     -40.600  52.122 -54.211  1.00  0.00     0.043 A 
HETATM   13  C   UNL     1     -39.868  51.061 -53.661  1.00  0.00    -0.059 A 
HETATM   14  C   UNL     1     -39.536  49.849 -54.478  1.00  0.00     0.048 C 
HETATM   15  C   UNL     1     -39.475  51.133 -52.320  1.00  0.00     0.007 A 
HETATM   16  C   UNL     1     -39.791  52.254 -51.554  1.00  0.00     0.003 A 
HETATM   17  C   UNL     1     -40.507  53.313 -52.117  1.00  0.00     0.037 A 
ENDBRANCH  10  11
ENDBRANCH   9  10
ENDBRANCH   6   9
ENDBRANCH   5   6
ENDBRANCH   2   5
BRANCH   1  18
HETATM   18  C   UNL     1     -44.807  58.257 -56.517  1.00  0.00     0.075 A 
HETATM   19  C   UNL     1     -45.934  59.086 -56.710  1.00  0.00     0.158 A 
HETATM   20  N   UNL     1     -46.343  59.121 -57.973  1.00  0.00    -0.183 NA
HETATM   21  N   UNL     1     -45.426  58.382 -58.630  1.00  0.00    -0.268 N 
HETATM   22  C   UNL     1     -44.507  57.776 -57.787  1.00  0.00     0.052 A 
BRANCH  21  23
HETATM   23  C   UNL     1     -45.472  58.358 -60.094  1.00  0.00     0.106 C 
HETATM   24  C   UNL     1     -45.088  59.710 -60.703  1.00  0.00     0.034 C 
BRANCH  23  25
HETATM   25  C   UNL     1     -46.795  57.788 -60.637  1.00  0.00     0.022 C 
HETATM   26  C   UNL     1     -47.069  56.323 -60.321  1.00  0.00     0.007 C 
ENDBRANCH  23  25
ENDBRANCH  21  23
BRANCH  22  27
HETATM   27  C   UNL     1     -43.369  56.866 -58.262  1.00  0.00     0.038 A 
HETATM   28  C   UNL     1     -43.003  55.609 -57.510  1.00  0.00     0.011 A 
HETATM   29  C   UNL     1     -43.660  55.504 -58.845  1.00  0.00     0.011 A 
ENDBRANCH  22  27
ENDBRANCH   1  18
TORSDOF 10
ENDMDL
