MODEL 1
REMARK VINA RESULT:      -7.3      0.000      0.000
REMARK  8 active torsions:
REMARK  status: ('A' for Active; 'I' for Inactive)
REMARK    1  A    between atoms: C_2  and  C_3 
REMARK    2  A    between atoms: C_3  and  N_4 
REMARK    3  A    between atoms: C_3  and  C_20 
REMARK    4  A    between atoms: N_4  and  C_7 
REMARK    5  A    between atoms: C_7  and  C_8 
REMARK    6  A    between atoms: C_10  and  O_11 
REMARK    7  A    between atoms: C_13  and  O_14 
REMARK    8  A    between atoms: C_16  and  O_17 
ROOT
HETATM    1  N   UNL     1     -43.213  56.116 -53.671  1.00  0.00    -0.060 N 
HETATM    2  H   UNL     1     -43.090  56.310 -52.673  1.00  0.00     0.278 HD
HETATM    3  H   UNL     1     -44.110  56.552 -53.944  1.00  0.00     0.278 HD
ENDROOT
BRANCH   1   4
HETATM    4  C   UNL     1     -42.179  56.771 -54.540  1.00  0.00     0.258 C 
BRANCH   4   5
HETATM    5  C   UNL     1     -41.844  58.189 -54.015  1.00  0.00     0.016 C 
HETATM    6  C   UNL     1     -40.478  58.222 -53.320  1.00  0.00     0.012 C 
HETATM    7  C   UNL     1     -42.911  58.781 -53.085  1.00  0.00     0.012 C 
ENDBRANCH   4   5
BRANCH   4   8
HETATM    8  C   UNL     1     -42.710  56.805 -55.942  1.00  0.00     0.136 A 
HETATM    9  N   UNL     1     -43.770  57.504 -56.307  1.00  0.00    -0.231 NA
HETATM   10  C   UNL     1     -43.929  57.252 -57.650  1.00  0.00     0.085 A 
HETATM   11  C   UNL     1     -42.959  56.363 -58.101  1.00  0.00     0.062 A 
HETATM   12  C   UNL     1     -44.884  57.744 -58.548  1.00  0.00     0.034 A 
HETATM   13  N   UNL     1     -42.189  56.095 -56.996  1.00  0.00    -0.341 N 
HETATM   14  C   UNL     1     -42.886  55.918 -59.422  1.00  0.00     0.032 A 
HETATM   15  H   UNL     1     -41.383  55.484 -56.988  1.00  0.00     0.167 HD
HETATM   16  C   UNL     1     -43.851  56.416 -60.306  1.00  0.00     0.002 A 
HETATM   17  C   UNL     1     -44.832  57.314 -59.880  1.00  0.00     0.002 A 
ENDBRANCH   4   8
ENDBRANCH   1   4
BRANCH   1  18
HETATM   18  C   UNL     1     -43.381  54.653 -53.882  1.00  0.00     0.272 C 
BRANCH  18  19
HETATM   19  C   UNL     1     -42.208  53.901 -53.327  1.00  0.00    -0.027 A 
HETATM   20  C   UNL     1     -41.466  53.033 -54.137  1.00  0.00     0.048 A 
HETATM   21  C   UNL     1     -40.409  52.287 -53.599  1.00  0.00     0.104 A 
HETATM   22  C   UNL     1     -40.091  52.389 -52.228  1.00  0.00     0.135 A 
HETATM   23  C   UNL     1     -40.846  53.239 -51.405  1.00  0.00     0.104 A 
HETATM   24  C   UNL     1     -41.890  53.989 -51.968  1.00  0.00     0.048 A 
BRANCH  21  25
HETATM   25  O   UNL     1     -39.721  51.366 -54.349  1.00  0.00    -0.353 OA
HETATM   26  C   UNL     1     -40.342  50.091 -54.492  1.00  0.00     0.210 C 
ENDBRANCH  21  25
BRANCH  22  27
HETATM   27  O   UNL     1     -39.120  51.602 -51.663  1.00  0.00    -0.351 OA
HETATM   28  C   UNL     1     -39.628  50.458 -50.977  1.00  0.00     0.210 C 
ENDBRANCH  22  27
BRANCH  23  29
HETATM   29  O   UNL     1     -40.733  53.464 -50.059  1.00  0.00    -0.353 OA
HETATM   30  C   UNL     1     -39.728  54.354 -49.591  1.00  0.00     0.210 C 
ENDBRANCH  23  29
ENDBRANCH  18  19
ENDBRANCH   1  18
TORSDOF 8
ENDMDL
MODEL 2
REMARK VINA RESULT:      -7.2      1.352      2.950
REMARK  8 active torsions:
REMARK  status: ('A' for Active; 'I' for Inactive)
REMARK    1  A    between atoms: C_2  and  C_3 
REMARK    2  A    between atoms: C_3  and  N_4 
REMARK    3  A    between atoms: C_3  and  C_20 
REMARK    4  A    between atoms: N_4  and  C_7 
REMARK    5  A    between atoms: C_7  and  C_8 
REMARK    6  A    between atoms: C_10  and  O_11 
REMARK    7  A    between atoms: C_13  and  O_14 
REMARK    8  A    between atoms: C_16  and  O_17 
ROOT
HETATM    1  N   UNL     1     -42.443  55.500 -53.755  1.00  0.00    -0.060 N 
HETATM    2  H   UNL     1     -42.653  55.302 -52.773  1.00  0.00     0.278 HD
HETATM    3  H   UNL     1     -43.040  54.867 -54.314  1.00  0.00     0.278 HD
ENDROOT
BRANCH   1   4
HETATM    4  C   UNL     1     -42.834  56.886 -54.183  1.00  0.00     0.258 C 
BRANCH   4   5
HETATM    5  C   UNL     1     -44.215  57.269 -53.595  1.00  0.00     0.016 C 
HETATM    6  C   UNL     1     -44.675  58.644 -54.093  1.00  0.00     0.012 C 
HETATM    7  C   UNL     1     -44.277  57.228 -52.063  1.00  0.00     0.012 C 
ENDBRANCH   4   5
BRANCH   4   8
HETATM    8  C   UNL     1     -42.834  56.921 -55.682  1.00  0.00     0.136 A 
HETATM    9  N   UNL     1     -42.210  57.843 -56.393  1.00  0.00    -0.231 NA
HETATM   10  C   UNL     1     -42.468  57.528 -57.706  1.00  0.00     0.085 A 
HETATM   11  C   UNL     1     -43.285  56.405 -57.791  1.00  0.00     0.062 A 
HETATM   12  C   UNL     1     -42.042  58.161 -58.881  1.00  0.00     0.034 A 
HETATM   13  N   UNL     1     -43.502  56.032 -56.488  1.00  0.00    -0.341 N 
HETATM   14  C   UNL     1     -43.720  55.867 -59.003  1.00  0.00     0.032 A 
HETATM   15  H   UNL     1     -44.055  55.234 -56.200  1.00  0.00     0.167 HD
HETATM   16  C   UNL     1     -43.288  56.514 -60.168  1.00  0.00     0.002 A 
HETATM   17  C   UNL     1     -42.463  57.639 -60.111  1.00  0.00     0.002 A 
ENDBRANCH   4   8
ENDBRANCH   1   4
BRANCH   1  18
HETATM   18  C   UNL     1     -41.037  55.119 -54.056  1.00  0.00     0.272 C 
BRANCH  18  19
HETATM   19  C   UNL     1     -40.626  53.928 -53.242  1.00  0.00    -0.027 A 
HETATM   20  C   UNL     1     -40.675  53.966 -51.844  1.00  0.00     0.048 A 
HETATM   21  C   UNL     1     -40.232  52.873 -51.086  1.00  0.00     0.104 A 
HETATM   22  C   UNL     1     -39.715  51.727 -51.727  1.00  0.00     0.135 A 
HETATM   23  C   UNL     1     -39.641  51.692 -53.127  1.00  0.00     0.104 A 
HETATM   24  C   UNL     1     -40.104  52.791 -53.867  1.00  0.00     0.048 A 
BRANCH  21  25
HETATM   25  O   UNL     1     -40.188  52.917 -49.715  1.00  0.00    -0.353 OA
HETATM   26  C   UNL     1     -40.324  54.207 -49.128  1.00  0.00     0.210 C 
ENDBRANCH  21  25
BRANCH  22  27
HETATM   27  O   UNL     1     -39.195  50.683 -51.004  1.00  0.00    -0.351 OA
HETATM   28  C   UNL     1     -40.089  49.580 -50.857  1.00  0.00     0.210 C 
ENDBRANCH  22  27
BRANCH  23  29
HETATM   29  O   UNL     1     -39.152  50.706 -53.943  1.00  0.00    -0.353 OA
HETATM   30  C   UNL     1     -40.067  49.883 -54.654  1.00  0.00     0.210 C 
ENDBRANCH  23  29
ENDBRANCH  18  19
ENDBRANCH   1  18
TORSDOF 8
ENDMDL
MODEL 3
REMARK VINA RESULT:      -7.1      3.637      7.853
REMARK  8 active torsions:
REMARK  status: ('A' for Active; 'I' for Inactive)
REMARK    1  A    between atoms: C_2  and  C_3 
REMARK    2  A    between atoms: C_3  and  N_4 
REMARK    3  A    between atoms: C_3  and  C_20 
REMARK    4  A    between atoms: N_4  and  C_7 
REMARK    5  A    between atoms: C_7  and  C_8 
REMARK    6  A    between atoms: C_10  and  O_11 
REMARK    7  A    between atoms: C_13  and  O_14 
REMARK    8  A    between atoms: C_16  and  O_17 
ROOT
HETATM    1  N   UNL     1     -41.775  55.704 -55.109  1.00  0.00    -0.060 N 
HETATM    2  H   UNL     1     -41.442  56.662 -55.254  1.00  0.00     0.278 HD
HETATM    3  H   UNL     1     -41.028  55.080 -55.458  1.00  0.00     0.278 HD
ENDROOT
BRANCH   1   4
HETATM    4  C   UNL     1     -41.943  55.343 -53.661  1.00  0.00     0.258 C 
BRANCH   4   5
HETATM    5  C   UNL     1     -41.304  56.421 -52.751  1.00  0.00     0.016 C 
HETATM    6  C   UNL     1     -42.243  56.818 -51.606  1.00  0.00     0.012 C 
HETATM    7  C   UNL     1     -40.843  57.679 -53.499  1.00  0.00     0.012 C 
ENDBRANCH   4   5
BRANCH   4   8
HETATM    8  C   UNL     1     -41.324  53.993 -53.449  1.00  0.00     0.136 A 
HETATM    9  N   UNL     1     -40.754  53.618 -52.318  1.00  0.00    -0.231 NA
HETATM   10  C   UNL     1     -40.306  52.338 -52.542  1.00  0.00     0.085 A 
HETATM   11  C   UNL     1     -40.590  51.939 -53.844  1.00  0.00     0.062 A 
HETATM   12  C   UNL     1     -39.642  51.455 -51.680  1.00  0.00     0.034 A 
HETATM   13  N   UNL     1     -41.244  53.008 -54.403  1.00  0.00    -0.341 N 
HETATM   14  C   UNL     1     -40.237  50.688 -54.354  1.00  0.00     0.032 A 
HETATM   15  H   UNL     1     -41.600  53.038 -55.350  1.00  0.00     0.167 HD
HETATM   16  C   UNL     1     -39.570  49.820 -53.481  1.00  0.00     0.002 A 
HETATM   17  C   UNL     1     -39.279  50.193 -52.167  1.00  0.00     0.002 A 
ENDBRANCH   4   8
ENDBRANCH   1   4
BRANCH   1  18
HETATM   18  C   UNL     1     -42.964  55.450 -55.966  1.00  0.00     0.272 C 
BRANCH  18  19
HETATM   19  C   UNL     1     -42.915  56.295 -57.204  1.00  0.00    -0.027 A 
HETATM   20  C   UNL     1     -43.395  55.806 -58.424  1.00  0.00     0.048 A 
HETATM   21  C   UNL     1     -43.292  56.576 -59.590  1.00  0.00     0.104 A 
HETATM   22  C   UNL     1     -42.684  57.850 -59.550  1.00  0.00     0.135 A 
HETATM   23  C   UNL     1     -42.179  58.336 -58.334  1.00  0.00     0.104 A 
HETATM   24  C   UNL     1     -42.308  57.555 -57.176  1.00  0.00     0.048 A 
BRANCH  21  25
HETATM   25  O   UNL     1     -43.675  56.087 -60.814  1.00  0.00    -0.353 OA
HETATM   26  C   UNL     1     -44.818  55.237 -60.814  1.00  0.00     0.210 C 
ENDBRANCH  21  25
BRANCH  22  27
HETATM   27  O   UNL     1     -42.494  58.582 -60.694  1.00  0.00    -0.351 OA
HETATM   28  C   UNL     1     -43.505  59.562 -60.928  1.00  0.00     0.210 C 
ENDBRANCH  22  27
BRANCH  23  29
HETATM   29  O   UNL     1     -41.532  59.516 -58.077  1.00  0.00    -0.353 OA
HETATM   30  C   UNL     1     -42.211  60.528 -57.345  1.00  0.00     0.210 C 
ENDBRANCH  23  29
ENDBRANCH  18  19
ENDBRANCH   1  18
TORSDOF 8
ENDMDL
MODEL 4
REMARK VINA RESULT:      -7.0      3.720      8.213
REMARK  8 active torsions:
REMARK  status: ('A' for Active; 'I' for Inactive)
REMARK    1  A    between atoms: C_2  and  C_3 
REMARK    2  A    between atoms: C_3  and  N_4 
REMARK    3  A    between atoms: C_3  and  C_20 
REMARK    4  A    between atoms: N_4  and  C_7 
REMARK    5  A    between atoms: C_7  and  C_8 
REMARK    6  A    between atoms: C_10  and  O_11 
REMARK    7  A    between atoms: C_13  and  O_14 
REMARK    8  A    between atoms: C_16  and  O_17 
ROOT
HETATM    1  N   UNL     1     -41.714  55.667 -55.177  1.00  0.00    -0.060 N 
HETATM    2  H   UNL     1     -41.217  56.551 -55.316  1.00  0.00     0.278 HD
HETATM    3  H   UNL     1     -41.097  54.925 -55.547  1.00  0.00     0.278 HD
ENDROOT
BRANCH   1   4
HETATM    4  C   UNL     1     -41.922  55.319 -53.731  1.00  0.00     0.258 C 
BRANCH   4   5
HETATM    5  C   UNL     1     -41.310  56.406 -52.814  1.00  0.00     0.016 C 
HETATM    6  C   UNL     1     -42.240  56.744 -51.644  1.00  0.00     0.012 C 
HETATM    7  C   UNL     1     -40.915  57.695 -53.548  1.00  0.00     0.012 C 
ENDBRANCH   4   5
BRANCH   4   8
HETATM    8  C   UNL     1     -41.309  53.972 -53.490  1.00  0.00     0.136 A 
HETATM    9  N   UNL     1     -40.740  53.620 -52.350  1.00  0.00    -0.231 NA
HETATM   10  C   UNL     1     -40.297  52.333 -52.547  1.00  0.00     0.085 A 
HETATM   11  C   UNL     1     -40.583  51.906 -53.839  1.00  0.00     0.062 A 
HETATM   12  C   UNL     1     -39.636  51.467 -51.666  1.00  0.00     0.034 A 
HETATM   13  N   UNL     1     -41.234  52.966 -54.421  1.00  0.00    -0.341 N 
HETATM   14  C   UNL     1     -40.235  50.643 -54.321  1.00  0.00     0.032 A 
HETATM   15  H   UNL     1     -41.590  52.976 -55.369  1.00  0.00     0.167 HD
HETATM   16  C   UNL     1     -39.572  49.792 -53.429  1.00  0.00     0.002 A 
HETATM   17  C   UNL     1     -39.278  50.193 -52.124  1.00  0.00     0.002 A 
ENDBRANCH   4   8
ENDBRANCH   1   4
BRANCH   1  18
HETATM   18  C   UNL     1     -42.943  55.643 -56.016  1.00  0.00     0.272 C 
BRANCH  18  19
HETATM   19  C   UNL     1     -42.760  56.482 -57.245  1.00  0.00    -0.027 A 
HETATM   20  C   UNL     1     -42.294  57.799 -57.150  1.00  0.00     0.048 A 
HETATM   21  C   UNL     1     -42.183  58.599 -58.295  1.00  0.00     0.104 A 
HETATM   22  C   UNL     1     -42.559  58.091 -59.557  1.00  0.00     0.135 A 
HETATM   23  C   UNL     1     -43.049  56.780 -59.656  1.00  0.00     0.104 A 
HETATM   24  C   UNL     1     -43.137  55.991 -58.499  1.00  0.00     0.048 A 
BRANCH  21  25
HETATM   25  O   UNL     1     -41.812  59.918 -58.220  1.00  0.00    -0.353 OA
HETATM   26  C   UNL     1     -41.970  60.538 -56.947  1.00  0.00     0.210 C 
ENDBRANCH  21  25
BRANCH  22  27
HETATM   27  O   UNL     1     -42.542  58.885 -60.676  1.00  0.00    -0.351 OA
HETATM   28  C   UNL     1     -43.781  59.543 -60.936  1.00  0.00     0.210 C 
ENDBRANCH  22  27
BRANCH  23  29
HETATM   29  O   UNL     1     -43.495  56.105 -60.761  1.00  0.00    -0.353 OA
HETATM   30  C   UNL     1     -44.827  55.610 -60.776  1.00  0.00     0.210 C 
ENDBRANCH  23  29
ENDBRANCH  18  19
ENDBRANCH   1  18
TORSDOF 8
ENDMDL
MODEL 5
REMARK VINA RESULT:      -7.0      1.301      4.309
REMARK  8 active torsions:
REMARK  status: ('A' for Active; 'I' for Inactive)
REMARK    1  A    between atoms: C_2  and  C_3 
REMARK    2  A    between atoms: C_3  and  N_4 
REMARK    3  A    between atoms: C_3  and  C_20 
REMARK    4  A    between atoms: N_4  and  C_7 
REMARK    5  A    between atoms: C_7  and  C_8 
REMARK    6  A    between atoms: C_10  and  O_11 
REMARK    7  A    between atoms: C_13  and  O_14 
REMARK    8  A    between atoms: C_16  and  O_17 
ROOT
HETATM    1  N   UNL     1     -42.239  55.214 -56.172  1.00  0.00    -0.060 N 
HETATM    2  H   UNL     1     -42.052  54.857 -57.114  1.00  0.00     0.278 HD
HETATM    3  H   UNL     1     -41.317  55.396 -55.741  1.00  0.00     0.278 HD
ENDROOT
BRANCH   1   4
HETATM    4  C   UNL     1     -42.943  56.541 -56.165  1.00  0.00     0.258 C 
BRANCH   4   5
HETATM    5  C   UNL     1     -42.591  57.353 -57.436  1.00  0.00     0.016 C 
HETATM    6  C   UNL     1     -43.321  58.701 -57.461  1.00  0.00     0.012 C 
HETATM    7  C   UNL     1     -42.847  56.602 -58.750  1.00  0.00     0.012 C 
ENDBRANCH   4   5
BRANCH   4   8
HETATM    8  C   UNL     1     -42.549  57.263 -54.912  1.00  0.00     0.136 A 
HETATM    9  N   UNL     1     -41.300  57.562 -54.601  1.00  0.00    -0.231 NA
HETATM   10  C   UNL     1     -41.370  58.198 -53.384  1.00  0.00     0.085 A 
HETATM   11  C   UNL     1     -42.686  58.264 -52.938  1.00  0.00     0.062 A 
HETATM   12  C   UNL     1     -40.347  58.742 -52.595  1.00  0.00     0.034 A 
HETATM   13  N   UNL     1     -43.421  57.667 -53.931  1.00  0.00    -0.341 N 
HETATM   14  C   UNL     1     -43.052  58.845 -51.723  1.00  0.00     0.032 A 
HETATM   15  H   UNL     1     -44.428  57.561 -53.921  1.00  0.00     0.167 HD
HETATM   16  C   UNL     1     -42.018  59.380 -50.946  1.00  0.00     0.002 A 
HETATM   17  C   UNL     1     -40.689  59.333 -51.372  1.00  0.00     0.002 A 
ENDBRANCH   4   8
ENDBRANCH   1   4
BRANCH   1  18
HETATM   18  C   UNL     1     -42.881  54.154 -55.350  1.00  0.00     0.272 C 
BRANCH  18  19
HETATM   19  C   UNL     1     -41.964  53.711 -54.249  1.00  0.00    -0.027 A 
HETATM   20  C   UNL     1     -40.971  52.754 -54.486  1.00  0.00     0.048 A 
HETATM   21  C   UNL     1     -40.157  52.298 -53.441  1.00  0.00     0.104 A 
HETATM   22  C   UNL     1     -40.342  52.788 -52.130  1.00  0.00     0.135 A 
HETATM   23  C   UNL     1     -41.351  53.730 -51.880  1.00  0.00     0.104 A 
HETATM   24  C   UNL     1     -42.145  54.184 -52.945  1.00  0.00     0.048 A 
BRANCH  21  25
HETATM   25  O   UNL     1     -39.234  51.299 -53.627  1.00  0.00    -0.353 OA
HETATM   26  C   UNL     1     -39.720  50.111 -54.245  1.00  0.00     0.210 C 
ENDBRANCH  21  25
BRANCH  22  27
HETATM   27  O   UNL     1     -39.616  52.291 -51.077  1.00  0.00    -0.351 OA
HETATM   28  C   UNL     1     -40.244  51.199 -50.407  1.00  0.00     0.210 C 
ENDBRANCH  22  27
BRANCH  23  29
HETATM   29  O   UNL     1     -41.721  54.308 -50.695  1.00  0.00    -0.353 OA
HETATM   30  C   UNL     1     -41.358  55.659 -50.445  1.00  0.00     0.210 C 
ENDBRANCH  23  29
ENDBRANCH  18  19
ENDBRANCH   1  18
TORSDOF 8
ENDMDL
MODEL 6
REMARK VINA RESULT:      -7.0      1.482      5.049
REMARK  8 active torsions:
REMARK  status: ('A' for Active; 'I' for Inactive)
REMARK    1  A    between atoms: C_2  and  C_3 
REMARK    2  A    between atoms: C_3  and  N_4 
REMARK    3  A    between atoms: C_3  and  C_20 
REMARK    4  A    between atoms: N_4  and  C_7 
REMARK    5  A    between atoms: C_7  and  C_8 
REMARK    6  A    between atoms: C_10  and  O_11 
REMARK    7  A    between atoms: C_13  and  O_14 
REMARK    8  A    between atoms: C_16  and  O_17 
ROOT
HETATM    1  N   UNL     1     -41.906  55.626 -55.923  1.00  0.00    -0.060 N 
HETATM    2  H   UNL     1     -41.515  55.461 -56.855  1.00  0.00     0.278 HD
HETATM    3  H   UNL     1     -41.101  55.760 -55.288  1.00  0.00     0.278 HD
ENDROOT
BRANCH   1   4
HETATM    4  C   UNL     1     -42.700  56.898 -55.824  1.00  0.00     0.258 C 
BRANCH   4   5
HETATM    5  C   UNL     1     -42.448  57.796 -57.060  1.00  0.00     0.016 C 
HETATM    6  C   UNL     1     -43.263  59.092 -56.988  1.00  0.00     0.012 C 
HETATM    7  C   UNL     1     -42.704  57.099 -58.403  1.00  0.00     0.012 C 
ENDBRANCH   4   5
BRANCH   4   8
HETATM    8  C   UNL     1     -42.314  57.582 -54.547  1.00  0.00     0.136 A 
HETATM    9  N   UNL     1     -41.062  57.775 -54.168  1.00  0.00    -0.231 NA
HETATM   10  C   UNL     1     -41.143  58.411 -52.952  1.00  0.00     0.085 A 
HETATM   11  C   UNL     1     -42.471  58.586 -52.576  1.00  0.00     0.062 A 
HETATM   12  C   UNL     1     -40.122  58.866 -52.108  1.00  0.00     0.034 A 
HETATM   13  N   UNL     1     -43.200  58.054 -53.610  1.00  0.00    -0.341 N 
HETATM   14  C   UNL     1     -42.852  59.192 -51.378  1.00  0.00     0.032 A 
HETATM   15  H   UNL     1     -44.211  58.032 -53.653  1.00  0.00     0.167 HD
HETATM   16  C   UNL     1     -41.819  59.637 -50.544  1.00  0.00     0.002 A 
HETATM   17  C   UNL     1     -40.478  59.480 -50.900  1.00  0.00     0.002 A 
ENDBRANCH   4   8
ENDBRANCH   1   4
BRANCH   1  18
HETATM   18  C   UNL     1     -42.610  54.404 -55.450  1.00  0.00     0.272 C 
BRANCH  18  19
HETATM   19  C   UNL     1     -41.925  53.833 -54.243  1.00  0.00    -0.027 A 
HETATM   20  C   UNL     1     -42.214  54.315 -52.961  1.00  0.00     0.048 A 
HETATM   21  C   UNL     1     -41.527  53.821 -51.844  1.00  0.00     0.104 A 
HETATM   22  C   UNL     1     -40.522  52.842 -52.002  1.00  0.00     0.135 A 
HETATM   23  C   UNL     1     -40.212  52.372 -53.287  1.00  0.00     0.104 A 
HETATM   24  C   UNL     1     -40.923  52.868 -54.390  1.00  0.00     0.048 A 
BRANCH  21  25
HETATM   25  O   UNL     1     -41.728  54.336 -50.588  1.00  0.00    -0.353 OA
HETATM   26  C   UNL     1     -41.302  55.682 -50.392  1.00  0.00     0.210 C 
ENDBRANCH  21  25
BRANCH  22  27
HETATM   27  O   UNL     1     -39.778  52.410 -50.934  1.00  0.00    -0.351 OA
HETATM   28  C   UNL     1     -40.237  51.181 -50.369  1.00  0.00     0.210 C 
ENDBRANCH  22  27
BRANCH  23  29
HETATM   29  O   UNL     1     -39.265  51.459 -53.668  1.00  0.00    -0.353 OA
HETATM   30  C   UNL     1     -39.685  50.184 -54.136  1.00  0.00     0.210 C 
ENDBRANCH  23  29
ENDBRANCH  18  19
ENDBRANCH   1  18
TORSDOF 8
ENDMDL
MODEL 7
REMARK VINA RESULT:      -6.6      4.027      7.582
REMARK  8 active torsions:
REMARK  status: ('A' for Active; 'I' for Inactive)
REMARK    1  A    between atoms: C_2  and  C_3 
REMARK    2  A    between atoms: C_3  and  N_4 
REMARK    3  A    between atoms: C_3  and  C_20 
REMARK    4  A    between atoms: N_4  and  C_7 
REMARK    5  A    between atoms: C_7  and  C_8 
REMARK    6  A    between atoms: C_10  and  O_11 
REMARK    7  A    between atoms: C_13  and  O_14 
REMARK    8  A    between atoms: C_16  and  O_17 
ROOT
HETATM    1  N   UNL     1     -41.124  59.248 -53.653  1.00  0.00    -0.060 N 
HETATM    2  H   UNL     1     -40.319  59.819 -53.381  1.00  0.00     0.278 HD
HETATM    3  H   UNL     1     -40.785  58.594 -54.379  1.00  0.00     0.278 HD
ENDROOT
BRANCH   1   4
HETATM    4  C   UNL     1     -41.637  58.371 -52.546  1.00  0.00     0.258 C 
BRANCH   4   5
HETATM    5  C   UNL     1     -41.041  58.807 -51.185  1.00  0.00     0.016 C 
HETATM    6  C   UNL     1     -41.813  59.990 -50.587  1.00  0.00     0.012 C 
HETATM    7  C   UNL     1     -39.544  59.140 -51.233  1.00  0.00     0.012 C 
ENDBRANCH   4   5
BRANCH   4   8
HETATM    8  C   UNL     1     -41.285  56.953 -52.883  1.00  0.00     0.136 A 
HETATM    9  N   UNL     1     -40.885  56.562 -54.080  1.00  0.00    -0.231 NA
HETATM   10  C   UNL     1     -40.685  55.206 -53.972  1.00  0.00     0.085 A 
HETATM   11  C   UNL     1     -40.993  54.763 -52.689  1.00  0.00     0.062 A 
HETATM   12  C   UNL     1     -40.245  54.285 -54.931  1.00  0.00     0.034 A 
HETATM   13  N   UNL     1     -41.368  55.896 -52.010  1.00  0.00    -0.341 N 
HETATM   14  C   UNL     1     -40.895  53.427 -52.298  1.00  0.00     0.032 A 
HETATM   15  H   UNL     1     -41.647  55.921 -51.038  1.00  0.00     0.167 HD
HETATM   16  C   UNL     1     -40.458  52.519 -53.270  1.00  0.00     0.002 A 
HETATM   17  C   UNL     1     -40.136  52.938 -54.563  1.00  0.00     0.002 A 
ENDBRANCH   4   8
ENDBRANCH   1   4
BRANCH   1  18
HETATM   18  C   UNL     1     -42.149  60.102 -54.309  1.00  0.00     0.272 C 
BRANCH  18  19
HETATM   19  C   UNL     1     -42.231  59.799 -55.776  1.00  0.00    -0.027 A 
HETATM   20  C   UNL     1     -42.485  58.498 -56.224  1.00  0.00     0.048 A 
HETATM   21  C   UNL     1     -42.501  58.208 -57.595  1.00  0.00     0.104 A 
HETATM   22  C   UNL     1     -42.242  59.224 -58.540  1.00  0.00     0.135 A 
HETATM   23  C   UNL     1     -41.963  60.526 -58.096  1.00  0.00     0.104 A 
HETATM   24  C   UNL     1     -41.968  60.797 -56.720  1.00  0.00     0.048 A 
BRANCH  21  25
HETATM   25  O   UNL     1     -42.661  56.927 -58.060  1.00  0.00    -0.353 OA
HETATM   26  C   UNL     1     -42.945  55.938 -57.074  1.00  0.00     0.210 C 
ENDBRANCH  21  25
BRANCH  22  27
HETATM   27  O   UNL     1     -42.164  58.944 -59.881  1.00  0.00    -0.351 OA
HETATM   28  C   UNL     1     -43.378  59.185 -60.592  1.00  0.00     0.210 C 
ENDBRANCH  22  27
BRANCH  23  29
HETATM   29  O   UNL     1     -41.657  61.642 -58.828  1.00  0.00    -0.353 OA
HETATM   30  C   UNL     1     -40.346  62.185 -58.741  1.00  0.00     0.210 C 
ENDBRANCH  23  29
ENDBRANCH  18  19
ENDBRANCH   1  18
TORSDOF 8
ENDMDL
MODEL 8
REMARK VINA RESULT:      -6.6      3.866      8.047
REMARK  8 active torsions:
REMARK  status: ('A' for Active; 'I' for Inactive)
REMARK    1  A    between atoms: C_2  and  C_3 
REMARK    2  A    between atoms: C_3  and  N_4 
REMARK    3  A    between atoms: C_3  and  C_20 
REMARK    4  A    between atoms: N_4  and  C_7 
REMARK    5  A    between atoms: C_7  and  C_8 
REMARK    6  A    between atoms: C_10  and  O_11 
REMARK    7  A    between atoms: C_13  and  O_14 
REMARK    8  A    between atoms: C_16  and  O_17 
ROOT
HETATM    1  N   UNL     1     -41.738  55.791 -52.949  1.00  0.00    -0.060 N 
HETATM    2  H   UNL     1     -42.753  55.878 -52.841  1.00  0.00     0.278 HD
HETATM    3  H   UNL     1     -41.404  55.253 -52.131  1.00  0.00     0.278 HD
ENDROOT
BRANCH   1   4
HETATM    4  C   UNL     1     -41.332  54.978 -54.145  1.00  0.00     0.258 C 
BRANCH   4   5
HETATM    5  C   UNL     1     -42.519  54.821 -55.127  1.00  0.00     0.016 C 
HETATM    6  C   UNL     1     -42.421  55.817 -56.289  1.00  0.00     0.012 C 
HETATM    7  C   UNL     1     -43.899  54.935 -54.466  1.00  0.00     0.012 C 
ENDBRANCH   4   5
BRANCH   4   8
HETATM    8  C   UNL     1     -40.834  53.653 -53.652  1.00  0.00     0.136 A 
HETATM    9  N   UNL     1     -40.653  52.602 -54.432  1.00  0.00    -0.231 NA
HETATM   10  C   UNL     1     -40.210  51.601 -53.600  1.00  0.00     0.085 A 
HETATM   11  C   UNL     1     -40.144  52.049 -52.284  1.00  0.00     0.062 A 
HETATM   12  C   UNL     1     -39.850  50.281 -53.897  1.00  0.00     0.034 A 
HETATM   13  N   UNL     1     -40.541  53.362 -52.342  1.00  0.00    -0.341 N 
HETATM   14  C   UNL     1     -39.740  51.240 -51.221  1.00  0.00     0.032 A 
HETATM   15  H   UNL     1     -40.594  53.985 -51.546  1.00  0.00     0.167 HD
HETATM   16  C   UNL     1     -39.387  49.922 -51.535  1.00  0.00     0.002 A 
HETATM   17  C   UNL     1     -39.438  49.449 -52.848  1.00  0.00     0.002 A 
ENDBRANCH   4   8
ENDBRANCH   1   4
BRANCH   1  18
HETATM   18  C   UNL     1     -41.104  57.133 -52.852  1.00  0.00     0.272 C 
BRANCH  18  19
HETATM   19  C   UNL     1     -42.000  58.185 -53.435  1.00  0.00    -0.027 A 
HETATM   20  C   UNL     1     -43.303  58.362 -52.954  1.00  0.00     0.048 A 
HETATM   21  C   UNL     1     -44.157  59.305 -53.543  1.00  0.00     0.104 A 
HETATM   22  C   UNL     1     -43.717  60.075 -54.641  1.00  0.00     0.135 A 
HETATM   23  C   UNL     1     -42.421  59.885 -55.143  1.00  0.00     0.104 A 
HETATM   24  C   UNL     1     -41.577  58.947 -54.529  1.00  0.00     0.048 A 
BRANCH  21  25
HETATM   25  O   UNL     1     -45.464  59.439 -53.148  1.00  0.00    -0.353 OA
HETATM   26  C   UNL     1     -45.670  59.813 -51.789  1.00  0.00     0.210 C 
ENDBRANCH  21  25
BRANCH  22  27
HETATM   27  O   UNL     1     -44.565  60.938 -55.287  1.00  0.00    -0.351 OA
HETATM   28  C   UNL     1     -45.317  60.332 -56.337  1.00  0.00     0.210 C 
ENDBRANCH  22  27
BRANCH  23  29
HETATM   29  O   UNL     1     -41.808  60.494 -56.206  1.00  0.00    -0.353 OA
HETATM   30  C   UNL     1     -41.848  59.862 -57.479  1.00  0.00     0.210 C 
ENDBRANCH  23  29
ENDBRANCH  18  19
ENDBRANCH   1  18
TORSDOF 8
ENDMDL
MODEL 9
REMARK VINA RESULT:      -6.5      5.156      8.420
REMARK  8 active torsions:
REMARK  status: ('A' for Active; 'I' for Inactive)
REMARK    1  A    between atoms: C_2  and  C_3 
REMARK    2  A    between atoms: C_3  and  N_4 
REMARK    3  A    between atoms: C_3  and  C_20 
REMARK    4  A    between atoms: N_4  and  C_7 
REMARK    5  A    between atoms: C_7  and  C_8 
REMARK    6  A    between atoms: C_10  and  O_11 
REMARK    7  A    between atoms: C_13  and  O_14 
REMARK    8  A    between atoms: C_16  and  O_17 
ROOT
HETATM    1  N   UNL     1     -43.024  57.297 -52.540  1.00  0.00    -0.060 N 
HETATM    2  H   UNL     1     -42.809  58.103 -53.134  1.00  0.00     0.278 HD
HETATM    3  H   UNL     1     -43.101  56.482 -53.172  1.00  0.00     0.278 HD
ENDROOT
BRANCH   1   4
HETATM    4  C   UNL     1     -41.920  56.948 -51.584  1.00  0.00     0.258 C 
BRANCH   4   5
HETATM    5  C   UNL     1     -40.828  58.047 -51.585  1.00  0.00     0.016 C 
HETATM    6  C   UNL     1     -41.040  59.049 -50.445  1.00  0.00     0.012 C 
HETATM    7  C   UNL     1     -40.699  58.799 -52.916  1.00  0.00     0.012 C 
ENDBRANCH   4   5
BRANCH   4   8
HETATM    8  C   UNL     1     -41.370  55.612 -51.985  1.00  0.00     0.136 A 
HETATM    9  N   UNL     1     -40.866  54.740 -51.130  1.00  0.00    -0.231 NA
HETATM   10  C   UNL     1     -40.465  53.670 -51.894  1.00  0.00     0.085 A 
HETATM   11  C   UNL     1     -40.709  53.909 -53.242  1.00  0.00     0.062 A 
HETATM   12  C   UNL     1     -39.878  52.459 -51.504  1.00  0.00     0.034 A 
HETATM   13  N   UNL     1     -41.292  55.151 -53.276  1.00  0.00    -0.341 N 
HETATM   14  C   UNL     1     -40.389  52.997 -54.250  1.00  0.00     0.032 A 
HETATM   15  H   UNL     1     -41.604  55.620 -54.117  1.00  0.00     0.167 HD
HETATM   16  C   UNL     1     -39.799  51.794 -53.843  1.00  0.00     0.002 A 
HETATM   17  C   UNL     1     -39.548  51.527 -52.496  1.00  0.00     0.002 A 
ENDBRANCH   4   8
ENDBRANCH   1   4
BRANCH   1  18
HETATM   18  C   UNL     1     -44.365  57.472 -51.920  1.00  0.00     0.272 C 
BRANCH  18  19
HETATM   19  C   UNL     1     -44.594  58.907 -51.550  1.00  0.00    -0.027 A 
HETATM   20  C   UNL     1     -45.260  59.243 -50.366  1.00  0.00     0.048 A 
HETATM   21  C   UNL     1     -45.525  60.583 -50.054  1.00  0.00     0.104 A 
HETATM   22  C   UNL     1     -45.138  61.610 -50.941  1.00  0.00     0.135 A 
HETATM   23  C   UNL     1     -44.490  61.279 -52.141  1.00  0.00     0.104 A 
HETATM   24  C   UNL     1     -44.220  59.932 -52.426  1.00  0.00     0.048 A 
BRANCH  21  25
HETATM   25  O   UNL     1     -46.252  60.936 -48.944  1.00  0.00    -0.353 OA
HETATM   26  C   UNL     1     -45.527  60.997 -47.719  1.00  0.00     0.210 C 
ENDBRANCH  21  25
BRANCH  22  27
HETATM   27  O   UNL     1     -45.465  62.920 -50.698  1.00  0.00    -0.351 OA
HETATM   28  C   UNL     1     -46.700  63.326 -51.287  1.00  0.00     0.210 C 
ENDBRANCH  22  27
BRANCH  23  29
HETATM   29  O   UNL     1     -44.061  62.102 -53.148  1.00  0.00    -0.353 OA
HETATM   30  C   UNL     1     -43.032  61.648 -54.017  1.00  0.00     0.210 C 
ENDBRANCH  23  29
ENDBRANCH  18  19
ENDBRANCH   1  18
TORSDOF 8
ENDMDL
MODEL 10
REMARK VINA RESULT:      -6.5      3.535      7.784
REMARK  8 active torsions:
REMARK  status: ('A' for Active; 'I' for Inactive)
REMARK    1  A    between atoms: C_2  and  C_3 
REMARK    2  A    between atoms: C_3  and  N_4 
REMARK    3  A    between atoms: C_3  and  C_20 
REMARK    4  A    between atoms: N_4  and  C_7 
REMARK    5  A    between atoms: C_7  and  C_8 
REMARK    6  A    between atoms: C_10  and  O_11 
REMARK    7  A    between atoms: C_13  and  O_14 
REMARK    8  A    between atoms: C_16  and  O_17 
ROOT
HETATM    1  N   UNL     1     -44.065  56.037 -54.066  1.00  0.00    -0.060 N 
HETATM    2  H   UNL     1     -43.619  55.560 -54.854  1.00  0.00     0.278 HD
HETATM    3  H   UNL     1     -44.875  55.454 -53.794  1.00  0.00     0.278 HD
ENDROOT
BRANCH   1   4
HETATM    4  C   UNL     1     -43.201  56.102 -52.839  1.00  0.00     0.258 C 
BRANCH   4   5
HETATM    5  C   UNL     1     -42.434  57.446 -52.783  1.00  0.00     0.016 C 
HETATM    6  C   UNL     1     -41.118  57.374 -53.567  1.00  0.00     0.012 C 
HETATM    7  C   UNL     1     -42.159  57.952 -51.361  1.00  0.00     0.012 C 
ENDBRANCH   4   5
BRANCH   4   8
HETATM    8  C   UNL     1     -42.271  54.927 -52.869  1.00  0.00     0.136 A 
HETATM    9  N   UNL     1     -42.098  54.156 -53.928  1.00  0.00    -0.231 NA
HETATM   10  C   UNL     1     -41.190  53.200 -53.539  1.00  0.00     0.085 A 
HETATM   11  C   UNL     1     -40.823  53.382 -52.210  1.00  0.00     0.062 A 
HETATM   12  C   UNL     1     -40.635  52.140 -54.268  1.00  0.00     0.034 A 
HETATM   13  N   UNL     1     -41.521  54.492 -51.804  1.00  0.00    -0.341 N 
HETATM   14  C   UNL     1     -39.923  52.547 -51.545  1.00  0.00     0.032 A 
HETATM   15  H   UNL     1     -41.469  54.901 -50.879  1.00  0.00     0.167 HD
HETATM   16  C   UNL     1     -39.382  51.490 -52.287  1.00  0.00     0.002 A 
HETATM   17  C   UNL     1     -39.728  51.289 -53.624  1.00  0.00     0.002 A 
ENDBRANCH   4   8
ENDBRANCH   1   4
BRANCH   1  18
HETATM   18  C   UNL     1     -44.623  57.340 -54.516  1.00  0.00     0.272 C 
BRANCH  18  19
HETATM   19  C   UNL     1     -44.227  57.623 -55.935  1.00  0.00    -0.027 A 
HETATM   20  C   UNL     1     -44.376  58.905 -56.477  1.00  0.00     0.048 A 
HETATM   21  C   UNL     1     -44.062  59.151 -57.820  1.00  0.00     0.104 A 
HETATM   22  C   UNL     1     -43.608  58.101 -58.648  1.00  0.00     0.135 A 
HETATM   23  C   UNL     1     -43.480  56.809 -58.117  1.00  0.00     0.104 A 
HETATM   24  C   UNL     1     -43.784  56.589 -56.765  1.00  0.00     0.048 A 
BRANCH  21  25
HETATM   25  O   UNL     1     -44.280  60.376 -58.400  1.00  0.00    -0.353 OA
HETATM   26  C   UNL     1     -44.595  61.440 -57.507  1.00  0.00     0.210 C 
ENDBRANCH  21  25
BRANCH  22  27
HETATM   27  O   UNL     1     -43.380  58.300 -59.986  1.00  0.00    -0.351 OA
HETATM   28  C   UNL     1     -42.002  58.466 -60.319  1.00  0.00     0.210 C 
ENDBRANCH  22  27
BRANCH  23  29
HETATM   29  O   UNL     1     -43.092  55.653 -58.741  1.00  0.00    -0.353 OA
HETATM   30  C   UNL     1     -44.054  54.915 -59.483  1.00  0.00     0.210 C 
ENDBRANCH  23  29
ENDBRANCH  18  19
ENDBRANCH   1  18
TORSDOF 8
ENDMDL
