MODEL 1
REMARK VINA RESULT:      -7.9      0.000      0.000
REMARK  5 active torsions:
REMARK  status: ('A' for Active; 'I' for Inactive)
REMARK    1  A    between atoms: C_7  and  C_8 
REMARK    2  A    between atoms: N_9  and  C_10 
REMARK    3  A    between atoms: C_10  and  C_11 
REMARK       I    between atoms: C_11  and  N_12 
REMARK    4  A    between atoms: N_12  and  C_13 
REMARK    5  A    between atoms: C_13  and  C_14 
ROOT
HETATM    1  C   UNL     1     -43.998  56.374 -53.399  1.00  0.00     0.158 A 
HETATM    2  N   UNL     1     -43.430  55.040 -53.323  1.00  0.00    -0.326 N 
HETATM    3  C   UNL     1     -42.905  54.614 -54.527  1.00  0.00     0.255 A 
HETATM    4  O   UNL     1     -42.388  53.544 -54.782  1.00  0.00    -0.267 OA
HETATM    5  C   UNL     1     -43.151  55.681 -55.502  1.00  0.00     0.040 A 
HETATM    6  C   UNL     1     -43.811  56.724 -54.849  1.00  0.00    -0.015 A 
HETATM    7  C   UNL     1     -42.854  55.705 -56.851  1.00  0.00     0.017 A 
HETATM    8  C   UNL     1     -43.239  56.837 -57.570  1.00  0.00     0.001 A 
HETATM    9  C   UNL     1     -43.907  57.899 -56.932  1.00  0.00     0.001 A 
HETATM   10  C   UNL     1     -44.201  57.846 -55.564  1.00  0.00     0.011 A 
ENDROOT
BRANCH   1  11
HETATM   11  C   UNL     1     -43.223  57.407 -52.623  1.00  0.00     0.004 A 
HETATM   12  C   UNL     1     -41.845  57.635 -52.545  1.00  0.00     0.017 A 
HETATM   13  C   UNL     1     -40.701  56.896 -53.162  1.00  0.00     0.069 C 
HETATM   14  N   UNL     1     -41.651  58.778 -51.794  1.00  0.00    -0.354 N 
HETATM   15  C   UNL     1     -40.373  59.423 -51.559  1.00  0.00     0.156 C 
HETATM   16  C   UNL     1     -42.852  59.250 -51.305  1.00  0.00     0.045 A 
HETATM   17  C   UNL     1     -43.851  58.416 -51.808  1.00  0.00     0.001 A 
HETATM   18  C   UNL     1     -43.143  60.349 -50.479  1.00  0.00     0.030 A 
HETATM   19  C   UNL     1     -45.195  58.704 -51.477  1.00  0.00     0.014 A 
HETATM   20  C   UNL     1     -45.495  59.800 -50.659  1.00  0.00     0.001 A 
HETATM   21  C   UNL     1     -44.480  60.610 -50.167  1.00  0.00     0.002 A 
ENDBRANCH   1  11
BRANCH   2  22
HETATM   22  C   UNL     1     -43.495  54.219 -52.121  1.00  0.00     0.229 C 
BRANCH  22  23
HETATM   23  C   UNL     1     -42.165  54.031 -51.374  1.00  0.00     0.235 C 
HETATM   24  N   UNL     1     -41.322  53.079 -51.890  1.00  0.00    -0.357 N 
HETATM   25  H   UNL     1     -41.634  52.535 -52.681  1.00  0.00     0.162 HD
HETATM   26  O   UNL     1     -41.851  54.754 -50.429  1.00  0.00    -0.272 OA
BRANCH  24  27
HETATM   27  C   UNL     1     -39.941  52.912 -51.475  1.00  0.00     0.154 C 
BRANCH  27  28
HETATM   28  C   UNL     1     -39.296  51.611 -51.954  1.00  0.00     0.139 C 
HETATM   29  O   UNL     1     -39.573  51.366 -53.351  1.00  0.00    -0.384 OA
HETATM   30  C   UNL     1     -39.778  49.955 -53.519  1.00  0.00     0.168 C 
HETATM   31  C   UNL     1     -39.374  49.290 -52.220  1.00  0.00     0.029 C 
HETATM   32  C   UNL     1     -39.719  50.356 -51.210  1.00  0.00     0.035 C 
ENDBRANCH  27  28
ENDBRANCH  24  27
ENDBRANCH  22  23
ENDBRANCH   2  22
TORSDOF 5
ENDMDL
MODEL 2
REMARK VINA RESULT:      -7.9      3.452      6.510
REMARK  5 active torsions:
REMARK  status: ('A' for Active; 'I' for Inactive)
REMARK    1  A    between atoms: C_7  and  C_8 
REMARK    2  A    between atoms: N_9  and  C_10 
REMARK    3  A    between atoms: C_10  and  C_11 
REMARK       I    between atoms: C_11  and  N_12 
REMARK    4  A    between atoms: N_12  and  C_13 
REMARK    5  A    between atoms: C_13  and  C_14 
ROOT
HETATM    1  C   UNL     1     -42.731  57.992 -57.825  1.00  0.00     0.158 A 
HETATM    2  N   UNL     1     -42.434  58.225 -56.423  1.00  0.00    -0.326 N 
HETATM    3  C   UNL     1     -41.898  59.477 -56.191  1.00  0.00     0.255 A 
HETATM    4  O   UNL     1     -41.529  59.950 -55.134  1.00  0.00    -0.267 OA
HETATM    5  C   UNL     1     -41.776  60.138 -57.494  1.00  0.00     0.040 A 
HETATM    6  C   UNL     1     -42.253  59.263 -58.472  1.00  0.00    -0.015 A 
HETATM    7  C   UNL     1     -41.252  61.382 -57.788  1.00  0.00     0.017 A 
HETATM    8  C   UNL     1     -41.213  61.758 -59.130  1.00  0.00     0.001 A 
HETATM    9  C   UNL     1     -41.686  60.891 -60.132  1.00  0.00     0.001 A 
HETATM   10  C   UNL     1     -42.207  59.633 -59.807  1.00  0.00     0.011 A 
ENDROOT
BRANCH   1  11
HETATM   11  C   UNL     1     -44.205  57.906 -58.126  1.00  0.00     0.004 A 
HETATM   12  C   UNL     1     -45.283  58.607 -57.576  1.00  0.00     0.017 A 
HETATM   13  C   UNL     1     -45.325  59.624 -56.481  1.00  0.00     0.069 C 
HETATM   14  N   UNL     1     -46.418  58.248 -58.278  1.00  0.00    -0.354 N 
HETATM   15  C   UNL     1     -47.736  58.824 -58.096  1.00  0.00     0.156 C 
HETATM   16  C   UNL     1     -46.127  57.269 -59.206  1.00  0.00     0.045 A 
HETATM   17  C   UNL     1     -44.754  57.037 -59.136  1.00  0.00     0.001 A 
HETATM   18  C   UNL     1     -46.955  56.583 -60.112  1.00  0.00     0.030 A 
HETATM   19  C   UNL     1     -44.188  56.087 -60.017  1.00  0.00     0.014 A 
HETATM   20  C   UNL     1     -45.002  55.403 -60.926  1.00  0.00     0.001 A 
HETATM   21  C   UNL     1     -46.368  55.649 -60.970  1.00  0.00     0.002 A 
ENDBRANCH   1  11
BRANCH   2  22
HETATM   22  C   UNL     1     -42.607  57.205 -55.397  1.00  0.00     0.229 C 
BRANCH  22  23
HETATM   23  C   UNL     1     -42.070  55.810 -55.752  1.00  0.00     0.235 C 
HETATM   24  N   UNL     1     -40.891  55.454 -55.146  1.00  0.00    -0.357 N 
HETATM   25  H   UNL     1     -40.428  56.129 -54.556  1.00  0.00     0.162 HD
HETATM   26  O   UNL     1     -42.710  55.037 -56.464  1.00  0.00    -0.272 OA
BRANCH  24  27
HETATM   27  C   UNL     1     -40.344  54.109 -55.168  1.00  0.00     0.154 C 
BRANCH  27  28
HETATM   28  C   UNL     1     -40.652  53.288 -53.915  1.00  0.00     0.139 C 
HETATM   29  O   UNL     1     -40.531  54.086 -52.717  1.00  0.00    -0.384 OA
HETATM   30  C   UNL     1     -39.956  53.260 -51.692  1.00  0.00     0.168 C 
HETATM   31  C   UNL     1     -39.950  51.840 -52.220  1.00  0.00     0.029 C 
HETATM   32  C   UNL     1     -39.778  52.064 -53.702  1.00  0.00     0.035 C 
ENDBRANCH  27  28
ENDBRANCH  24  27
ENDBRANCH  22  23
ENDBRANCH   2  22
TORSDOF 5
ENDMDL
MODEL 3
REMARK VINA RESULT:      -7.9      2.239      4.537
REMARK  5 active torsions:
REMARK  status: ('A' for Active; 'I' for Inactive)
REMARK    1  A    between atoms: C_7  and  C_8 
REMARK    2  A    between atoms: N_9  and  C_10 
REMARK    3  A    between atoms: C_10  and  C_11 
REMARK       I    between atoms: C_11  and  N_12 
REMARK    4  A    between atoms: N_12  and  C_13 
REMARK    5  A    between atoms: C_13  and  C_14 
ROOT
HETATM    1  C   UNL     1     -44.591  57.754 -52.337  1.00  0.00     0.158 A 
HETATM    2  N   UNL     1     -44.681  57.853 -53.783  1.00  0.00    -0.326 N 
HETATM    3  C   UNL     1     -45.140  59.085 -54.206  1.00  0.00     0.255 A 
HETATM    4  O   UNL     1     -45.343  59.458 -55.345  1.00  0.00    -0.267 OA
HETATM    5  C   UNL     1     -45.424  59.873 -53.003  1.00  0.00     0.040 A 
HETATM    6  C   UNL     1     -45.116  59.090 -51.888  1.00  0.00    -0.015 A 
HETATM    7  C   UNL     1     -45.945  61.148 -52.906  1.00  0.00     0.017 A 
HETATM    8  C   UNL     1     -46.161  61.655 -51.625  1.00  0.00     0.001 A 
HETATM    9  C   UNL     1     -45.860  60.882 -50.487  1.00  0.00     0.001 A 
HETATM   10  C   UNL     1     -45.337  59.590 -50.614  1.00  0.00     0.011 A 
ENDROOT
BRANCH   1  11
HETATM   11  C   UNL     1     -43.177  57.673 -51.823  1.00  0.00     0.004 A 
HETATM   12  C   UNL     1     -42.121  58.583 -51.929  1.00  0.00     0.017 A 
HETATM   13  C   UNL     1     -42.040  59.901 -52.632  1.00  0.00     0.069 C 
HETATM   14  N   UNL     1     -41.067  58.092 -51.184  1.00  0.00    -0.354 N 
HETATM   15  C   UNL     1     -39.814  58.782 -50.943  1.00  0.00     0.156 C 
HETATM   16  C   UNL     1     -41.371  56.849 -50.670  1.00  0.00     0.045 A 
HETATM   17  C   UNL     1     -42.682  56.562 -51.050  1.00  0.00     0.001 A 
HETATM   18  C   UNL     1     -40.609  55.962 -49.890  1.00  0.00     0.030 A 
HETATM   19  C   UNL     1     -43.254  55.342 -50.620  1.00  0.00     0.014 A 
HETATM   20  C   UNL     1     -42.506  54.456 -49.838  1.00  0.00     0.001 A 
HETATM   21  C   UNL     1     -41.200  54.764 -49.479  1.00  0.00     0.002 A 
ENDBRANCH   1  11
BRANCH   2  22
HETATM   22  C   UNL     1     -44.397  56.735 -54.673  1.00  0.00     0.229 C 
BRANCH  22  23
HETATM   23  C   UNL     1     -42.913  56.507 -54.999  1.00  0.00     0.235 C 
HETATM   24  N   UNL     1     -42.489  55.202 -54.967  1.00  0.00    -0.357 N 
HETATM   25  H   UNL     1     -43.146  54.488 -54.689  1.00  0.00     0.162 HD
HETATM   26  O   UNL     1     -42.183  57.433 -55.352  1.00  0.00    -0.272 OA
BRANCH  24  27
HETATM   27  C   UNL     1     -41.199  54.758 -55.463  1.00  0.00     0.154 C 
BRANCH  27  28
HETATM   28  C   UNL     1     -40.365  53.989 -54.437  1.00  0.00     0.139 C 
HETATM   29  O   UNL     1     -40.077  52.647 -54.888  1.00  0.00    -0.384 OA
HETATM   30  C   UNL     1     -40.141  51.776 -53.748  1.00  0.00     0.168 C 
HETATM   31  C   UNL     1     -40.234  52.658 -52.520  1.00  0.00     0.029 C 
HETATM   32  C   UNL     1     -40.984  53.852 -53.057  1.00  0.00     0.035 C 
ENDBRANCH  27  28
ENDBRANCH  24  27
ENDBRANCH  22  23
ENDBRANCH   2  22
TORSDOF 5
ENDMDL
MODEL 4
REMARK VINA RESULT:      -7.7      2.114      6.288
REMARK  5 active torsions:
REMARK  status: ('A' for Active; 'I' for Inactive)
REMARK    1  A    between atoms: C_7  and  C_8 
REMARK    2  A    between atoms: N_9  and  C_10 
REMARK    3  A    between atoms: C_10  and  C_11 
REMARK       I    between atoms: C_11  and  N_12 
REMARK    4  A    between atoms: N_12  and  C_13 
REMARK    5  A    between atoms: C_13  and  C_14 
ROOT
HETATM    1  C   UNL     1     -40.599  55.374 -52.564  1.00  0.00     0.158 A 
HETATM    2  N   UNL     1     -40.710  54.309 -53.545  1.00  0.00    -0.326 N 
HETATM    3  C   UNL     1     -40.743  53.053 -52.968  1.00  0.00     0.255 A 
HETATM    4  O   UNL     1     -40.807  51.975 -53.525  1.00  0.00    -0.267 OA
HETATM    5  C   UNL     1     -40.609  53.244 -51.521  1.00  0.00     0.040 A 
HETATM    6  C   UNL     1     -40.509  54.614 -51.269  1.00  0.00    -0.015 A 
HETATM    7  C   UNL     1     -40.540  52.289 -50.525  1.00  0.00     0.017 A 
HETATM    8  C   UNL     1     -40.366  52.740 -49.217  1.00  0.00     0.001 A 
HETATM    9  C   UNL     1     -40.261  54.116 -48.942  1.00  0.00     0.001 A 
HETATM   10  C   UNL     1     -40.328  55.063 -49.971  1.00  0.00     0.011 A 
ENDROOT
BRANCH   1  11
HETATM   11  C   UNL     1     -41.836  56.227 -52.455  1.00  0.00     0.004 A 
HETATM   12  C   UNL     1     -43.072  55.959 -51.858  1.00  0.00     0.017 A 
HETATM   13  C   UNL     1     -43.579  54.723 -51.185  1.00  0.00     0.069 C 
HETATM   14  N   UNL     1     -43.829  57.112 -51.923  1.00  0.00    -0.354 N 
HETATM   15  C   UNL     1     -45.137  57.294 -51.325  1.00  0.00     0.156 C 
HETATM   16  C   UNL     1     -43.160  58.095 -52.623  1.00  0.00     0.045 A 
HETATM   17  C   UNL     1     -41.913  57.572 -52.966  1.00  0.00     0.001 A 
HETATM   18  C   UNL     1     -43.541  59.403 -52.968  1.00  0.00     0.030 A 
HETATM   19  C   UNL     1     -41.010  58.400 -53.672  1.00  0.00     0.014 A 
HETATM   20  C   UNL     1     -41.378  59.706 -54.014  1.00  0.00     0.001 A 
HETATM   21  C   UNL     1     -42.629  60.198 -53.666  1.00  0.00     0.002 A 
ENDBRANCH   1  11
BRANCH   2  22
HETATM   22  C   UNL     1     -40.698  54.550 -54.981  1.00  0.00     0.229 C 
BRANCH  22  23
HETATM   23  C   UNL     1     -42.059  54.890 -55.608  1.00  0.00     0.235 C 
HETATM   24  N   UNL     1     -42.040  55.850 -56.590  1.00  0.00    -0.357 N 
HETATM   25  H   UNL     1     -41.163  56.303 -56.805  1.00  0.00     0.162 HD
HETATM   26  O   UNL     1     -43.079  54.272 -55.304  1.00  0.00    -0.272 OA
BRANCH  24  27
HETATM   27  C   UNL     1     -43.167  56.144 -57.455  1.00  0.00     0.154 C 
BRANCH  27  28
HETATM   28  C   UNL     1     -43.278  57.615 -57.861  1.00  0.00     0.139 C 
HETATM   29  O   UNL     1     -41.999  58.146 -58.275  1.00  0.00    -0.384 OA
HETATM   30  C   UNL     1     -41.910  59.499 -57.800  1.00  0.00     0.168 C 
HETATM   31  C   UNL     1     -43.283  59.880 -57.287  1.00  0.00     0.029 C 
HETATM   32  C   UNL     1     -43.805  58.554 -56.791  1.00  0.00     0.035 C 
ENDBRANCH  27  28
ENDBRANCH  24  27
ENDBRANCH  22  23
ENDBRANCH   2  22
TORSDOF 5
ENDMDL
MODEL 5
REMARK VINA RESULT:      -7.7     15.550     18.598
REMARK  5 active torsions:
REMARK  status: ('A' for Active; 'I' for Inactive)
REMARK    1  A    between atoms: C_7  and  C_8 
REMARK    2  A    between atoms: N_9  and  C_10 
REMARK    3  A    between atoms: C_10  and  C_11 
REMARK       I    between atoms: C_11  and  N_12 
REMARK    4  A    between atoms: N_12  and  C_13 
REMARK    5  A    between atoms: C_13  and  C_14 
ROOT
HETATM    1  C   UNL     1     -35.038  40.675 -56.640  1.00  0.00     0.158 A 
HETATM    2  N   UNL     1     -36.036  41.453 -55.928  1.00  0.00    -0.326 N 
HETATM    3  C   UNL     1     -37.328  41.106 -56.271  1.00  0.00     0.255 A 
HETATM    4  O   UNL     1     -38.367  41.590 -55.867  1.00  0.00    -0.267 OA
HETATM    5  C   UNL     1     -37.232  40.066 -57.300  1.00  0.00     0.040 A 
HETATM    6  C   UNL     1     -35.880  39.812 -57.537  1.00  0.00    -0.015 A 
HETATM    7  C   UNL     1     -38.249  39.435 -57.991  1.00  0.00     0.017 A 
HETATM    8  C   UNL     1     -37.881  38.503 -58.961  1.00  0.00     0.001 A 
HETATM    9  C   UNL     1     -36.524  38.233 -59.217  1.00  0.00     0.001 A 
HETATM   10  C   UNL     1     -35.513  38.892 -58.507  1.00  0.00     0.011 A 
ENDROOT
BRANCH   1  11
HETATM   11  C   UNL     1     -34.269  39.726 -55.758  1.00  0.00     0.004 A 
HETATM   12  C   UNL     1     -34.713  38.870 -54.745  1.00  0.00     0.017 A 
HETATM   13  C   UNL     1     -36.080  38.662 -54.178  1.00  0.00     0.069 C 
HETATM   14  N   UNL     1     -33.631  38.121 -54.325  1.00  0.00    -0.354 N 
HETATM   15  C   UNL     1     -33.681  37.039 -53.360  1.00  0.00     0.156 C 
HETATM   16  C   UNL     1     -32.479  38.526 -54.968  1.00  0.00     0.045 A 
HETATM   17  C   UNL     1     -32.846  39.524 -55.869  1.00  0.00     0.001 A 
HETATM   18  C   UNL     1     -31.150  38.085 -54.843  1.00  0.00     0.030 A 
HETATM   19  C   UNL     1     -31.842  40.094 -56.686  1.00  0.00     0.014 A 
HETATM   20  C   UNL     1     -30.517  39.657 -56.573  1.00  0.00     0.001 A 
HETATM   21  C   UNL     1     -30.178  38.666 -55.662  1.00  0.00     0.002 A 
ENDBRANCH   1  11
BRANCH   2  22
HETATM   22  C   UNL     1     -35.694  42.538 -55.018  1.00  0.00     0.229 C 
BRANCH  22  23
HETATM   23  C   UNL     1     -35.765  42.197 -53.521  1.00  0.00     0.235 C 
HETATM   24  N   UNL     1     -34.573  41.860 -52.930  1.00  0.00    -0.357 N 
HETATM   25  H   UNL     1     -33.746  41.809 -53.506  1.00  0.00     0.162 HD
HETATM   26  O   UNL     1     -36.814  42.307 -52.886  1.00  0.00    -0.272 OA
BRANCH  24  27
HETATM   27  C   UNL     1     -34.390  41.730 -51.496  1.00  0.00     0.154 C 
BRANCH  27  28
HETATM   28  C   UNL     1     -33.660  40.456 -51.070  1.00  0.00     0.139 C 
HETATM   29  O   UNL     1     -33.440  40.424 -49.642  1.00  0.00    -0.384 OA
HETATM   30  C   UNL     1     -32.148  39.841 -49.408  1.00  0.00     0.168 C 
HETATM   31  C   UNL     1     -31.668  39.280 -50.731  1.00  0.00     0.029 C 
HETATM   32  C   UNL     1     -32.304  40.230 -51.716  1.00  0.00     0.035 C 
ENDBRANCH  27  28
ENDBRANCH  24  27
ENDBRANCH  22  23
ENDBRANCH   2  22
TORSDOF 5
ENDMDL
MODEL 6
REMARK VINA RESULT:      -7.4      3.494      6.879
REMARK  5 active torsions:
REMARK  status: ('A' for Active; 'I' for Inactive)
REMARK    1  A    between atoms: C_7  and  C_8 
REMARK    2  A    between atoms: N_9  and  C_10 
REMARK    3  A    between atoms: C_10  and  C_11 
REMARK       I    between atoms: C_11  and  N_12 
REMARK    4  A    between atoms: N_12  and  C_13 
REMARK    5  A    between atoms: C_13  and  C_14 
ROOT
HETATM    1  C   UNL     1     -43.785  58.248 -57.041  1.00  0.00     0.158 A 
HETATM    2  N   UNL     1     -44.399  58.741 -55.821  1.00  0.00    -0.326 N 
HETATM    3  C   UNL     1     -44.083  60.060 -55.559  1.00  0.00     0.255 A 
HETATM    4  O   UNL     1     -44.422  60.737 -54.608  1.00  0.00    -0.267 OA
HETATM    5  C   UNL     1     -43.173  60.500 -56.621  1.00  0.00     0.040 A 
HETATM    6  C   UNL     1     -42.978  59.432 -57.498  1.00  0.00    -0.015 A 
HETATM    7  C   UNL     1     -42.545  61.721 -56.771  1.00  0.00     0.017 A 
HETATM    8  C   UNL     1     -41.685  61.869 -57.858  1.00  0.00     0.001 A 
HETATM    9  C   UNL     1     -41.472  60.804 -58.754  1.00  0.00     0.001 A 
HETATM   10  C   UNL     1     -42.116  59.574 -58.575  1.00  0.00     0.011 A 
ENDROOT
BRANCH   1  11
HETATM   11  C   UNL     1     -44.771  57.971 -58.146  1.00  0.00     0.004 A 
HETATM   12  C   UNL     1     -45.853  58.729 -58.605  1.00  0.00     0.017 A 
HETATM   13  C   UNL     1     -46.408  60.028 -58.114  1.00  0.00     0.069 C 
HETATM   14  N   UNL     1     -46.367  58.094 -59.719  1.00  0.00    -0.354 N 
HETATM   15  C   UNL     1     -47.432  58.605 -60.561  1.00  0.00     0.156 C 
HETATM   16  C   UNL     1     -45.713  56.901 -59.945  1.00  0.00     0.045 A 
HETATM   17  C   UNL     1     -44.711  56.798 -58.981  1.00  0.00     0.001 A 
HETATM   18  C   UNL     1     -45.909  55.914 -60.926  1.00  0.00     0.030 A 
HETATM   19  C   UNL     1     -43.865  55.665 -59.011  1.00  0.00     0.014 A 
HETATM   20  C   UNL     1     -44.048  54.680 -59.987  1.00  0.00     0.001 A 
HETATM   21  C   UNL     1     -45.059  54.805 -60.931  1.00  0.00     0.002 A 
ENDBRANCH   1  11
BRANCH   2  22
HETATM   22  C   UNL     1     -45.190  57.896 -54.935  1.00  0.00     0.229 C 
BRANCH  22  23
HETATM   23  C   UNL     1     -44.387  56.955 -54.024  1.00  0.00     0.235 C 
HETATM   24  N   UNL     1     -44.385  55.632 -54.388  1.00  0.00    -0.357 N 
HETATM   25  H   UNL     1     -44.937  55.350 -55.185  1.00  0.00     0.162 HD
HETATM   26  O   UNL     1     -43.721  57.386 -53.083  1.00  0.00    -0.272 OA
BRANCH  24  27
HETATM   27  C   UNL     1     -43.511  54.633 -53.801  1.00  0.00     0.154 C 
BRANCH  27  28
HETATM   28  C   UNL     1     -42.314  54.256 -54.676  1.00  0.00     0.139 C 
HETATM   29  O   UNL     1     -41.784  52.960 -54.317  1.00  0.00    -0.384 OA
HETATM   30  C   UNL     1     -40.353  53.023 -54.429  1.00  0.00     0.168 C 
HETATM   31  C   UNL     1     -40.019  54.333 -55.113  1.00  0.00     0.029 C 
HETATM   32  C   UNL     1     -41.143  55.221 -54.639  1.00  0.00     0.035 C 
ENDBRANCH  27  28
ENDBRANCH  24  27
ENDBRANCH  22  23
ENDBRANCH   2  22
TORSDOF 5
ENDMDL
MODEL 7
REMARK VINA RESULT:      -7.4      3.025      6.766
REMARK  5 active torsions:
REMARK  status: ('A' for Active; 'I' for Inactive)
REMARK    1  A    between atoms: C_7  and  C_8 
REMARK    2  A    between atoms: N_9  and  C_10 
REMARK    3  A    between atoms: C_10  and  C_11 
REMARK       I    between atoms: C_11  and  N_12 
REMARK    4  A    between atoms: N_12  and  C_13 
REMARK    5  A    between atoms: C_13  and  C_14 
ROOT
HETATM    1  C   UNL     1     -43.269  57.300 -53.677  1.00  0.00     0.158 A 
HETATM    2  N   UNL     1     -42.616  58.348 -54.441  1.00  0.00    -0.326 N 
HETATM    3  C   UNL     1     -42.882  59.611 -53.949  1.00  0.00     0.255 A 
HETATM    4  O   UNL     1     -42.502  60.680 -54.385  1.00  0.00    -0.267 OA
HETATM    5  C   UNL     1     -43.795  59.445 -52.815  1.00  0.00     0.040 A 
HETATM    6  C   UNL     1     -44.043  58.080 -52.652  1.00  0.00    -0.015 A 
HETATM    7  C   UNL     1     -44.384  60.415 -52.027  1.00  0.00     0.017 A 
HETATM    8  C   UNL     1     -45.258  59.986 -51.029  1.00  0.00     0.001 A 
HETATM    9  C   UNL     1     -45.524  58.616 -50.850  1.00  0.00     0.001 A 
HETATM   10  C   UNL     1     -44.918  57.652 -51.666  1.00  0.00     0.011 A 
ENDROOT
BRANCH   1  11
HETATM   11  C   UNL     1     -42.313  56.433 -52.900  1.00  0.00     0.004 A 
HETATM   12  C   UNL     1     -41.672  56.662 -51.678  1.00  0.00     0.017 A 
HETATM   13  C   UNL     1     -41.686  57.858 -50.782  1.00  0.00     0.069 C 
HETATM   14  N   UNL     1     -40.994  55.507 -51.337  1.00  0.00    -0.354 N 
HETATM   15  C   UNL     1     -40.284  55.286 -50.092  1.00  0.00     0.156 C 
HETATM   16  C   UNL     1     -41.100  54.566 -52.340  1.00  0.00     0.045 A 
HETATM   17  C   UNL     1     -41.919  55.114 -53.327  1.00  0.00     0.001 A 
HETATM   18  C   UNL     1     -40.558  53.274 -52.452  1.00  0.00     0.030 A 
HETATM   19  C   UNL     1     -42.214  54.329 -54.466  1.00  0.00     0.014 A 
HETATM   20  C   UNL     1     -41.684  53.040 -54.584  1.00  0.00     0.001 A 
HETATM   21  C   UNL     1     -40.866  52.521 -53.589  1.00  0.00     0.002 A 
ENDBRANCH   1  11
BRANCH   2  22
HETATM   22  C   UNL     1     -41.839  58.085 -55.645  1.00  0.00     0.229 C 
BRANCH  22  23
HETATM   23  C   UNL     1     -42.591  58.263 -56.972  1.00  0.00     0.235 C 
HETATM   24  N   UNL     1     -41.974  57.740 -58.082  1.00  0.00    -0.357 N 
HETATM   25  H   UNL     1     -41.061  57.323 -57.974  1.00  0.00     0.162 HD
HETATM   26  O   UNL     1     -43.714  58.764 -57.012  1.00  0.00    -0.272 OA
BRANCH  24  27
HETATM   27  C   UNL     1     -42.618  57.602 -59.375  1.00  0.00     0.154 C 
BRANCH  27  28
HETATM   28  C   UNL     1     -42.987  56.163 -59.740  1.00  0.00     0.139 C 
HETATM   29  O   UNL     1     -43.813  56.113 -60.925  1.00  0.00    -0.384 OA
HETATM   30  C   UNL     1     -44.788  55.075 -60.739  1.00  0.00     0.168 C 
HETATM   31  C   UNL     1     -44.387  54.307 -59.496  1.00  0.00     0.029 C 
HETATM   32  C   UNL     1     -43.731  55.385 -58.669  1.00  0.00     0.035 C 
ENDBRANCH  27  28
ENDBRANCH  24  27
ENDBRANCH  22  23
ENDBRANCH   2  22
TORSDOF 5
ENDMDL
MODEL 8
REMARK VINA RESULT:      -7.3      3.536      6.195
REMARK  5 active torsions:
REMARK  status: ('A' for Active; 'I' for Inactive)
REMARK    1  A    between atoms: C_7  and  C_8 
REMARK    2  A    between atoms: N_9  and  C_10 
REMARK    3  A    between atoms: C_10  and  C_11 
REMARK       I    between atoms: C_11  and  N_12 
REMARK    4  A    between atoms: N_12  and  C_13 
REMARK    5  A    between atoms: C_13  and  C_14 
ROOT
HETATM    1  C   UNL     1     -42.666  57.946 -58.207  1.00  0.00     0.158 A 
HETATM    2  N   UNL     1     -42.519  58.233 -56.792  1.00  0.00    -0.326 N 
HETATM    3  C   UNL     1     -42.049  59.510 -56.552  1.00  0.00     0.255 A 
HETATM    4  O   UNL     1     -41.802  60.028 -55.481  1.00  0.00    -0.267 OA
HETATM    5  C   UNL     1     -41.818  60.132 -57.859  1.00  0.00     0.040 A 
HETATM    6  C   UNL     1     -42.167  59.211 -58.848  1.00  0.00    -0.015 A 
HETATM    7  C   UNL     1     -41.306  61.384 -58.143  1.00  0.00     0.017 A 
HETATM    8  C   UNL     1     -41.144  61.718 -59.487  1.00  0.00     0.001 A 
HETATM    9  C   UNL     1     -41.488  60.804 -60.500  1.00  0.00     0.001 A 
HETATM   10  C   UNL     1     -41.998  59.539 -60.184  1.00  0.00     0.011 A 
ENDROOT
BRANCH   1  11
HETATM   11  C   UNL     1     -44.099  57.798 -58.649  1.00  0.00     0.004 A 
HETATM   12  C   UNL     1     -44.707  56.816 -59.437  1.00  0.00     0.017 A 
HETATM   13  C   UNL     1     -44.123  55.630 -60.136  1.00  0.00     0.069 C 
HETATM   14  N   UNL     1     -46.066  57.068 -59.448  1.00  0.00    -0.354 N 
HETATM   15  C   UNL     1     -47.072  56.225 -60.064  1.00  0.00     0.156 C 
HETATM   16  C   UNL     1     -46.350  58.234 -58.769  1.00  0.00     0.045 A 
HETATM   17  C   UNL     1     -45.143  58.711 -58.257  1.00  0.00     0.001 A 
HETATM   18  C   UNL     1     -47.569  58.899 -58.548  1.00  0.00     0.030 A 
HETATM   19  C   UNL     1     -45.163  59.895 -57.483  1.00  0.00     0.014 A 
HETATM   20  C   UNL     1     -46.372  60.560 -57.252  1.00  0.00     0.001 A 
HETATM   21  C   UNL     1     -47.559  60.067 -57.780  1.00  0.00     0.002 A 
ENDBRANCH   1  11
BRANCH   2  22
HETATM   22  C   UNL     1     -42.762  57.241 -55.753  1.00  0.00     0.229 C 
BRANCH  22  23
HETATM   23  C   UNL     1     -42.212  55.834 -56.037  1.00  0.00     0.235 C 
HETATM   24  N   UNL     1     -41.019  55.527 -55.430  1.00  0.00    -0.357 N 
HETATM   25  H   UNL     1     -40.557  56.241 -54.886  1.00  0.00     0.162 HD
HETATM   26  O   UNL     1     -42.852  55.015 -56.695  1.00  0.00    -0.272 OA
BRANCH  24  27
HETATM   27  C   UNL     1     -40.456  54.191 -55.385  1.00  0.00     0.154 C 
BRANCH  27  28
HETATM   28  C   UNL     1     -40.796  53.410 -54.115  1.00  0.00     0.139 C 
HETATM   29  O   UNL     1     -40.764  54.261 -52.947  1.00  0.00    -0.384 OA
HETATM   30  C   UNL     1     -40.212  53.499 -51.862  1.00  0.00     0.168 C 
HETATM   31  C   UNL     1     -40.129  52.060 -52.327  1.00  0.00     0.029 C 
HETATM   32  C   UNL     1     -39.892  52.229 -53.807  1.00  0.00     0.035 C 
ENDBRANCH  27  28
ENDBRANCH  24  27
ENDBRANCH  22  23
ENDBRANCH   2  22
TORSDOF 5
ENDMDL
MODEL 9
REMARK VINA RESULT:      -7.2      2.881      6.548
REMARK  5 active torsions:
REMARK  status: ('A' for Active; 'I' for Inactive)
REMARK    1  A    between atoms: C_7  and  C_8 
REMARK    2  A    between atoms: N_9  and  C_10 
REMARK    3  A    between atoms: C_10  and  C_11 
REMARK       I    between atoms: C_11  and  N_12 
REMARK    4  A    between atoms: N_12  and  C_13 
REMARK    5  A    between atoms: C_13  and  C_14 
ROOT
HETATM    1  C   UNL     1     -41.326  57.048 -54.497  1.00  0.00     0.158 A 
HETATM    2  N   UNL     1     -42.032  57.153 -55.761  1.00  0.00    -0.326 N 
HETATM    3  C   UNL     1     -42.517  55.938 -56.205  1.00  0.00     0.255 A 
HETATM    4  O   UNL     1     -43.123  55.703 -57.232  1.00  0.00    -0.267 OA
HETATM    5  C   UNL     1     -42.098  54.928 -55.228  1.00  0.00     0.040 A 
HETATM    6  C   UNL     1     -41.380  55.571 -54.218  1.00  0.00    -0.015 A 
HETATM    7  C   UNL     1     -42.300  53.562 -55.255  1.00  0.00     0.017 A 
HETATM    8  C   UNL     1     -41.754  52.814 -54.213  1.00  0.00     0.001 A 
HETATM    9  C   UNL     1     -41.024  53.442 -53.186  1.00  0.00     0.001 A 
HETATM   10  C   UNL     1     -40.829  54.828 -53.185  1.00  0.00     0.011 A 
ENDROOT
BRANCH   1  11
HETATM   11  C   UNL     1     -42.041  57.710 -53.348  1.00  0.00     0.004 A 
HETATM   12  C   UNL     1     -43.401  57.734 -53.020  1.00  0.00     0.017 A 
HETATM   13  C   UNL     1     -44.583  57.159 -53.733  1.00  0.00     0.069 C 
HETATM   14  N   UNL     1     -43.528  58.376 -51.803  1.00  0.00    -0.354 N 
HETATM   15  C   UNL     1     -44.762  58.522 -51.055  1.00  0.00     0.156 C 
HETATM   16  C   UNL     1     -42.306  58.849 -51.372  1.00  0.00     0.045 A 
HETATM   17  C   UNL     1     -41.359  58.447 -52.314  1.00  0.00     0.001 A 
HETATM   18  C   UNL     1     -41.953  59.581 -50.225  1.00  0.00     0.030 A 
HETATM   19  C   UNL     1     -40.004  58.783 -52.089  1.00  0.00     0.014 A 
HETATM   20  C   UNL     1     -39.642  59.506 -50.947  1.00  0.00     0.001 A 
HETATM   21  C   UNL     1     -40.607  59.899 -50.028  1.00  0.00     0.002 A 
ENDBRANCH   1  11
BRANCH   2  22
HETATM   22  C   UNL     1     -42.133  58.398 -56.511  1.00  0.00     0.229 C 
BRANCH  22  23
HETATM   23  C   UNL     1     -43.559  58.847 -56.863  1.00  0.00     0.235 C 
HETATM   24  N   UNL     1     -43.972  58.571 -58.143  1.00  0.00    -0.357 N 
HETATM   25  H   UNL     1     -43.315  58.144 -58.780  1.00  0.00     0.162 HD
HETATM   26  O   UNL     1     -44.305  59.342 -56.018  1.00  0.00    -0.272 OA
BRANCH  24  27
HETATM   27  C   UNL     1     -45.344  58.704 -58.596  1.00  0.00     0.154 C 
BRANCH  27  28
HETATM   28  C   UNL     1     -45.980  57.392 -59.058  1.00  0.00     0.139 C 
HETATM   29  O   UNL     1     -44.991  56.482 -59.589  1.00  0.00    -0.384 OA
HETATM   30  C   UNL     1     -45.576  55.799 -60.709  1.00  0.00     0.168 C 
HETATM   31  C   UNL     1     -47.054  56.132 -60.709  1.00  0.00     0.029 C 
HETATM   32  C   UNL     1     -47.054  57.522 -60.124  1.00  0.00     0.035 C 
ENDBRANCH  27  28
ENDBRANCH  24  27
ENDBRANCH  22  23
ENDBRANCH   2  22
TORSDOF 5
ENDMDL
MODEL 10
REMARK VINA RESULT:      -7.2      2.062      4.193
REMARK  5 active torsions:
REMARK  status: ('A' for Active; 'I' for Inactive)
REMARK    1  A    between atoms: C_7  and  C_8 
REMARK    2  A    between atoms: N_9  and  C_10 
REMARK    3  A    between atoms: C_10  and  C_11 
REMARK       I    between atoms: C_11  and  N_12 
REMARK    4  A    between atoms: N_12  and  C_13 
REMARK    5  A    between atoms: C_13  and  C_14 
ROOT
HETATM    1  C   UNL     1     -44.760  57.261 -52.332  1.00  0.00     0.158 A 
HETATM    2  N   UNL     1     -44.464  57.420 -53.745  1.00  0.00    -0.326 N 
HETATM    3  C   UNL     1     -44.615  58.723 -54.178  1.00  0.00     0.255 A 
HETATM    4  O   UNL     1     -44.465  59.160 -55.302  1.00  0.00    -0.267 OA
HETATM    5  C   UNL     1     -45.077  59.506 -53.028  1.00  0.00     0.040 A 
HETATM    6  C   UNL     1     -45.180  58.648 -51.931  1.00  0.00    -0.015 A 
HETATM    7  C   UNL     1     -45.413  60.844 -52.971  1.00  0.00     0.017 A 
HETATM    8  C   UNL     1     -45.871  61.337 -51.749  1.00  0.00     0.001 A 
HETATM    9  C   UNL     1     -45.984  60.489 -50.631  1.00  0.00     0.001 A 
HETATM   10  C   UNL     1     -45.642  59.135 -50.718  1.00  0.00     0.011 A 
ENDROOT
BRANCH   1  11
HETATM   11  C   UNL     1     -43.550  56.938 -51.493  1.00  0.00     0.004 A 
HETATM   12  C   UNL     1     -43.270  55.819 -50.703  1.00  0.00     0.017 A 
HETATM   13  C   UNL     1     -44.099  54.613 -50.395  1.00  0.00     0.069 C 
HETATM   14  N   UNL     1     -41.976  55.949 -50.235  1.00  0.00    -0.354 N 
HETATM   15  C   UNL     1     -41.257  54.954 -49.464  1.00  0.00     0.156 C 
HETATM   16  C   UNL     1     -41.439  57.160 -50.621  1.00  0.00     0.045 A 
HETATM   17  C   UNL     1     -42.396  57.797 -51.409  1.00  0.00     0.001 A 
HETATM   18  C   UNL     1     -40.185  57.738 -50.357  1.00  0.00     0.030 A 
HETATM   19  C   UNL     1     -42.079  59.059 -51.963  1.00  0.00     0.014 A 
HETATM   20  C   UNL     1     -40.831  59.640 -51.711  1.00  0.00     0.001 A 
HETATM   21  C   UNL     1     -39.898  58.986 -50.917  1.00  0.00     0.002 A 
ENDBRANCH   1  11
BRANCH   2  22
HETATM   22  C   UNL     1     -44.130  56.300 -54.615  1.00  0.00     0.229 C 
BRANCH  22  23
HETATM   23  C   UNL     1     -42.644  55.913 -54.657  1.00  0.00     0.235 C 
HETATM   24  N   UNL     1     -42.341  54.661 -54.182  1.00  0.00    -0.357 N 
HETATM   25  H   UNL     1     -43.086  54.098 -53.796  1.00  0.00     0.162 HD
HETATM   26  O   UNL     1     -41.801  56.651 -55.167  1.00  0.00    -0.272 OA
BRANCH  24  27
HETATM   27  C   UNL     1     -41.047  54.025 -54.346  1.00  0.00     0.154 C 
BRANCH  27  28
HETATM   28  C   UNL     1     -40.908  52.689 -53.613  1.00  0.00     0.139 C 
HETATM   29  O   UNL     1     -40.293  52.859 -52.316  1.00  0.00    -0.384 OA
HETATM   30  C   UNL     1     -39.426  51.737 -52.089  1.00  0.00     0.168 C 
HETATM   31  C   UNL     1     -39.709  50.729 -53.185  1.00  0.00     0.029 C 
HETATM   32  C   UNL     1     -40.097  51.626 -54.334  1.00  0.00     0.035 C 
ENDBRANCH  27  28
ENDBRANCH  24  27
ENDBRANCH  22  23
ENDBRANCH   2  22
TORSDOF 5
ENDMDL
