MODEL 1
REMARK VINA RESULT:      -8.6      0.000      0.000
REMARK  6 active torsions:
REMARK  status: ('A' for Active; 'I' for Inactive)
REMARK    1  A    between atoms: C_2  and  O_3 
REMARK    2  A    between atoms: C_2  and  C_4 
REMARK    3  A    between atoms: C_6  and  N_7 
REMARK       I    between atoms: N_7  and  C_8 
REMARK    4  A    between atoms: C_8  and  C_9 
REMARK    5  A    between atoms: C_12  and  C_13 
REMARK    6  A    between atoms: C_18  and  C_19 
ROOT
HETATM    1  C   UNL     1     -43.234  56.516 -55.055  1.00  0.00     0.096 A 
HETATM    2  C   UNL     1     -43.010  56.724 -56.404  1.00  0.00     0.138 A 
HETATM    3  N   UNL     1     -43.520  57.958 -56.700  1.00  0.00    -0.240 N 
HETATM    4  C   UNL     1     -43.556  58.534 -58.031  1.00  0.00     0.221 C 
HETATM    5  C   UNL     1     -42.539  57.828 -58.947  1.00  0.00     0.068 C 
HETATM    6  C   UNL     1     -42.498  56.297 -58.777  1.00  0.00     0.143 C 
HETATM    7  N   UNL     1     -42.417  55.968 -57.357  1.00  0.00    -0.363 N 
HETATM    8  N   UNL     1     -43.970  58.626 -55.626  1.00  0.00    -0.181 NA
HETATM    9  C   UNL     1     -43.823  57.738 -54.636  1.00  0.00     0.160 A 
HETATM   10  H   UNL     1     -42.172  54.999 -57.136  1.00  0.00     0.162 HD
ENDROOT
BRANCH   1  11
HETATM   11  C   UNL     1     -42.903  55.298 -54.318  1.00  0.00     0.261 C 
HETATM   12  N   UNL     1     -41.564  55.175 -53.987  1.00  0.00    -0.323 N 
HETATM   13  H   UNL     1     -40.944  55.913 -54.281  1.00  0.00     0.169 HD
HETATM   14  O   UNL     1     -43.779  54.488 -54.028  1.00  0.00    -0.267 OA
BRANCH  12  15
HETATM   15  C   UNL     1     -40.945  54.134 -53.259  1.00  0.00     0.035 A 
HETATM   16  C   UNL     1     -40.619  52.885 -53.794  1.00  0.00     0.039 A 
HETATM   17  C   UNL     1     -40.011  51.889 -53.004  1.00  0.00    -0.028 A 
HETATM   18  C   UNL     1     -39.721  52.173 -51.665  1.00  0.00     0.010 A 
HETATM   19  C   UNL     1     -40.041  53.415 -51.121  1.00  0.00     0.003 A 
HETATM   20  C   UNL     1     -40.649  54.389 -51.914  1.00  0.00     0.029 A 
BRANCH  17  21
HETATM   21  C   UNL     1     -39.652  50.558 -53.628  1.00  0.00     0.147 C 
HETATM   22  C   UNL     1     -39.598  49.451 -52.584  1.00  0.00     0.044 C 
BRANCH  21  23
HETATM   23  O   UNL     1     -40.609  50.211 -54.628  1.00  0.00    -0.391 OA
HETATM   24  H   UNL     1     -40.812  51.025 -55.119  1.00  0.00     0.210 HD
ENDBRANCH  21  23
ENDBRANCH  17  21
ENDBRANCH  12  15
ENDBRANCH   1  11
BRANCH   4  25
HETATM   25  C   UNL     1     -44.974  58.520 -58.558  1.00  0.00     0.409 C 
HETATM   26  F   UNL     1     -45.675  57.423 -58.209  1.00  0.00    -0.169 F 
HETATM   27  F   UNL     1     -45.680  59.596 -58.136  1.00  0.00    -0.169 F 
HETATM   28  F   UNL     1     -44.975  58.583 -59.914  1.00  0.00    -0.169 F 
ENDBRANCH   4  25
BRANCH   6  29
HETATM   29  C   UNL     1     -43.579  55.586 -59.526  1.00  0.00     0.075 A 
HETATM   30  O   UNL     1     -43.856  56.043 -60.782  1.00  0.00    -0.325 OA
HETATM   31  C   UNL     1     -44.844  55.258 -61.283  1.00  0.00     0.142 A 
HETATM   32  C   UNL     1     -45.201  54.293 -60.372  1.00  0.00     0.027 A 
HETATM   33  C   UNL     1     -44.380  54.498 -59.239  1.00  0.00     0.037 A 
ENDBRANCH   6  29
TORSDOF 6
ENDMDL
MODEL 2
REMARK VINA RESULT:      -8.3      1.148      1.989
REMARK  6 active torsions:
REMARK  status: ('A' for Active; 'I' for Inactive)
REMARK    1  A    between atoms: C_2  and  O_3 
REMARK    2  A    between atoms: C_2  and  C_4 
REMARK    3  A    between atoms: C_6  and  N_7 
REMARK       I    between atoms: N_7  and  C_8 
REMARK    4  A    between atoms: C_8  and  C_9 
REMARK    5  A    between atoms: C_12  and  C_13 
REMARK    6  A    between atoms: C_18  and  C_19 
ROOT
HETATM    1  C   UNL     1     -43.084  56.667 -55.334  1.00  0.00     0.096 A 
HETATM    2  C   UNL     1     -42.892  56.784 -56.699  1.00  0.00     0.138 A 
HETATM    3  N   UNL     1     -43.327  58.031 -57.051  1.00  0.00    -0.240 N 
HETATM    4  C   UNL     1     -43.369  58.533 -58.411  1.00  0.00     0.221 C 
HETATM    5  C   UNL     1     -42.433  57.708 -59.315  1.00  0.00     0.068 C 
HETATM    6  C   UNL     1     -42.490  56.190 -59.057  1.00  0.00     0.143 C 
HETATM    7  N   UNL     1     -42.384  55.936 -57.623  1.00  0.00    -0.363 N 
HETATM    8  N   UNL     1     -43.695  58.788 -56.005  1.00  0.00    -0.181 NA
HETATM    9  C   UNL     1     -43.574  57.949 -54.969  1.00  0.00     0.160 A 
HETATM   10  H   UNL     1     -42.198  54.966 -57.353  1.00  0.00     0.162 HD
ENDROOT
BRANCH   1  11
HETATM   11  C   UNL     1     -42.812  55.473 -54.538  1.00  0.00     0.261 C 
HETATM   12  N   UNL     1     -41.469  55.146 -54.437  1.00  0.00    -0.323 N 
HETATM   13  H   UNL     1     -40.810  55.740 -54.915  1.00  0.00     0.169 HD
HETATM   14  O   UNL     1     -43.731  54.852 -54.010  1.00  0.00    -0.267 OA
BRANCH  12  15
HETATM   15  C   UNL     1     -40.893  54.074 -53.719  1.00  0.00     0.035 A 
HETATM   16  C   UNL     1     -40.786  54.026 -52.326  1.00  0.00     0.039 A 
HETATM   17  C   UNL     1     -40.189  52.928 -51.678  1.00  0.00    -0.028 A 
HETATM   18  C   UNL     1     -39.710  51.865 -52.452  1.00  0.00     0.010 A 
HETATM   19  C   UNL     1     -39.811  51.901 -53.841  1.00  0.00     0.003 A 
HETATM   20  C   UNL     1     -40.400  53.000 -54.470  1.00  0.00     0.029 A 
BRANCH  17  21
HETATM   21  C   UNL     1     -40.115  52.904 -50.166  1.00  0.00     0.147 C 
HETATM   22  C   UNL     1     -41.034  53.950 -49.548  1.00  0.00     0.044 C 
BRANCH  21  23
HETATM   23  O   UNL     1     -40.481  51.615 -49.678  1.00  0.00    -0.391 OA
HETATM   24  H   UNL     1     -41.319  51.722 -49.198  1.00  0.00     0.210 HD
ENDBRANCH  21  23
ENDBRANCH  17  21
ENDBRANCH  12  15
ENDBRANCH   1  11
BRANCH   4  25
HETATM   25  C   UNL     1     -44.802  58.588 -58.894  1.00  0.00     0.409 C 
HETATM   26  F   UNL     1     -45.462  59.701 -58.519  1.00  0.00    -0.169 F 
HETATM   27  F   UNL     1     -44.882  58.511 -60.244  1.00  0.00    -0.169 F 
HETATM   28  F   UNL     1     -45.501  57.526 -58.418  1.00  0.00    -0.169 F 
ENDBRANCH   4  25
BRANCH   6  29
HETATM   29  C   UNL     1     -43.641  55.515 -59.731  1.00  0.00     0.075 A 
HETATM   30  O   UNL     1     -43.939  55.930 -60.997  1.00  0.00    -0.325 OA
HETATM   31  C   UNL     1     -44.993  55.186 -61.423  1.00  0.00     0.142 A 
HETATM   32  C   UNL     1     -45.372  54.289 -60.453  1.00  0.00     0.027 A 
HETATM   33  C   UNL     1     -44.495  54.494 -59.363  1.00  0.00     0.037 A 
ENDBRANCH   6  29
TORSDOF 6
ENDMDL
MODEL 3
REMARK VINA RESULT:      -8.1      3.550      7.765
REMARK  6 active torsions:
REMARK  status: ('A' for Active; 'I' for Inactive)
REMARK    1  A    between atoms: C_2  and  O_3 
REMARK    2  A    between atoms: C_2  and  C_4 
REMARK    3  A    between atoms: C_6  and  N_7 
REMARK       I    between atoms: N_7  and  C_8 
REMARK    4  A    between atoms: C_8  and  C_9 
REMARK    5  A    between atoms: C_12  and  C_13 
REMARK    6  A    between atoms: C_18  and  C_19 
ROOT
HETATM    1  C   UNL     1     -43.821  57.764 -53.910  1.00  0.00     0.096 A 
HETATM    2  C   UNL     1     -43.654  56.653 -53.102  1.00  0.00     0.138 A 
HETATM    3  N   UNL     1     -43.259  57.116 -51.877  1.00  0.00    -0.240 N 
HETATM    4  C   UNL     1     -42.905  56.268 -50.754  1.00  0.00     0.221 C 
HETATM    5  C   UNL     1     -43.488  54.855 -50.947  1.00  0.00     0.068 C 
HETATM    6  C   UNL     1     -43.361  54.314 -52.383  1.00  0.00     0.143 C 
HETATM    7  N   UNL     1     -43.819  55.329 -53.327  1.00  0.00    -0.363 N 
HETATM    8  N   UNL     1     -43.253  58.455 -51.784  1.00  0.00    -0.181 NA
HETATM    9  C   UNL     1     -43.565  58.845 -53.025  1.00  0.00     0.160 A 
HETATM   10  H   UNL     1     -43.979  55.008 -54.286  1.00  0.00     0.162 HD
ENDROOT
BRANCH   1  11
HETATM   11  C   UNL     1     -44.182  57.736 -55.326  1.00  0.00     0.261 C 
HETATM   12  N   UNL     1     -43.150  57.365 -56.173  1.00  0.00    -0.323 N 
HETATM   13  H   UNL     1     -42.258  57.158 -55.753  1.00  0.00     0.169 HD
HETATM   14  O   UNL     1     -45.323  58.014 -55.684  1.00  0.00    -0.267 OA
BRANCH  12  15
HETATM   15  C   UNL     1     -43.195  57.219 -57.577  1.00  0.00     0.035 A 
HETATM   16  C   UNL     1     -44.104  56.402 -58.255  1.00  0.00     0.039 A 
HETATM   17  C   UNL     1     -44.084  56.297 -59.659  1.00  0.00    -0.028 A 
HETATM   18  C   UNL     1     -43.141  57.040 -60.379  1.00  0.00     0.010 A 
HETATM   19  C   UNL     1     -42.231  57.859 -59.714  1.00  0.00     0.003 A 
HETATM   20  C   UNL     1     -42.259  57.947 -58.321  1.00  0.00     0.029 A 
BRANCH  17  21
HETATM   21  C   UNL     1     -45.101  55.419 -60.356  1.00  0.00     0.147 C 
HETATM   22  C   UNL     1     -46.490  56.046 -60.327  1.00  0.00     0.044 C 
BRANCH  21  23
HETATM   23  O   UNL     1     -44.715  55.204 -61.712  1.00  0.00    -0.391 OA
HETATM   24  H   UNL     1     -45.257  54.471 -62.047  1.00  0.00     0.210 HD
ENDBRANCH  21  23
ENDBRANCH  17  21
ENDBRANCH  12  15
ENDBRANCH   1  11
BRANCH   4  25
HETATM   25  C   UNL     1     -41.407  56.294 -50.544  1.00  0.00     0.409 C 
HETATM   26  F   UNL     1     -40.935  55.240 -49.850  1.00  0.00    -0.169 F 
HETATM   27  F   UNL     1     -40.734  56.333 -51.719  1.00  0.00    -0.169 F 
HETATM   28  F   UNL     1     -41.044  57.415 -49.870  1.00  0.00    -0.169 F 
ENDBRANCH   4  25
BRANCH   6  29
HETATM   29  C   UNL     1     -42.015  53.737 -52.685  1.00  0.00     0.075 A 
HETATM   30  O   UNL     1     -41.387  53.083 -51.665  1.00  0.00    -0.325 OA
HETATM   31  C   UNL     1     -40.202  52.630 -52.152  1.00  0.00     0.142 A 
HETATM   32  C   UNL     1     -40.062  52.974 -53.475  1.00  0.00     0.027 A 
HETATM   33  C   UNL     1     -41.236  53.682 -53.824  1.00  0.00     0.037 A 
ENDBRANCH   6  29
TORSDOF 6
ENDMDL
MODEL 4
REMARK VINA RESULT:      -7.8      3.694      8.047
REMARK  6 active torsions:
REMARK  status: ('A' for Active; 'I' for Inactive)
REMARK    1  A    between atoms: C_2  and  O_3 
REMARK    2  A    between atoms: C_2  and  C_4 
REMARK    3  A    between atoms: C_6  and  N_7 
REMARK       I    between atoms: N_7  and  C_8 
REMARK    4  A    between atoms: C_8  and  C_9 
REMARK    5  A    between atoms: C_12  and  C_13 
REMARK    6  A    between atoms: C_18  and  C_19 
ROOT
HETATM    1  C   UNL     1     -43.745  57.651 -53.842  1.00  0.00     0.096 A 
HETATM    2  C   UNL     1     -43.605  56.547 -53.020  1.00  0.00     0.138 A 
HETATM    3  N   UNL     1     -43.261  57.021 -51.784  1.00  0.00    -0.240 N 
HETATM    4  C   UNL     1     -42.948  56.183 -50.641  1.00  0.00     0.221 C 
HETATM    5  C   UNL     1     -43.516  54.766 -50.847  1.00  0.00     0.068 C 
HETATM    6  C   UNL     1     -43.329  54.215 -52.273  1.00  0.00     0.143 C 
HETATM    7  N   UNL     1     -43.754  55.221 -53.242  1.00  0.00    -0.363 N 
HETATM    8  N   UNL     1     -43.266  58.360 -51.700  1.00  0.00    -0.181 NA
HETATM    9  C   UNL     1     -43.530  58.740 -52.956  1.00  0.00     0.160 A 
HETATM   10  H   UNL     1     -43.875  54.892 -54.204  1.00  0.00     0.162 HD
ENDROOT
BRANCH   1  11
HETATM   11  C   UNL     1     -44.050  57.612 -55.271  1.00  0.00     0.261 C 
HETATM   12  N   UNL     1     -42.953  57.372 -56.083  1.00  0.00    -0.323 N 
HETATM   13  H   UNL     1     -42.059  57.255 -55.633  1.00  0.00     0.169 HD
HETATM   14  O   UNL     1     -45.201  57.770 -55.668  1.00  0.00    -0.267 OA
BRANCH  12  15
HETATM   15  C   UNL     1     -42.931  57.249 -57.490  1.00  0.00     0.035 A 
HETATM   16  C   UNL     1     -42.762  58.320 -58.372  1.00  0.00     0.039 A 
HETATM   17  C   UNL     1     -42.760  58.123 -59.766  1.00  0.00    -0.028 A 
HETATM   18  C   UNL     1     -42.916  56.825 -60.266  1.00  0.00     0.010 A 
HETATM   19  C   UNL     1     -43.084  55.750 -59.397  1.00  0.00     0.003 A 
HETATM   20  C   UNL     1     -43.090  55.961 -58.017  1.00  0.00     0.029 A 
BRANCH  17  21
HETATM   21  C   UNL     1     -42.551  59.307 -60.686  1.00  0.00     0.147 C 
HETATM   22  C   UNL     1     -42.420  60.606 -59.900  1.00  0.00     0.044 C 
BRANCH  21  23
HETATM   23  O   UNL     1     -41.374  59.116 -61.470  1.00  0.00    -0.391 OA
HETATM   24  H   UNL     1     -40.819  58.475 -60.995  1.00  0.00     0.210 HD
ENDBRANCH  21  23
ENDBRANCH  17  21
ENDBRANCH  12  15
ENDBRANCH   1  11
BRANCH   4  25
HETATM   25  C   UNL     1     -41.460  56.218 -50.372  1.00  0.00     0.409 C 
HETATM   26  F   UNL     1     -40.703  56.143 -51.484  1.00  0.00    -0.169 F 
HETATM   27  F   UNL     1     -41.093  57.344 -49.714  1.00  0.00    -0.169 F 
HETATM   28  F   UNL     1     -41.101  55.183 -49.569  1.00  0.00    -0.169 F 
ENDBRANCH   4  25
BRANCH   6  29
HETATM   29  C   UNL     1     -41.970  53.643 -52.517  1.00  0.00     0.075 A 
HETATM   30  O   UNL     1     -41.366  53.026 -51.459  1.00  0.00    -0.325 OA
HETATM   31  C   UNL     1     -40.163  52.572 -51.896  1.00  0.00     0.142 A 
HETATM   32  C   UNL     1     -39.987  52.876 -53.225  1.00  0.00     0.027 A 
HETATM   33  C   UNL     1     -41.156  53.561 -53.630  1.00  0.00     0.037 A 
ENDBRANCH   6  29
TORSDOF 6
ENDMDL
MODEL 5
REMARK VINA RESULT:      -7.7      3.628      8.121
REMARK  6 active torsions:
REMARK  status: ('A' for Active; 'I' for Inactive)
REMARK    1  A    between atoms: C_2  and  O_3 
REMARK    2  A    between atoms: C_2  and  C_4 
REMARK    3  A    between atoms: C_6  and  N_7 
REMARK       I    between atoms: N_7  and  C_8 
REMARK    4  A    between atoms: C_8  and  C_9 
REMARK    5  A    between atoms: C_12  and  C_13 
REMARK    6  A    between atoms: C_18  and  C_19 
ROOT
HETATM    1  C   UNL     1     -43.382  58.516 -55.616  1.00  0.00     0.096 A 
HETATM    2  C   UNL     1     -43.383  58.382 -54.239  1.00  0.00     0.138 A 
HETATM    3  N   UNL     1     -42.303  59.082 -53.776  1.00  0.00    -0.240 N 
HETATM    4  C   UNL     1     -41.896  59.140 -52.385  1.00  0.00     0.221 C 
HETATM    5  C   UNL     1     -43.069  58.746 -51.468  1.00  0.00     0.068 C 
HETATM    6  C   UNL     1     -43.888  57.544 -51.976  1.00  0.00     0.143 C 
HETATM    7  N   UNL     1     -44.214  57.740 -53.386  1.00  0.00    -0.363 N 
HETATM    8  N   UNL     1     -41.647  59.755 -54.735  1.00  0.00    -0.181 NA
HETATM    9  C   UNL     1     -42.285  59.386 -55.852  1.00  0.00     0.160 A 
HETATM   10  H   UNL     1     -44.928  57.114 -53.771  1.00  0.00     0.162 HD
ENDROOT
BRANCH   1  11
HETATM   11  C   UNL     1     -44.328  57.880 -56.530  1.00  0.00     0.261 C 
HETATM   12  N   UNL     1     -43.751  57.350 -57.673  1.00  0.00    -0.323 N 
HETATM   13  H   UNL     1     -42.754  57.452 -57.779  1.00  0.00     0.169 HD
HETATM   14  O   UNL     1     -45.524  57.833 -56.256  1.00  0.00    -0.267 OA
BRANCH  12  15
HETATM   15  C   UNL     1     -44.393  56.655 -58.722  1.00  0.00     0.035 A 
HETATM   16  C   UNL     1     -45.570  57.080 -59.343  1.00  0.00     0.039 A 
HETATM   17  C   UNL     1     -46.161  56.329 -60.378  1.00  0.00    -0.028 A 
HETATM   18  C   UNL     1     -45.539  55.146 -60.794  1.00  0.00     0.010 A 
HETATM   19  C   UNL     1     -44.365  54.713 -60.183  1.00  0.00     0.003 A 
HETATM   20  C   UNL     1     -43.795  55.465 -59.153  1.00  0.00     0.029 A 
BRANCH  17  21
HETATM   21  C   UNL     1     -47.423  56.836 -61.041  1.00  0.00     0.147 C 
HETATM   22  C   UNL     1     -47.462  58.359 -61.072  1.00  0.00     0.044 C 
BRANCH  21  23
HETATM   23  O   UNL     1     -47.509  56.341 -62.376  1.00  0.00    -0.391 OA
HETATM   24  H   UNL     1     -46.602  56.137 -62.660  1.00  0.00     0.210 HD
ENDBRANCH  21  23
ENDBRANCH  17  21
ENDBRANCH  12  15
ENDBRANCH   1  11
BRANCH   4  25
HETATM   25  C   UNL     1     -40.648  58.309 -52.180  1.00  0.00     0.409 C 
HETATM   26  F   UNL     1     -40.615  57.184 -52.920  1.00  0.00    -0.169 F 
HETATM   27  F   UNL     1     -39.524  59.009 -52.466  1.00  0.00    -0.169 F 
HETATM   28  F   UNL     1     -40.536  57.938 -50.879  1.00  0.00    -0.169 F 
ENDBRANCH   4  25
BRANCH   6  29
HETATM   29  C   UNL     1     -43.268  56.223 -51.653  1.00  0.00     0.075 A 
HETATM   30  O   UNL     1     -43.148  55.334 -52.682  1.00  0.00    -0.325 OA
HETATM   31  C   UNL     1     -42.554  54.221 -52.181  1.00  0.00     0.142 A 
HETATM   32  C   UNL     1     -42.278  54.382 -50.844  1.00  0.00     0.027 A 
HETATM   33  C   UNL     1     -42.731  55.678 -50.503  1.00  0.00     0.037 A 
ENDBRANCH   6  29
TORSDOF 6
ENDMDL
MODEL 6
REMARK VINA RESULT:      -7.6      2.199      2.656
REMARK  6 active torsions:
REMARK  status: ('A' for Active; 'I' for Inactive)
REMARK    1  A    between atoms: C_2  and  O_3 
REMARK    2  A    between atoms: C_2  and  C_4 
REMARK    3  A    between atoms: C_6  and  N_7 
REMARK       I    between atoms: N_7  and  C_8 
REMARK    4  A    between atoms: C_8  and  C_9 
REMARK    5  A    between atoms: C_12  and  C_13 
REMARK    6  A    between atoms: C_18  and  C_19 
ROOT
HETATM    1  C   UNL     1     -42.025  57.736 -55.150  1.00  0.00     0.096 A 
HETATM    2  C   UNL     1     -42.202  58.054 -56.485  1.00  0.00     0.138 A 
HETATM    3  N   UNL     1     -42.108  59.415 -56.580  1.00  0.00    -0.240 N 
HETATM    4  C   UNL     1     -42.306  60.170 -57.803  1.00  0.00     0.221 C 
HETATM    5  C   UNL     1     -42.146  59.251 -59.029  1.00  0.00     0.068 C 
HETATM    6  C   UNL     1     -42.805  57.867 -58.868  1.00  0.00     0.143 C 
HETATM    7  N   UNL     1     -42.419  57.293 -57.583  1.00  0.00    -0.363 N 
HETATM    8  N   UNL     1     -41.778  60.013 -55.424  1.00  0.00    -0.181 NA
HETATM    9  C   UNL     1     -41.758  58.997 -54.554  1.00  0.00     0.160 A 
HETATM   10  H   UNL     1     -42.622  56.297 -57.459  1.00  0.00     0.162 HD
ENDROOT
BRANCH   1  11
HETATM   11  C   UNL     1     -42.106  56.393 -54.581  1.00  0.00     0.261 C 
HETATM   12  N   UNL     1     -40.881  55.769 -54.411  1.00  0.00    -0.323 N 
HETATM   13  H   UNL     1     -40.058  56.277 -54.695  1.00  0.00     0.169 HD
HETATM   14  O   UNL     1     -43.193  55.908 -54.280  1.00  0.00    -0.267 OA
BRANCH  12  15
HETATM   15  C   UNL     1     -40.631  54.491 -53.863  1.00  0.00     0.035 A 
HETATM   16  C   UNL     1     -40.738  54.183 -52.504  1.00  0.00     0.039 A 
HETATM   17  C   UNL     1     -40.463  52.887 -52.026  1.00  0.00    -0.028 A 
HETATM   18  C   UNL     1     -40.091  51.894 -52.941  1.00  0.00     0.010 A 
HETATM   19  C   UNL     1     -39.983  52.189 -54.298  1.00  0.00     0.003 A 
HETATM   20  C   UNL     1     -40.252  53.481 -54.755  1.00  0.00     0.029 A 
BRANCH  17  21
HETATM   21  C   UNL     1     -40.613  52.588 -50.550  1.00  0.00     0.147 C 
HETATM   22  C   UNL     1     -40.219  51.152 -50.230  1.00  0.00     0.044 C 
BRANCH  21  23
HETATM   23  O   UNL     1     -39.800  53.477 -49.785  1.00  0.00    -0.391 OA
HETATM   24  H   UNL     1     -40.303  54.301 -49.681  1.00  0.00     0.210 HD
ENDBRANCH  21  23
ENDBRANCH  17  21
ENDBRANCH  12  15
ENDBRANCH   1  11
BRANCH   4  25
HETATM   25  C   UNL     1     -43.631  60.898 -57.747  1.00  0.00     0.409 C 
HETATM   26  F   UNL     1     -44.539  60.318 -56.937  1.00  0.00    -0.169 F 
HETATM   27  F   UNL     1     -43.485  62.179 -57.333  1.00  0.00    -0.169 F 
HETATM   28  F   UNL     1     -44.184  60.968 -58.986  1.00  0.00    -0.169 F 
ENDBRANCH   4  25
BRANCH   6  29
HETATM   29  C   UNL     1     -44.275  57.873 -59.137  1.00  0.00     0.075 A 
HETATM   30  O   UNL     1     -44.663  58.182 -60.409  1.00  0.00    -0.325 OA
HETATM   31  C   UNL     1     -46.019  58.116 -60.439  1.00  0.00     0.142 A 
HETATM   32  C   UNL     1     -46.512  57.758 -59.207  1.00  0.00     0.027 A 
HETATM   33  C   UNL     1     -45.386  57.593 -58.366  1.00  0.00     0.037 A 
ENDBRANCH   6  29
TORSDOF 6
ENDMDL
MODEL 7
REMARK VINA RESULT:      -7.5      3.547      8.176
REMARK  6 active torsions:
REMARK  status: ('A' for Active; 'I' for Inactive)
REMARK    1  A    between atoms: C_2  and  O_3 
REMARK    2  A    between atoms: C_2  and  C_4 
REMARK    3  A    between atoms: C_6  and  N_7 
REMARK       I    between atoms: N_7  and  C_8 
REMARK    4  A    between atoms: C_8  and  C_9 
REMARK    5  A    between atoms: C_12  and  C_13 
REMARK    6  A    between atoms: C_18  and  C_19 
ROOT
HETATM    1  C   UNL     1     -44.371  58.149 -54.568  1.00  0.00     0.096 A 
HETATM    2  C   UNL     1     -44.076  56.888 -54.082  1.00  0.00     0.138 A 
HETATM    3  N   UNL     1     -43.790  57.036 -52.753  1.00  0.00    -0.240 N 
HETATM    4  C   UNL     1     -43.357  55.961 -51.881  1.00  0.00     0.221 C 
HETATM    5  C   UNL     1     -43.729  54.596 -52.490  1.00  0.00     0.068 C 
HETATM    6  C   UNL     1     -43.481  54.497 -54.008  1.00  0.00     0.143 C 
HETATM    7  N   UNL     1     -44.046  55.669 -54.669  1.00  0.00    -0.363 N 
HETATM    8  N   UNL     1     -43.975  58.286 -52.299  1.00  0.00    -0.181 NA
HETATM    9  C   UNL     1     -44.298  58.964 -53.407  1.00  0.00     0.160 A 
HETATM   10  H   UNL     1     -44.129  55.611 -55.689  1.00  0.00     0.162 HD
ENDROOT
BRANCH   1  11
HETATM   11  C   UNL     1     -44.679  58.472 -55.959  1.00  0.00     0.261 C 
HETATM   12  N   UNL     1     -45.938  58.073 -56.374  1.00  0.00    -0.323 N 
HETATM   13  H   UNL     1     -46.520  57.598 -55.701  1.00  0.00     0.169 HD
HETATM   14  O   UNL     1     -43.860  59.062 -56.658  1.00  0.00    -0.267 OA
BRANCH  12  15
HETATM   15  C   UNL     1     -46.532  58.266 -57.641  1.00  0.00     0.035 A 
HETATM   16  C   UNL     1     -46.618  57.281 -58.629  1.00  0.00     0.039 A 
HETATM   17  C   UNL     1     -47.216  57.548 -59.876  1.00  0.00    -0.028 A 
HETATM   18  C   UNL     1     -47.745  58.822 -60.112  1.00  0.00     0.010 A 
HETATM   19  C   UNL     1     -47.667  59.811 -59.135  1.00  0.00     0.003 A 
HETATM   20  C   UNL     1     -47.064  59.533 -57.906  1.00  0.00     0.029 A 
BRANCH  17  21
HETATM   21  C   UNL     1     -47.310  56.446 -60.909  1.00  0.00     0.147 C 
HETATM   22  C   UNL     1     -48.244  56.832 -62.050  1.00  0.00     0.044 C 
BRANCH  21  23
HETATM   23  O   UNL     1     -46.017  56.163 -61.441  1.00  0.00    -0.391 OA
HETATM   24  H   UNL     1     -45.489  56.973 -61.346  1.00  0.00     0.210 HD
ENDBRANCH  21  23
ENDBRANCH  17  21
ENDBRANCH  12  15
ENDBRANCH   1  11
BRANCH   4  25
HETATM   25  C   UNL     1     -41.885  56.115 -51.567  1.00  0.00     0.409 C 
HETATM   26  F   UNL     1     -41.184  56.739 -52.534  1.00  0.00    -0.169 F 
HETATM   27  F   UNL     1     -41.684  56.806 -50.419  1.00  0.00    -0.169 F 
HETATM   28  F   UNL     1     -41.313  54.899 -51.376  1.00  0.00    -0.169 F 
ENDBRANCH   4  25
BRANCH   6  29
HETATM   29  C   UNL     1     -42.059  54.201 -54.360  1.00  0.00     0.075 A 
HETATM   30  O   UNL     1     -41.528  53.051 -53.851  1.00  0.00    -0.325 OA
HETATM   31  C   UNL     1     -40.249  52.969 -54.300  1.00  0.00     0.142 A 
HETATM   32  C   UNL     1     -39.950  54.045 -55.101  1.00  0.00     0.027 A 
HETATM   33  C   UNL     1     -41.120  54.838 -55.148  1.00  0.00     0.037 A 
ENDBRANCH   6  29
TORSDOF 6
ENDMDL
MODEL 8
REMARK VINA RESULT:      -7.4     15.452     17.917
REMARK  6 active torsions:
REMARK  status: ('A' for Active; 'I' for Inactive)
REMARK    1  A    between atoms: C_2  and  O_3 
REMARK    2  A    between atoms: C_2  and  C_4 
REMARK    3  A    between atoms: C_6  and  N_7 
REMARK       I    between atoms: N_7  and  C_8 
REMARK    4  A    between atoms: C_8  and  C_9 
REMARK    5  A    between atoms: C_12  and  C_13 
REMARK    6  A    between atoms: C_18  and  C_19 
ROOT
HETATM    1  C   UNL     1     -34.571  40.900 -52.803  1.00  0.00     0.096 A 
HETATM    2  C   UNL     1     -34.506  40.886 -54.185  1.00  0.00     0.138 A 
HETATM    3  N   UNL     1     -35.307  41.903 -54.625  1.00  0.00    -0.240 N 
HETATM    4  C   UNL     1     -35.578  42.191 -56.021  1.00  0.00     0.221 C 
HETATM    5  C   UNL     1     -34.500  41.553 -56.917  1.00  0.00     0.068 C 
HETATM    6  C   UNL     1     -34.095  40.127 -56.494  1.00  0.00     0.143 C 
HETATM    7  N   UNL     1     -33.831  40.104 -55.058  1.00  0.00    -0.363 N 
HETATM    8  N   UNL     1     -35.814  42.656 -53.635  1.00  0.00    -0.181 NA
HETATM    9  C   UNL     1     -35.391  42.028 -52.533  1.00  0.00     0.160 A 
HETATM   10  H   UNL     1     -33.354  39.269 -54.705  1.00  0.00     0.162 HD
ENDROOT
BRANCH   1  11
HETATM   11  C   UNL     1     -33.913  39.945 -51.914  1.00  0.00     0.261 C 
HETATM   12  N   UNL     1     -33.843  40.350 -50.591  1.00  0.00    -0.323 N 
HETATM   13  H   UNL     1     -34.235  41.250 -50.360  1.00  0.00     0.169 HD
HETATM   14  O   UNL     1     -33.487  38.879 -52.349  1.00  0.00    -0.267 OA
BRANCH  12  15
HETATM   15  C   UNL     1     -33.298  39.640 -49.498  1.00  0.00     0.035 A 
HETATM   16  C   UNL     1     -32.127  40.004 -48.827  1.00  0.00     0.039 A 
HETATM   17  C   UNL     1     -31.637  39.242 -47.750  1.00  0.00    -0.028 A 
HETATM   18  C   UNL     1     -32.352  38.109 -47.342  1.00  0.00     0.010 A 
HETATM   19  C   UNL     1     -33.520  37.737 -48.002  1.00  0.00     0.003 A 
HETATM   20  C   UNL     1     -33.991  38.500 -49.073  1.00  0.00     0.029 A 
BRANCH  17  21
HETATM   21  C   UNL     1     -30.378  39.684 -47.036  1.00  0.00     0.147 C 
HETATM   22  C   UNL     1     -30.084  38.802 -45.829  1.00  0.00     0.044 C 
BRANCH  21  23
HETATM   23  O   UNL     1     -29.266  39.638 -47.929  1.00  0.00    -0.391 OA
HETATM   24  H   UNL     1     -29.349  40.402 -48.522  1.00  0.00     0.210 HD
ENDBRANCH  21  23
ENDBRANCH  17  21
ENDBRANCH  12  15
ENDBRANCH   1  11
BRANCH   4  25
HETATM   25  C   UNL     1     -36.992  41.775 -56.366  1.00  0.00     0.409 C 
HETATM   26  F   UNL     1     -37.460  40.759 -55.615  1.00  0.00    -0.169 F 
HETATM   27  F   UNL     1     -37.865  42.803 -56.237  1.00  0.00    -0.169 F 
HETATM   28  F   UNL     1     -37.065  41.385 -57.664  1.00  0.00    -0.169 F 
ENDBRANCH   4  25
BRANCH   6  29
HETATM   29  C   UNL     1     -35.038  39.073 -56.977  1.00  0.00     0.075 A 
HETATM   30  O   UNL     1     -35.221  38.986 -58.327  1.00  0.00    -0.325 OA
HETATM   31  C   UNL     1     -36.092  37.967 -58.547  1.00  0.00     0.142 A 
HETATM   32  C   UNL     1     -36.466  37.388 -57.358  1.00  0.00     0.027 A 
HETATM   33  C   UNL     1     -35.780  38.095 -56.343  1.00  0.00     0.037 A 
ENDBRANCH   6  29
TORSDOF 6
ENDMDL
MODEL 9
REMARK VINA RESULT:      -7.4      2.310      4.013
REMARK  6 active torsions:
REMARK  status: ('A' for Active; 'I' for Inactive)
REMARK    1  A    between atoms: C_2  and  O_3 
REMARK    2  A    between atoms: C_2  and  C_4 
REMARK    3  A    between atoms: C_6  and  N_7 
REMARK       I    between atoms: N_7  and  C_8 
REMARK    4  A    between atoms: C_8  and  C_9 
REMARK    5  A    between atoms: C_12  and  C_13 
REMARK    6  A    between atoms: C_18  and  C_19 
ROOT
HETATM    1  C   UNL     1     -43.090  55.943 -58.214  1.00  0.00     0.096 A 
HETATM    2  C   UNL     1     -43.888  57.070 -58.293  1.00  0.00     0.138 A 
HETATM    3  N   UNL     1     -43.741  57.566 -59.559  1.00  0.00    -0.240 N 
HETATM    4  C   UNL     1     -44.354  58.790 -60.038  1.00  0.00     0.221 C 
HETATM    5  C   UNL     1     -45.544  59.179 -59.139  1.00  0.00     0.068 C 
HETATM    6  C   UNL     1     -45.279  58.995 -57.633  1.00  0.00     0.143 C 
HETATM    7  N   UNL     1     -44.705  57.673 -57.399  1.00  0.00    -0.363 N 
HETATM    8  N   UNL     1     -42.987  56.792 -60.356  1.00  0.00    -0.181 NA
HETATM    9  C   UNL     1     -42.570  55.826 -59.530  1.00  0.00     0.160 A 
HETATM   10  H   UNL     1     -44.686  57.360 -56.424  1.00  0.00     0.162 HD
ENDROOT
BRANCH   1  11
HETATM   11  C   UNL     1     -42.893  55.125 -57.019  1.00  0.00     0.261 C 
HETATM   12  N   UNL     1     -41.785  55.472 -56.263  1.00  0.00    -0.323 N 
HETATM   13  H   UNL     1     -41.217  56.235 -56.597  1.00  0.00     0.169 HD
HETATM   14  O   UNL     1     -43.681  54.225 -56.742  1.00  0.00    -0.267 OA
BRANCH  12  15
HETATM   15  C   UNL     1     -41.350  54.894 -55.050  1.00  0.00     0.035 A 
HETATM   16  C   UNL     1     -40.743  53.638 -54.950  1.00  0.00     0.039 A 
HETATM   17  C   UNL     1     -40.344  53.119 -53.703  1.00  0.00    -0.028 A 
HETATM   18  C   UNL     1     -40.549  53.891 -52.553  1.00  0.00     0.010 A 
HETATM   19  C   UNL     1     -41.151  55.143 -52.641  1.00  0.00     0.003 A 
HETATM   20  C   UNL     1     -41.548  55.642 -53.884  1.00  0.00     0.029 A 
BRANCH  17  21
HETATM   21  C   UNL     1     -39.669  51.766 -53.640  1.00  0.00     0.147 C 
HETATM   22  C   UNL     1     -39.492  51.300 -52.201  1.00  0.00     0.044 C 
BRANCH  21  23
HETATM   23  O   UNL     1     -40.441  50.800 -54.352  1.00  0.00    -0.391 OA
HETATM   24  H   UNL     1     -40.204  50.885 -55.290  1.00  0.00     0.210 HD
ENDBRANCH  21  23
ENDBRANCH  17  21
ENDBRANCH  12  15
ENDBRANCH   1  11
BRANCH   4  25
HETATM   25  C   UNL     1     -43.305  59.871 -60.173  1.00  0.00     0.409 C 
HETATM   26  F   UNL     1     -42.338  59.813 -59.236  1.00  0.00    -0.169 F 
HETATM   27  F   UNL     1     -42.693  59.832 -61.381  1.00  0.00    -0.169 F 
HETATM   28  F   UNL     1     -43.877  61.099 -60.085  1.00  0.00    -0.169 F 
ENDBRANCH   4  25
BRANCH   6  29
HETATM   29  C   UNL     1     -44.520  60.127 -57.019  1.00  0.00     0.075 A 
HETATM   30  O   UNL     1     -43.391  59.800 -56.323  1.00  0.00    -0.325 OA
HETATM   31  C   UNL     1     -42.854  60.962 -55.868  1.00  0.00     0.142 A 
HETATM   32  C   UNL     1     -43.614  62.034 -56.270  1.00  0.00     0.027 A 
HETATM   33  C   UNL     1     -44.686  61.498 -57.020  1.00  0.00     0.037 A 
ENDBRANCH   6  29
TORSDOF 6
ENDMDL
MODEL 10
REMARK VINA RESULT:      -7.4      2.562      4.259
REMARK  6 active torsions:
REMARK  status: ('A' for Active; 'I' for Inactive)
REMARK    1  A    between atoms: C_2  and  O_3 
REMARK    2  A    between atoms: C_2  and  C_4 
REMARK    3  A    between atoms: C_6  and  N_7 
REMARK       I    between atoms: N_7  and  C_8 
REMARK    4  A    between atoms: C_8  and  C_9 
REMARK    5  A    between atoms: C_12  and  C_13 
REMARK    6  A    between atoms: C_18  and  C_19 
ROOT
HETATM    1  C   UNL     1     -42.749  56.005 -56.247  1.00  0.00     0.096 A 
HETATM    2  C   UNL     1     -43.393  57.145 -56.693  1.00  0.00     0.138 A 
HETATM    3  N   UNL     1     -43.861  56.866 -57.947  1.00  0.00    -0.240 N 
HETATM    4  C   UNL     1     -44.537  57.822 -58.804  1.00  0.00     0.221 C 
HETATM    5  C   UNL     1     -45.086  58.994 -57.967  1.00  0.00     0.068 C 
HETATM    6  C   UNL     1     -44.119  59.494 -56.877  1.00  0.00     0.143 C 
HETATM    7  N   UNL     1     -43.606  58.353 -56.123  1.00  0.00    -0.363 N 
HETATM    8  N   UNL     1     -43.667  55.592 -58.323  1.00  0.00    -0.181 NA
HETATM    9  C   UNL     1     -42.967  55.081 -57.303  1.00  0.00     0.160 A 
HETATM   10  H   UNL     1     -43.126  58.576 -55.246  1.00  0.00     0.162 HD
ENDROOT
BRANCH   1  11
HETATM   11  C   UNL     1     -42.044  55.871 -54.974  1.00  0.00     0.261 C 
HETATM   12  N   UNL     1     -42.118  54.609 -54.408  1.00  0.00    -0.323 N 
HETATM   13  H   UNL     1     -42.645  53.908 -54.905  1.00  0.00     0.169 HD
HETATM   14  O   UNL     1     -41.439  56.826 -54.494  1.00  0.00    -0.267 OA
BRANCH  12  15
HETATM   15  C   UNL     1     -41.522  54.164 -53.207  1.00  0.00     0.035 A 
HETATM   16  C   UNL     1     -41.811  54.687 -51.944  1.00  0.00     0.039 A 
HETATM   17  C   UNL     1     -41.169  54.200 -50.789  1.00  0.00    -0.028 A 
HETATM   18  C   UNL     1     -40.237  53.163 -50.920  1.00  0.00     0.010 A 
HETATM   19  C   UNL     1     -39.942  52.634 -52.173  1.00  0.00     0.003 A 
HETATM   20  C   UNL     1     -40.582  53.132 -53.310  1.00  0.00     0.029 A 
BRANCH  17  21
HETATM   21  C   UNL     1     -41.528  54.777 -49.436  1.00  0.00     0.147 C 
HETATM   22  C   UNL     1     -40.559  54.310 -48.358  1.00  0.00     0.044 C 
BRANCH  21  23
HETATM   23  O   UNL     1     -41.513  56.202 -49.492  1.00  0.00    -0.391 OA
HETATM   24  H   UNL     1     -42.378  56.507 -49.173  1.00  0.00     0.210 HD
ENDBRANCH  21  23
ENDBRANCH  17  21
ENDBRANCH  12  15
ENDBRANCH   1  11
BRANCH   4  25
HETATM   25  C   UNL     1     -43.617  58.244 -59.928  1.00  0.00     0.409 C 
HETATM   26  F   UNL     1     -42.316  58.283 -59.582  1.00  0.00    -0.169 F 
HETATM   27  F   UNL     1     -43.722  57.423 -61.000  1.00  0.00    -0.169 F 
HETATM   28  F   UNL     1     -43.953  59.482 -60.372  1.00  0.00    -0.169 F 
ENDBRANCH   4  25
BRANCH   6  29
HETATM   29  C   UNL     1     -43.072  60.427 -57.392  1.00  0.00     0.075 A 
HETATM   30  O   UNL     1     -43.513  61.551 -58.029  1.00  0.00    -0.325 OA
HETATM   31  C   UNL     1     -42.414  62.258 -58.399  1.00  0.00     0.142 A 
HETATM   32  C   UNL     1     -41.269  61.611 -58.000  1.00  0.00     0.027 A 
HETATM   33  C   UNL     1     -41.691  60.432 -57.343  1.00  0.00     0.037 A 
ENDBRANCH   6  29
TORSDOF 6
ENDMDL
