MODEL 1
REMARK VINA RESULT:      -7.6      0.000      0.000
REMARK  6 active torsions:
REMARK  status: ('A' for Active; 'I' for Inactive)
REMARK    1  A    between atoms: C_2  and  N_3 
REMARK    2  A    between atoms: C_2  and  C_17 
REMARK       I    between atoms: N_3  and  C_4 
REMARK    3  A    between atoms: C_4  and  C_5 
REMARK    4  A    between atoms: C_6  and  O_7 
REMARK    5  A    between atoms: O_7  and  C_8 
REMARK    6  A    between atoms: C_8  and  C_9 
ROOT
HETATM    1  N   UNL     1     -43.643  55.412 -52.515  1.00  0.00    -0.346 N 
HETATM    2  C   UNL     1     -43.733  56.201 -51.398  1.00  0.00     0.256 C 
HETATM    3  O   UNL     1     -44.617  55.996 -50.572  1.00  0.00    -0.267 OA
HETATM    4  H   UNL     1     -44.335  54.675 -52.512  1.00  0.00     0.163 HD
ENDROOT
BRANCH   1   5
HETATM    5  C   UNL     1     -42.640  55.421 -53.571  1.00  0.00     0.150 C 
HETATM    6  C   UNL     1     -43.296  55.619 -54.933  1.00  0.00     0.040 C 
BRANCH   5   7
HETATM    7  C   UNL     1     -41.872  54.134 -53.478  1.00  0.00     0.127 A 
HETATM    8  N   UNL     1     -41.729  53.235 -54.434  1.00  0.00    -0.231 NA
HETATM    9  C   UNL     1     -40.908  52.262 -53.915  1.00  0.00     0.085 A 
HETATM   10  C   UNL     1     -40.544  52.566 -52.610  1.00  0.00     0.062 A 
HETATM   11  C   UNL     1     -40.423  51.086 -54.503  1.00  0.00     0.034 A 
HETATM   12  N   UNL     1     -41.166  53.761 -52.356  1.00  0.00    -0.341 N 
HETATM   13  C   UNL     1     -39.712  51.756 -51.834  1.00  0.00     0.032 A 
HETATM   14  H   UNL     1     -41.102  54.283 -51.495  1.00  0.00     0.167 HD
HETATM   15  C   UNL     1     -39.238  50.587 -52.436  1.00  0.00     0.002 A 
HETATM   16  C   UNL     1     -39.584  50.254 -53.749  1.00  0.00     0.002 A 
ENDBRANCH   5   7
ENDBRANCH   1   5
BRANCH   2  17
HETATM   17  C   UNL     1     -42.778  57.296 -51.183  1.00  0.00     0.084 A 
HETATM   18  C   UNL     1     -41.475  57.023 -50.782  1.00  0.00     0.180 A 
HETATM   19  N   UNL     1     -40.541  57.985 -50.580  1.00  0.00    -0.236 NA
HETATM   20  C   UNL     1     -40.918  59.260 -50.833  1.00  0.00     0.119 A 
HETATM   21  C   UNL     1     -42.185  59.622 -51.267  1.00  0.00     0.020 A 
HETATM   22  C   UNL     1     -43.132  58.619 -51.452  1.00  0.00     0.023 A 
BRANCH  18  23
HETATM   23  O   UNL     1     -41.134  55.723 -50.476  1.00  0.00    -0.328 OA
BRANCH  23  24
HETATM   24  C   UNL     1     -41.175  55.438 -49.072  1.00  0.00     0.248 C 
BRANCH  24  25
HETATM   25  C   UNL     1     -40.238  54.306 -48.685  1.00  0.00     0.377 C 
HETATM   26  F   UNL     1     -40.818  53.111 -48.991  1.00  0.00    -0.212 F 
HETATM   27  F   UNL     1     -39.107  54.376 -49.437  1.00  0.00    -0.212 F 
ENDBRANCH  24  25
ENDBRANCH  23  24
ENDBRANCH  18  23
ENDBRANCH   2  17
TORSDOF 6
ENDMDL
MODEL 2
REMARK VINA RESULT:      -7.1      2.628      5.748
REMARK  6 active torsions:
REMARK  status: ('A' for Active; 'I' for Inactive)
REMARK    1  A    between atoms: C_2  and  N_3 
REMARK    2  A    between atoms: C_2  and  C_17 
REMARK       I    between atoms: N_3  and  C_4 
REMARK    3  A    between atoms: C_4  and  C_5 
REMARK    4  A    between atoms: C_6  and  O_7 
REMARK    5  A    between atoms: O_7  and  C_8 
REMARK    6  A    between atoms: C_8  and  C_9 
ROOT
HETATM    1  N   UNL     1     -42.418  55.553 -53.347  1.00  0.00    -0.346 N 
HETATM    2  C   UNL     1     -42.503  54.291 -52.819  1.00  0.00     0.256 C 
HETATM    3  O   UNL     1     -43.486  53.968 -52.160  1.00  0.00    -0.267 OA
HETATM    4  H   UNL     1     -43.249  56.097 -53.157  1.00  0.00     0.163 HD
ENDROOT
BRANCH   1   5
HETATM    5  C   UNL     1     -41.398  56.121 -54.219  1.00  0.00     0.150 C 
HETATM    6  C   UNL     1     -40.767  57.350 -53.575  1.00  0.00     0.040 C 
BRANCH   5   7
HETATM    7  C   UNL     1     -42.047  56.424 -55.538  1.00  0.00     0.127 A 
HETATM    8  N   UNL     1     -42.409  57.615 -55.979  1.00  0.00    -0.231 NA
HETATM    9  C   UNL     1     -42.903  57.412 -57.245  1.00  0.00     0.085 A 
HETATM   10  C   UNL     1     -42.851  56.067 -57.588  1.00  0.00     0.062 A 
HETATM   11  C   UNL     1     -43.414  58.333 -58.171  1.00  0.00     0.034 A 
HETATM   12  N   UNL     1     -42.301  55.461 -56.489  1.00  0.00    -0.341 N 
HETATM   13  C   UNL     1     -43.285  55.568 -58.818  1.00  0.00     0.032 A 
HETATM   14  H   UNL     1     -42.103  54.475 -56.402  1.00  0.00     0.167 HD
HETATM   15  C   UNL     1     -43.791  56.501 -59.728  1.00  0.00     0.002 A 
HETATM   16  C   UNL     1     -43.856  57.861 -59.415  1.00  0.00     0.002 A 
ENDBRANCH   5   7
ENDBRANCH   1   5
BRANCH   2  17
HETATM   17  C   UNL     1     -41.421  53.321 -53.035  1.00  0.00     0.084 A 
HETATM   18  C   UNL     1     -40.426  53.156 -52.079  1.00  0.00     0.180 A 
HETATM   19  N   UNL     1     -39.408  52.269 -52.209  1.00  0.00    -0.236 NA
HETATM   20  C   UNL     1     -39.417  51.492 -53.317  1.00  0.00     0.119 A 
HETATM   21  C   UNL     1     -40.386  51.565 -54.306  1.00  0.00     0.020 A 
HETATM   22  C   UNL     1     -41.413  52.494 -54.159  1.00  0.00     0.023 A 
BRANCH  18  23
HETATM   23  O   UNL     1     -40.407  53.999 -50.988  1.00  0.00    -0.328 OA
BRANCH  23  24
HETATM   24  C   UNL     1     -40.604  53.323 -49.740  1.00  0.00     0.248 C 
BRANCH  24  25
HETATM   25  C   UNL     1     -40.326  54.222 -48.547  1.00  0.00     0.377 C 
HETATM   26  F   UNL     1     -41.261  55.211 -48.496  1.00  0.00    -0.212 F 
HETATM   27  F   UNL     1     -40.473  53.510 -47.398  1.00  0.00    -0.212 F 
ENDBRANCH  24  25
ENDBRANCH  23  24
ENDBRANCH  18  23
ENDBRANCH   2  17
TORSDOF 6
ENDMDL
MODEL 3
REMARK VINA RESULT:      -7.1      3.217      4.651
REMARK  6 active torsions:
REMARK  status: ('A' for Active; 'I' for Inactive)
REMARK    1  A    between atoms: C_2  and  N_3 
REMARK    2  A    between atoms: C_2  and  C_17 
REMARK       I    between atoms: N_3  and  C_4 
REMARK    3  A    between atoms: C_4  and  C_5 
REMARK    4  A    between atoms: C_6  and  O_7 
REMARK    5  A    between atoms: O_7  and  C_8 
REMARK    6  A    between atoms: C_8  and  C_9 
ROOT
HETATM    1  N   UNL     1     -40.664  57.369 -52.039  1.00  0.00    -0.346 N 
HETATM    2  C   UNL     1     -40.996  58.412 -52.864  1.00  0.00     0.256 C 
HETATM    3  O   UNL     1     -40.119  59.141 -53.314  1.00  0.00    -0.267 OA
HETATM    4  H   UNL     1     -39.663  57.288 -51.920  1.00  0.00     0.163 HD
ENDROOT
BRANCH   1   5
HETATM    5  C   UNL     1     -41.519  56.340 -51.463  1.00  0.00     0.150 C 
HETATM    6  C   UNL     1     -41.500  56.417 -49.940  1.00  0.00     0.040 C 
BRANCH   5   7
HETATM    7  C   UNL     1     -41.046  55.014 -51.983  1.00  0.00     0.127 A 
HETATM    8  N   UNL     1     -40.452  54.064 -51.284  1.00  0.00    -0.231 NA
HETATM    9  C   UNL     1     -40.255  53.022 -52.159  1.00  0.00     0.085 A 
HETATM   10  C   UNL     1     -40.731  53.341 -53.424  1.00  0.00     0.062 A 
HETATM   11  C   UNL     1     -39.676  51.763 -51.944  1.00  0.00     0.034 A 
HETATM   12  N   UNL     1     -41.230  54.610 -53.286  1.00  0.00    -0.341 N 
HETATM   13  C   UNL     1     -40.664  52.470 -54.514  1.00  0.00     0.032 A 
HETATM   14  H   UNL     1     -41.673  55.147 -54.017  1.00  0.00     0.167 HD
HETATM   15  C   UNL     1     -40.085  51.219 -54.281  1.00  0.00     0.002 A 
HETATM   16  C   UNL     1     -39.598  50.867 -53.019  1.00  0.00     0.002 A 
ENDBRANCH   5   7
ENDBRANCH   1   5
BRANCH   2  17
HETATM   17  C   UNL     1     -42.401  58.665 -53.210  1.00  0.00     0.084 A 
HETATM   18  C   UNL     1     -43.038  57.889 -54.172  1.00  0.00     0.180 A 
HETATM   19  N   UNL     1     -44.335  58.062 -54.528  1.00  0.00    -0.236 NA
HETATM   20  C   UNL     1     -45.026  59.017 -53.863  1.00  0.00     0.119 A 
HETATM   21  C   UNL     1     -44.482  59.815 -52.868  1.00  0.00     0.020 A 
HETATM   22  C   UNL     1     -43.144  59.631 -52.530  1.00  0.00     0.023 A 
BRANCH  18  23
HETATM   23  O   UNL     1     -42.297  56.964 -54.875  1.00  0.00    -0.328 OA
BRANCH  23  24
HETATM   24  C   UNL     1     -42.479  57.045 -56.294  1.00  0.00     0.248 C 
BRANCH  24  25
HETATM   25  C   UNL     1     -42.909  55.719 -56.898  1.00  0.00     0.377 C 
HETATM   26  F   UNL     1     -42.675  55.732 -58.239  1.00  0.00    -0.212 F 
HETATM   27  F   UNL     1     -42.137  54.719 -56.393  1.00  0.00    -0.212 F 
ENDBRANCH  24  25
ENDBRANCH  23  24
ENDBRANCH  18  23
ENDBRANCH   2  17
TORSDOF 6
ENDMDL
MODEL 4
REMARK VINA RESULT:      -7.0      6.172      8.388
REMARK  6 active torsions:
REMARK  status: ('A' for Active; 'I' for Inactive)
REMARK    1  A    between atoms: C_2  and  N_3 
REMARK    2  A    between atoms: C_2  and  C_17 
REMARK       I    between atoms: N_3  and  C_4 
REMARK    3  A    between atoms: C_4  and  C_5 
REMARK    4  A    between atoms: C_6  and  O_7 
REMARK    5  A    between atoms: O_7  and  C_8 
REMARK    6  A    between atoms: C_8  and  C_9 
ROOT
HETATM    1  N   UNL     1     -42.411  56.696 -58.195  1.00  0.00    -0.346 N 
HETATM    2  C   UNL     1     -42.807  56.603 -59.504  1.00  0.00     0.256 C 
HETATM    3  O   UNL     1     -41.970  56.444 -60.387  1.00  0.00    -0.267 OA
HETATM    4  H   UNL     1     -41.412  56.572 -58.094  1.00  0.00     0.163 HD
ENDROOT
BRANCH   1   5
HETATM    5  C   UNL     1     -43.224  56.802 -56.992  1.00  0.00     0.150 C 
HETATM    6  C   UNL     1     -43.322  58.254 -56.536  1.00  0.00     0.040 C 
BRANCH   5   7
HETATM    7  C   UNL     1     -42.615  55.907 -55.952  1.00  0.00     0.127 A 
HETATM    8  N   UNL     1     -43.046  55.735 -54.715  1.00  0.00    -0.231 NA
HETATM    9  C   UNL     1     -42.216  54.792 -54.157  1.00  0.00     0.085 A 
HETATM   10  C   UNL     1     -41.250  54.382 -55.066  1.00  0.00     0.062 A 
HETATM   11  C   UNL     1     -42.228  54.230 -52.873  1.00  0.00     0.034 A 
HETATM   12  N   UNL     1     -41.526  55.103 -56.199  1.00  0.00    -0.341 N 
HETATM   13  C   UNL     1     -40.271  53.430 -54.773  1.00  0.00     0.032 A 
HETATM   14  H   UNL     1     -41.022  55.039 -57.070  1.00  0.00     0.167 HD
HETATM   15  C   UNL     1     -40.298  52.880 -53.488  1.00  0.00     0.002 A 
HETATM   16  C   UNL     1     -41.259  53.269 -52.551  1.00  0.00     0.002 A 
ENDBRANCH   5   7
ENDBRANCH   1   5
BRANCH   2  17
HETATM   17  C   UNL     1     -44.229  56.698 -59.858  1.00  0.00     0.084 A 
HETATM   18  C   UNL     1     -44.832  57.940 -60.013  1.00  0.00     0.180 A 
HETATM   19  N   UNL     1     -46.136  58.098 -60.353  1.00  0.00    -0.236 NA
HETATM   20  C   UNL     1     -46.844  56.968 -60.588  1.00  0.00     0.119 A 
HETATM   21  C   UNL     1     -46.316  55.689 -60.490  1.00  0.00     0.020 A 
HETATM   22  C   UNL     1     -44.979  55.552 -60.124  1.00  0.00     0.023 A 
BRANCH  18  23
HETATM   23  O   UNL     1     -44.107  59.073 -59.711  1.00  0.00    -0.328 OA
BRANCH  23  24
HETATM   24  C   UNL     1     -43.623  59.766 -60.869  1.00  0.00     0.248 C 
BRANCH  24  25
HETATM   25  C   UNL     1     -42.144  60.099 -60.765  1.00  0.00     0.377 C 
HETATM   26  F   UNL     1     -41.709  59.847 -59.499  1.00  0.00    -0.212 F 
HETATM   27  F   UNL     1     -41.434  59.271 -61.577  1.00  0.00    -0.212 F 
ENDBRANCH  24  25
ENDBRANCH  23  24
ENDBRANCH  18  23
ENDBRANCH   2  17
TORSDOF 6
ENDMDL
MODEL 5
REMARK VINA RESULT:      -7.0      2.483      2.958
REMARK  6 active torsions:
REMARK  status: ('A' for Active; 'I' for Inactive)
REMARK    1  A    between atoms: C_2  and  N_3 
REMARK    2  A    between atoms: C_2  and  C_17 
REMARK       I    between atoms: N_3  and  C_4 
REMARK    3  A    between atoms: C_4  and  C_5 
REMARK    4  A    between atoms: C_6  and  O_7 
REMARK    5  A    between atoms: O_7  and  C_8 
REMARK    6  A    between atoms: C_8  and  C_9 
ROOT
HETATM    1  N   UNL     1     -43.995  56.286 -52.275  1.00  0.00    -0.346 N 
HETATM    2  C   UNL     1     -44.510  57.377 -51.626  1.00  0.00     0.256 C 
HETATM    3  O   UNL     1     -45.192  57.224 -50.617  1.00  0.00    -0.267 OA
HETATM    4  H   UNL     1     -44.213  55.423 -51.794  1.00  0.00     0.163 HD
ENDROOT
BRANCH   1   5
HETATM    5  C   UNL     1     -43.103  56.234 -53.426  1.00  0.00     0.150 C 
HETATM    6  C   UNL     1     -43.902  56.248 -54.725  1.00  0.00     0.040 C 
BRANCH   5   7
HETATM    7  C   UNL     1     -42.248  55.009 -53.282  1.00  0.00     0.127 A 
HETATM    8  N   UNL     1     -42.000  54.112 -54.219  1.00  0.00    -0.231 NA
HETATM    9  C   UNL     1     -41.132  53.208 -53.652  1.00  0.00     0.085 A 
HETATM   10  C   UNL     1     -40.846  53.553 -52.338  1.00  0.00     0.062 A 
HETATM   11  C   UNL     1     -40.538  52.064 -54.203  1.00  0.00     0.034 A 
HETATM   12  N   UNL     1     -41.565  54.701 -52.127  1.00  0.00    -0.341 N 
HETATM   13  C   UNL     1     -39.991  52.816 -51.517  1.00  0.00     0.032 A 
HETATM   14  H   UNL     1     -41.574  55.237 -51.272  1.00  0.00     0.167 HD
HETATM   15  C   UNL     1     -39.407  51.678 -52.083  1.00  0.00     0.002 A 
HETATM   16  C   UNL     1     -39.673  51.304 -53.403  1.00  0.00     0.002 A 
ENDBRANCH   5   7
ENDBRANCH   1   5
BRANCH   2  17
HETATM   17  C   UNL     1     -44.255  58.732 -52.132  1.00  0.00     0.084 A 
HETATM   18  C   UNL     1     -43.066  59.383 -51.826  1.00  0.00     0.180 A 
HETATM   19  N   UNL     1     -42.763  60.628 -52.272  1.00  0.00    -0.236 NA
HETATM   20  C   UNL     1     -43.665  61.217 -53.091  1.00  0.00     0.119 A 
HETATM   21  C   UNL     1     -44.861  60.628 -53.476  1.00  0.00     0.020 A 
HETATM   22  C   UNL     1     -45.159  59.357 -52.992  1.00  0.00     0.023 A 
BRANCH  18  23
HETATM   23  O   UNL     1     -42.191  58.787 -50.944  1.00  0.00    -0.328 OA
BRANCH  23  24
HETATM   24  C   UNL     1     -41.113  59.643 -50.542  1.00  0.00     0.248 C 
BRANCH  24  25
HETATM   25  C   UNL     1     -39.753  59.052 -50.874  1.00  0.00     0.377 C 
HETATM   26  F   UNL     1     -39.556  59.094 -52.221  1.00  0.00    -0.212 F 
HETATM   27  F   UNL     1     -38.777  59.826 -50.329  1.00  0.00    -0.212 F 
ENDBRANCH  24  25
ENDBRANCH  23  24
ENDBRANCH  18  23
ENDBRANCH   2  17
TORSDOF 6
ENDMDL
MODEL 6
REMARK VINA RESULT:      -7.0      2.895      5.287
REMARK  6 active torsions:
REMARK  status: ('A' for Active; 'I' for Inactive)
REMARK    1  A    between atoms: C_2  and  N_3 
REMARK    2  A    between atoms: C_2  and  C_17 
REMARK       I    between atoms: N_3  and  C_4 
REMARK    3  A    between atoms: C_4  and  C_5 
REMARK    4  A    between atoms: C_6  and  O_7 
REMARK    5  A    between atoms: O_7  and  C_8 
REMARK    6  A    between atoms: C_8  and  C_9 
ROOT
HETATM    1  N   UNL     1     -43.394  55.352 -52.647  1.00  0.00    -0.346 N 
HETATM    2  C   UNL     1     -43.261  54.391 -51.680  1.00  0.00     0.256 C 
HETATM    3  O   UNL     1     -44.178  53.605 -51.466  1.00  0.00    -0.267 OA
HETATM    4  H   UNL     1     -44.276  55.275 -53.136  1.00  0.00     0.163 HD
ENDROOT
BRANCH   1   5
HETATM    5  C   UNL     1     -42.418  56.324 -53.121  1.00  0.00     0.150 C 
HETATM    6  C   UNL     1     -42.664  57.687 -52.484  1.00  0.00     0.040 C 
BRANCH   5   7
HETATM    7  C   UNL     1     -42.504  56.360 -54.619  1.00  0.00     0.127 A 
HETATM    8  N   UNL     1     -42.901  55.376 -55.406  1.00  0.00    -0.231 NA
HETATM    9  C   UNL     1     -42.868  55.881 -56.684  1.00  0.00     0.085 A 
HETATM   10  C   UNL     1     -42.435  57.200 -56.684  1.00  0.00     0.062 A 
HETATM   11  C   UNL     1     -43.199  55.271 -57.902  1.00  0.00     0.034 A 
HETATM   12  N   UNL     1     -42.212  57.482 -55.362  1.00  0.00    -0.341 N 
HETATM   13  C   UNL     1     -42.304  57.968 -57.844  1.00  0.00     0.032 A 
HETATM   14  H   UNL     1     -41.902  58.370 -54.997  1.00  0.00     0.167 HD
HETATM   15  C   UNL     1     -42.639  57.343 -59.049  1.00  0.00     0.002 A 
HETATM   16  C   UNL     1     -43.081  56.017 -59.083  1.00  0.00     0.002 A 
ENDBRANCH   5   7
ENDBRANCH   1   5
BRANCH   2  17
HETATM   17  C   UNL     1     -42.024  54.296 -50.892  1.00  0.00     0.084 A 
HETATM   18  C   UNL     1     -40.889  53.707 -51.437  1.00  0.00     0.180 A 
HETATM   19  N   UNL     1     -39.713  53.600 -50.769  1.00  0.00    -0.236 NA
HETATM   20  C   UNL     1     -39.665  54.144 -49.531  1.00  0.00     0.119 A 
HETATM   21  C   UNL     1     -40.738  54.779 -48.922  1.00  0.00     0.020 A 
HETATM   22  C   UNL     1     -41.940  54.862 -49.620  1.00  0.00     0.023 A 
BRANCH  18  23
HETATM   23  O   UNL     1     -40.980  53.111 -52.676  1.00  0.00    -0.328 OA
BRANCH  23  24
HETATM   24  C   UNL     1     -40.057  52.029 -52.858  1.00  0.00     0.248 C 
BRANCH  24  25
HETATM   25  C   UNL     1     -40.092  51.473 -54.272  1.00  0.00     0.377 C 
HETATM   26  F   UNL     1     -39.263  50.395 -54.357  1.00  0.00    -0.212 F 
HETATM   27  F   UNL     1     -41.340  51.009 -54.547  1.00  0.00    -0.212 F 
ENDBRANCH  24  25
ENDBRANCH  23  24
ENDBRANCH  18  23
ENDBRANCH   2  17
TORSDOF 6
ENDMDL
MODEL 7
REMARK VINA RESULT:      -6.9      3.024      3.855
REMARK  6 active torsions:
REMARK  status: ('A' for Active; 'I' for Inactive)
REMARK    1  A    between atoms: C_2  and  N_3 
REMARK    2  A    between atoms: C_2  and  C_17 
REMARK       I    between atoms: N_3  and  C_4 
REMARK    3  A    between atoms: C_4  and  C_5 
REMARK    4  A    between atoms: C_6  and  O_7 
REMARK    5  A    between atoms: O_7  and  C_8 
REMARK    6  A    between atoms: C_8  and  C_9 
ROOT
HETATM    1  N   UNL     1     -43.887  55.875 -52.532  1.00  0.00    -0.346 N 
HETATM    2  C   UNL     1     -43.889  56.682 -51.425  1.00  0.00     0.256 C 
HETATM    3  O   UNL     1     -44.733  56.520 -50.550  1.00  0.00    -0.267 OA
HETATM    4  H   UNL     1     -44.603  55.162 -52.479  1.00  0.00     0.163 HD
ENDROOT
BRANCH   1   5
HETATM    5  C   UNL     1     -42.944  55.833 -53.641  1.00  0.00     0.150 C 
HETATM    6  C   UNL     1     -43.681  55.875 -54.975  1.00  0.00     0.040 C 
BRANCH   5   7
HETATM    7  C   UNL     1     -42.107  54.597 -53.479  1.00  0.00     0.127 A 
HETATM    8  N   UNL     1     -41.898  53.666 -54.392  1.00  0.00    -0.231 NA
HETATM    9  C   UNL     1     -41.033  52.765 -53.817  1.00  0.00     0.085 A 
HETATM   10  C   UNL     1     -40.710  53.145 -52.522  1.00  0.00     0.062 A 
HETATM   11  C   UNL     1     -40.473  51.593 -54.345  1.00  0.00     0.034 A 
HETATM   12  N   UNL     1     -41.403  54.312 -52.331  1.00  0.00    -0.341 N 
HETATM   13  C   UNL     1     -39.849  52.417 -51.697  1.00  0.00     0.032 A 
HETATM   14  H   UNL     1     -41.384  54.874 -51.492  1.00  0.00     0.167 HD
HETATM   15  C   UNL     1     -39.300  51.252 -52.240  1.00  0.00     0.002 A 
HETATM   16  C   UNL     1     -39.603  50.843 -53.542  1.00  0.00     0.002 A 
ENDBRANCH   5   7
ENDBRANCH   1   5
BRANCH   2  17
HETATM   17  C   UNL     1     -42.887  57.747 -51.281  1.00  0.00     0.084 A 
HETATM   18  C   UNL     1     -43.160  59.033 -51.732  1.00  0.00     0.180 A 
HETATM   19  N   UNL     1     -42.286  60.063 -51.617  1.00  0.00    -0.236 NA
HETATM   20  C   UNL     1     -41.117  59.801 -50.987  1.00  0.00     0.119 A 
HETATM   21  C   UNL     1     -40.775  58.558 -50.476  1.00  0.00     0.020 A 
HETATM   22  C   UNL     1     -41.681  57.512 -50.620  1.00  0.00     0.023 A 
BRANCH  18  23
HETATM   23  O   UNL     1     -44.332  59.260 -52.421  1.00  0.00    -0.328 OA
BRANCH  23  24
HETATM   24  C   UNL     1     -44.929  60.531 -52.131  1.00  0.00     0.248 C 
BRANCH  24  25
HETATM   25  C   UNL     1     -46.230  60.394 -51.359  1.00  0.00     0.377 C 
HETATM   26  F   UNL     1     -47.280  60.655 -52.187  1.00  0.00    -0.212 F 
HETATM   27  F   UNL     1     -46.385  59.105 -50.954  1.00  0.00    -0.212 F 
ENDBRANCH  24  25
ENDBRANCH  23  24
ENDBRANCH  18  23
ENDBRANCH   2  17
TORSDOF 6
ENDMDL
MODEL 8
REMARK VINA RESULT:      -6.7      2.383      2.873
REMARK  6 active torsions:
REMARK  status: ('A' for Active; 'I' for Inactive)
REMARK    1  A    between atoms: C_2  and  N_3 
REMARK    2  A    between atoms: C_2  and  C_17 
REMARK       I    between atoms: N_3  and  C_4 
REMARK    3  A    between atoms: C_4  and  C_5 
REMARK    4  A    between atoms: C_6  and  O_7 
REMARK    5  A    between atoms: O_7  and  C_8 
REMARK    6  A    between atoms: C_8  and  C_9 
ROOT
HETATM    1  N   UNL     1     -42.910  55.662 -53.122  1.00  0.00    -0.346 N 
HETATM    2  C   UNL     1     -43.273  56.925 -52.736  1.00  0.00     0.256 C 
HETATM    3  O   UNL     1     -43.912  57.090 -51.701  1.00  0.00    -0.267 OA
HETATM    4  H   UNL     1     -43.191  54.965 -52.444  1.00  0.00     0.163 HD
ENDROOT
BRANCH   1   5
HETATM    5  C   UNL     1     -42.092  55.243 -54.252  1.00  0.00     0.150 C 
HETATM    6  C   UNL     1     -42.931  55.165 -55.523  1.00  0.00     0.040 C 
BRANCH   5   7
HETATM    7  C   UNL     1     -41.460  53.929 -53.893  1.00  0.00     0.127 A 
HETATM    8  N   UNL     1     -41.307  52.888 -54.690  1.00  0.00    -0.231 NA
HETATM    9  C   UNL     1     -40.635  51.944 -53.950  1.00  0.00     0.085 A 
HETATM   10  C   UNL     1     -40.375  52.412 -52.669  1.00  0.00     0.062 A 
HETATM   11  C   UNL     1     -40.205  50.659 -54.308  1.00  0.00     0.034 A 
HETATM   12  N   UNL     1     -40.907  53.675 -52.658  1.00  0.00    -0.341 N 
HETATM   13  C   UNL     1     -39.704  51.666 -51.698  1.00  0.00     0.032 A 
HETATM   14  H   UNL     1     -40.880  54.315 -51.877  1.00  0.00     0.167 HD
HETATM   15  C   UNL     1     -39.283  50.387 -52.072  1.00  0.00     0.002 A 
HETATM   16  C   UNL     1     -39.526  49.887 -53.355  1.00  0.00     0.002 A 
ENDBRANCH   5   7
ENDBRANCH   1   5
BRANCH   2  17
HETATM   17  C   UNL     1     -42.907  58.087 -53.556  1.00  0.00     0.084 A 
HETATM   18  C   UNL     1     -41.608  58.580 -53.535  1.00  0.00     0.180 A 
HETATM   19  N   UNL     1     -41.201  59.639 -54.278  1.00  0.00    -0.236 NA
HETATM   20  C   UNL     1     -42.119  60.191 -55.103  1.00  0.00     0.119 A 
HETATM   21  C   UNL     1     -43.428  59.745 -55.215  1.00  0.00     0.020 A 
HETATM   22  C   UNL     1     -43.828  58.666 -54.430  1.00  0.00     0.023 A 
BRANCH  18  23
HETATM   23  O   UNL     1     -40.707  58.037 -52.643  1.00  0.00    -0.328 OA
BRANCH  23  24
HETATM   24  C   UNL     1     -40.169  58.994 -51.721  1.00  0.00     0.248 C 
BRANCH  24  25
HETATM   25  C   UNL     1     -40.841  58.926 -50.361  1.00  0.00     0.377 C 
HETATM   26  F   UNL     1     -42.022  59.604 -50.403  1.00  0.00    -0.212 F 
HETATM   27  F   UNL     1     -41.162  57.635 -50.077  1.00  0.00    -0.212 F 
ENDBRANCH  24  25
ENDBRANCH  23  24
ENDBRANCH  18  23
ENDBRANCH   2  17
TORSDOF 6
ENDMDL
MODEL 9
REMARK VINA RESULT:      -6.7      5.734      7.976
REMARK  6 active torsions:
REMARK  status: ('A' for Active; 'I' for Inactive)
REMARK    1  A    between atoms: C_2  and  N_3 
REMARK    2  A    between atoms: C_2  and  C_17 
REMARK       I    between atoms: N_3  and  C_4 
REMARK    3  A    between atoms: C_4  and  C_5 
REMARK    4  A    between atoms: C_6  and  O_7 
REMARK    5  A    between atoms: O_7  and  C_8 
REMARK    6  A    between atoms: C_8  and  C_9 
ROOT
HETATM    1  N   UNL     1     -42.712  57.783 -57.196  1.00  0.00    -0.346 N 
HETATM    2  C   UNL     1     -42.696  57.605 -58.554  1.00  0.00     0.256 C 
HETATM    3  O   UNL     1     -41.816  58.127 -59.230  1.00  0.00    -0.267 OA
HETATM    4  H   UNL     1     -41.920  58.325 -56.878  1.00  0.00     0.163 HD
ENDROOT
BRANCH   1   5
HETATM    5  C   UNL     1     -43.601  57.200 -56.200  1.00  0.00     0.150 C 
HETATM    6  C   UNL     1     -44.170  58.282 -55.288  1.00  0.00     0.040 C 
BRANCH   5   7
HETATM    7  C   UNL     1     -42.822  56.159 -55.450  1.00  0.00     0.127 A 
HETATM    8  N   UNL     1     -43.080  55.709 -54.236  1.00  0.00    -0.231 NA
HETATM    9  C   UNL     1     -42.142  54.735 -53.989  1.00  0.00     0.085 A 
HETATM   10  C   UNL     1     -41.285  54.587 -55.071  1.00  0.00     0.062 A 
HETATM   11  C   UNL     1     -41.961  53.925 -52.859  1.00  0.00     0.034 A 
HETATM   12  N   UNL     1     -41.739  55.500 -55.987  1.00  0.00    -0.341 N 
HETATM   13  C   UNL     1     -40.235  53.667 -55.102  1.00  0.00     0.032 A 
HETATM   14  H   UNL     1     -41.350  55.650 -56.906  1.00  0.00     0.167 HD
HETATM   15  C   UNL     1     -40.069  52.868 -53.967  1.00  0.00     0.002 A 
HETATM   16  C   UNL     1     -40.916  52.991 -52.862  1.00  0.00     0.002 A 
ENDBRANCH   5   7
ENDBRANCH   1   5
BRANCH   2  17
HETATM   17  C   UNL     1     -43.732  56.795 -59.210  1.00  0.00     0.084 A 
HETATM   18  C   UNL     1     -44.937  57.372 -59.591  1.00  0.00     0.180 A 
HETATM   19  N   UNL     1     -45.929  56.685 -60.212  1.00  0.00    -0.236 NA
HETATM   20  C   UNL     1     -45.680  55.386 -60.498  1.00  0.00     0.119 A 
HETATM   21  C   UNL     1     -44.495  54.737 -60.185  1.00  0.00     0.020 A 
HETATM   22  C   UNL     1     -43.498  55.458 -59.534  1.00  0.00     0.023 A 
BRANCH  18  23
HETATM   23  O   UNL     1     -45.189  58.680 -59.236  1.00  0.00    -0.328 OA
BRANCH  23  24
HETATM   24  C   UNL     1     -46.585  59.001 -59.187  1.00  0.00     0.248 C 
BRANCH  24  25
HETATM   25  C   UNL     1     -47.112  59.069 -57.763  1.00  0.00     0.377 C 
HETATM   26  F   UNL     1     -48.420  59.447 -57.780  1.00  0.00    -0.212 F 
HETATM   27  F   UNL     1     -47.088  57.827 -57.211  1.00  0.00    -0.212 F 
ENDBRANCH  24  25
ENDBRANCH  23  24
ENDBRANCH  18  23
ENDBRANCH   2  17
TORSDOF 6
ENDMDL
MODEL 10
REMARK VINA RESULT:      -6.5      3.127      4.147
REMARK  6 active torsions:
REMARK  status: ('A' for Active; 'I' for Inactive)
REMARK    1  A    between atoms: C_2  and  N_3 
REMARK    2  A    between atoms: C_2  and  C_17 
REMARK       I    between atoms: N_3  and  C_4 
REMARK    3  A    between atoms: C_4  and  C_5 
REMARK    4  A    between atoms: C_6  and  O_7 
REMARK    5  A    between atoms: O_7  and  C_8 
REMARK    6  A    between atoms: C_8  and  C_9 
ROOT
HETATM    1  N   UNL     1     -43.766  55.775 -52.582  1.00  0.00    -0.346 N 
HETATM    2  C   UNL     1     -43.748  56.592 -51.483  1.00  0.00     0.256 C 
HETATM    3  O   UNL     1     -44.606  56.469 -50.614  1.00  0.00    -0.267 OA
HETATM    4  H   UNL     1     -44.508  55.089 -52.530  1.00  0.00     0.163 HD
ENDROOT
BRANCH   1   5
HETATM    5  C   UNL     1     -42.815  55.688 -53.682  1.00  0.00     0.150 C 
HETATM    6  C   UNL     1     -43.545  55.613 -55.018  1.00  0.00     0.040 C 
BRANCH   5   7
HETATM    7  C   UNL     1     -41.938  54.496 -53.431  1.00  0.00     0.127 A 
HETATM    8  N   UNL     1     -41.323  54.198 -52.301  1.00  0.00    -0.231 NA
HETATM    9  C   UNL     1     -40.688  53.000 -52.524  1.00  0.00     0.085 A 
HETATM   10  C   UNL     1     -40.913  52.554 -53.820  1.00  0.00     0.062 A 
HETATM   11  C   UNL     1     -39.901  52.223 -51.662  1.00  0.00     0.034 A 
HETATM   12  N   UNL     1     -41.711  53.520 -54.375  1.00  0.00    -0.341 N 
HETATM   13  C   UNL     1     -40.391  51.361 -54.325  1.00  0.00     0.032 A 
HETATM   14  H   UNL     1     -42.081  53.505 -55.314  1.00  0.00     0.167 HD
HETATM   15  C   UNL     1     -39.609  50.600 -53.451  1.00  0.00     0.002 A 
HETATM   16  C   UNL     1     -39.366  51.019 -52.140  1.00  0.00     0.002 A 
ENDBRANCH   5   7
ENDBRANCH   1   5
BRANCH   2  17
HETATM   17  C   UNL     1     -42.710  57.621 -51.339  1.00  0.00     0.084 A 
HETATM   18  C   UNL     1     -42.906  58.894 -51.860  1.00  0.00     0.180 A 
HETATM   19  N   UNL     1     -41.995  59.893 -51.749  1.00  0.00    -0.236 NA
HETATM   20  C   UNL     1     -40.868  59.613 -51.053  1.00  0.00     0.119 A 
HETATM   21  C   UNL     1     -40.603  58.382 -50.472  1.00  0.00     0.020 A 
HETATM   22  C   UNL     1     -41.546  57.368 -50.612  1.00  0.00     0.023 A 
BRANCH  18  23
HETATM   23  O   UNL     1     -44.035  59.136 -52.613  1.00  0.00    -0.328 OA
BRANCH  23  24
HETATM   24  C   UNL     1     -43.767  59.271 -54.015  1.00  0.00     0.248 C 
BRANCH  24  25
HETATM   25  C   UNL     1     -43.897  60.708 -54.492  1.00  0.00     0.377 C 
HETATM   26  F   UNL     1     -42.663  61.200 -54.793  1.00  0.00    -0.212 F 
HETATM   27  F   UNL     1     -44.606  60.739 -55.652  1.00  0.00    -0.212 F 
ENDBRANCH  24  25
ENDBRANCH  23  24
ENDBRANCH  18  23
ENDBRANCH   2  17
TORSDOF 6
ENDMDL
