MODEL 1
REMARK VINA RESULT:      -9.4      0.000      0.000
REMARK  3 active torsions:
REMARK  status: ('A' for Active; 'I' for Inactive)
REMARK    1  A    between atoms: N_5  and  C_6 
REMARK    2  A    between atoms: C_7  and  C_8 
REMARK       I    between atoms: C_8  and  N_9 
REMARK    3  A    between atoms: N_9  and  N_10 
ROOT
HETATM    1  C   UNL     1     -45.131  57.341 -54.008  1.00  0.00     0.056 C 
HETATM    2  C   UNL     1     -43.705  56.994 -54.400  1.00  0.00     0.158 C 
HETATM    3  C   UNL     1     -43.295  55.584 -53.968  1.00  0.00     0.267 C 
HETATM    4  O   UNL     1     -43.916  54.571 -54.280  1.00  0.00    -0.269 OA
HETATM    5  N   UNL     1     -42.058  55.665 -53.362  1.00  0.00    -0.230 N 
HETATM    6  C   UNL     1     -41.632  56.978 -53.332  1.00  0.00     0.333 C 
HETATM    7  O   UNL     1     -40.524  57.393 -53.023  1.00  0.00    -0.246 OA
HETATM    8  N   UNL     1     -42.696  57.798 -53.724  1.00  0.00    -0.309 N 
HETATM    9  C   UNL     1     -42.460  59.170 -54.185  1.00  0.00     0.134 C 
HETATM   10  C   UNL     1     -42.010  59.223 -55.664  1.00  0.00     0.061 C 
HETATM   11  C   UNL     1     -42.662  58.136 -56.461  1.00  0.00    -0.018 A 
HETATM   12  C   UNL     1     -43.431  57.148 -55.872  1.00  0.00     0.055 A 
HETATM   13  N   UNL     1     -43.787  56.246 -56.841  1.00  0.00    -0.356 N 
HETATM   14  H   UNL     1     -44.306  55.388 -56.687  1.00  0.00     0.166 HD
HETATM   15  C   UNL     1     -43.192  56.593 -58.035  1.00  0.00     0.043 A 
HETATM   16  C   UNL     1     -42.510  57.797 -57.834  1.00  0.00    -0.001 A 
HETATM   17  C   UNL     1     -43.183  55.919 -59.262  1.00  0.00     0.030 A 
HETATM   18  C   UNL     1     -42.462  56.493 -60.313  1.00  0.00     0.002 A 
HETATM   19  C   UNL     1     -41.788  57.701 -60.145  1.00  0.00     0.001 A 
HETATM   20  C   UNL     1     -41.803  58.363 -58.912  1.00  0.00     0.014 A 
ENDROOT
BRANCH   5  21
HETATM   21  C   UNL     1     -41.230  54.524 -53.205  1.00  0.00     0.063 A 
HETATM   22  C   UNL     1     -41.166  53.795 -51.999  1.00  0.00     0.060 A 
HETATM   23  C   UNL     1     -40.515  52.551 -51.958  1.00  0.00     0.019 A 
HETATM   24  C   UNL     1     -39.886  52.048 -53.095  1.00  0.00     0.001 A 
HETATM   25  C   UNL     1     -39.885  52.791 -54.271  1.00  0.00     0.002 A 
HETATM   26  C   UNL     1     -40.546  54.021 -54.325  1.00  0.00     0.031 A 
BRANCH  22  27
HETATM   27  C   UNL     1     -41.658  54.319 -50.696  1.00  0.00     0.268 C 
HETATM   28  N   UNL     1     -40.671  54.645 -49.769  1.00  0.00    -0.290 N 
HETATM   29  H   UNL     1     -39.698  54.395 -49.936  1.00  0.00     0.183 HD
HETATM   30  O   UNL     1     -42.859  54.364 -50.444  1.00  0.00    -0.266 OA
BRANCH  28  31
HETATM   31  N   UNL     1     -41.051  55.044 -48.470  1.00  0.00    -0.247 NA
HETATM   32  H   UNL     1     -40.264  55.581 -48.084  1.00  0.00     0.143 HD
HETATM   33  H   UNL     1     -41.047  54.199 -47.887  1.00  0.00     0.143 HD
ENDBRANCH  28  31
ENDBRANCH  22  27
ENDBRANCH   5  21
TORSDOF 3
ENDMDL
MODEL 2
REMARK VINA RESULT:      -8.8      2.864      6.209
REMARK  3 active torsions:
REMARK  status: ('A' for Active; 'I' for Inactive)
REMARK    1  A    between atoms: N_5  and  C_6 
REMARK    2  A    between atoms: C_7  and  C_8 
REMARK       I    between atoms: C_8  and  N_9 
REMARK    3  A    between atoms: N_9  and  N_10 
ROOT
HETATM    1  C   UNL     1     -40.387  59.200 -51.824  1.00  0.00     0.056 C 
HETATM    2  C   UNL     1     -41.531  58.465 -52.500  1.00  0.00     0.158 C 
HETATM    3  C   UNL     1     -42.042  59.182 -53.752  1.00  0.00     0.267 C 
HETATM    4  O   UNL     1     -41.322  59.492 -54.698  1.00  0.00    -0.269 OA
HETATM    5  N   UNL     1     -43.420  59.228 -53.687  1.00  0.00    -0.230 N 
HETATM    6  C   UNL     1     -43.856  58.642 -52.516  1.00  0.00     0.333 C 
HETATM    7  O   UNL     1     -45.006  58.362 -52.210  1.00  0.00    -0.246 OA
HETATM    8  N   UNL     1     -42.745  58.402 -51.699  1.00  0.00    -0.309 N 
HETATM    9  C   UNL     1     -42.816  57.439 -50.595  1.00  0.00     0.134 C 
HETATM   10  C   UNL     1     -42.645  55.980 -51.078  1.00  0.00     0.061 C 
HETATM   11  C   UNL     1     -41.702  55.907 -52.240  1.00  0.00    -0.018 A 
HETATM   12  C   UNL     1     -41.204  57.040 -52.858  1.00  0.00     0.055 A 
HETATM   13  N   UNL     1     -40.470  56.648 -53.947  1.00  0.00    -0.356 N 
HETATM   14  H   UNL     1     -40.033  57.269 -54.620  1.00  0.00     0.166 HD
HETATM   15  C   UNL     1     -40.552  55.279 -54.089  1.00  0.00     0.043 A 
HETATM   16  C   UNL     1     -41.289  54.785 -53.008  1.00  0.00    -0.001 A 
HETATM   17  C   UNL     1     -40.057  54.451 -55.104  1.00  0.00     0.030 A 
HETATM   18  C   UNL     1     -40.317  53.081 -55.009  1.00  0.00     0.002 A 
HETATM   19  C   UNL     1     -41.034  52.559 -53.934  1.00  0.00     0.001 A 
HETATM   20  C   UNL     1     -41.526  53.399 -52.928  1.00  0.00     0.014 A 
ENDROOT
BRANCH   5  21
HETATM   21  C   UNL     1     -44.212  59.462 -54.840  1.00  0.00     0.063 A 
HETATM   22  C   UNL     1     -44.755  58.414 -55.611  1.00  0.00     0.060 A 
HETATM   23  C   UNL     1     -45.713  58.687 -56.601  1.00  0.00     0.019 A 
HETATM   24  C   UNL     1     -46.102  60.000 -56.863  1.00  0.00     0.001 A 
HETATM   25  C   UNL     1     -45.522  61.046 -56.153  1.00  0.00     0.002 A 
HETATM   26  C   UNL     1     -44.581  60.782 -55.154  1.00  0.00     0.031 A 
BRANCH  22  27
HETATM   27  C   UNL     1     -44.287  57.004 -55.526  1.00  0.00     0.268 C 
HETATM   28  N   UNL     1     -44.979  56.195 -54.628  1.00  0.00    -0.290 N 
HETATM   29  H   UNL     1     -45.655  56.598 -53.980  1.00  0.00     0.183 HD
HETATM   30  O   UNL     1     -43.296  56.626 -56.145  1.00  0.00    -0.266 OA
BRANCH  28  31
HETATM   31  N   UNL     1     -44.532  54.877 -54.403  1.00  0.00    -0.247 NA
HETATM   32  H   UNL     1     -43.736  54.723 -55.035  1.00  0.00     0.143 HD
HETATM   33  H   UNL     1     -45.245  54.251 -54.793  1.00  0.00     0.143 HD
ENDBRANCH  28  31
ENDBRANCH  22  27
ENDBRANCH   5  21
TORSDOF 3
ENDMDL
MODEL 3
REMARK VINA RESULT:      -8.7      2.129      4.710
REMARK  3 active torsions:
REMARK  status: ('A' for Active; 'I' for Inactive)
REMARK    1  A    between atoms: N_5  and  C_6 
REMARK    2  A    between atoms: C_7  and  C_8 
REMARK       I    between atoms: C_8  and  N_9 
REMARK    3  A    between atoms: N_9  and  N_10 
ROOT
HETATM    1  C   UNL     1     -42.184  56.890 -56.157  1.00  0.00     0.056 C 
HETATM    2  C   UNL     1     -42.038  56.287 -54.771  1.00  0.00     0.158 C 
HETATM    3  C   UNL     1     -41.010  55.155 -54.721  1.00  0.00     0.267 C 
HETATM    4  O   UNL     1     -39.844  55.279 -55.087  1.00  0.00    -0.269 OA
HETATM    5  N   UNL     1     -41.574  54.095 -54.040  1.00  0.00    -0.230 N 
HETATM    6  C   UNL     1     -42.865  54.408 -53.666  1.00  0.00     0.333 C 
HETATM    7  O   UNL     1     -43.595  53.777 -52.915  1.00  0.00    -0.246 OA
HETATM    8  N   UNL     1     -43.232  55.603 -54.297  1.00  0.00    -0.309 N 
HETATM    9  C   UNL     1     -44.356  56.403 -53.800  1.00  0.00     0.134 C 
HETATM   10  C   UNL     1     -43.960  57.284 -52.591  1.00  0.00     0.061 C 
HETATM   11  C   UNL     1     -42.542  57.752 -52.712  1.00  0.00    -0.018 A 
HETATM   12  C   UNL     1     -41.697  57.298 -53.709  1.00  0.00     0.055 A 
HETATM   13  N   UNL     1     -40.449  57.816 -53.482  1.00  0.00    -0.356 N 
HETATM   14  H   UNL     1     -39.616  57.608 -54.023  1.00  0.00     0.166 HD
HETATM   15  C   UNL     1     -40.454  58.536 -52.307  1.00  0.00     0.043 A 
HETATM   16  C   UNL     1     -41.766  58.543 -51.821  1.00  0.00    -0.001 A 
HETATM   17  C   UNL     1     -39.397  59.152 -51.627  1.00  0.00     0.030 A 
HETATM   18  C   UNL     1     -39.688  59.796 -50.421  1.00  0.00     0.002 A 
HETATM   19  C   UNL     1     -40.989  59.834 -49.923  1.00  0.00     0.001 A 
HETATM   20  C   UNL     1     -42.036  59.211 -50.612  1.00  0.00     0.014 A 
ENDROOT
BRANCH   5  21
HETATM   21  C   UNL     1     -40.780  53.061 -53.481  1.00  0.00     0.063 A 
HETATM   22  C   UNL     1     -40.508  52.977 -52.100  1.00  0.00     0.060 A 
HETATM   23  C   UNL     1     -39.915  51.822 -51.564  1.00  0.00     0.019 A 
HETATM   24  C   UNL     1     -39.546  50.768 -52.398  1.00  0.00     0.001 A 
HETATM   25  C   UNL     1     -39.748  50.870 -53.770  1.00  0.00     0.002 A 
HETATM   26  C   UNL     1     -40.354  52.008 -54.310  1.00  0.00     0.031 A 
BRANCH  22  27
HETATM   27  C   UNL     1     -40.709  54.108 -51.154  1.00  0.00     0.268 C 
HETATM   28  N   UNL     1     -41.633  53.882 -50.135  1.00  0.00    -0.290 N 
HETATM   29  H   UNL     1     -42.223  53.052 -50.145  1.00  0.00     0.183 HD
HETATM   30  O   UNL     1     -40.157  55.191 -51.332  1.00  0.00    -0.266 OA
BRANCH  28  31
HETATM   31  N   UNL     1     -41.965  54.938 -49.261  1.00  0.00    -0.247 NA
HETATM   32  H   UNL     1     -42.978  54.877 -49.097  1.00  0.00     0.143 HD
HETATM   33  H   UNL     1     -41.883  55.807 -49.801  1.00  0.00     0.143 HD
ENDBRANCH  28  31
ENDBRANCH  22  27
ENDBRANCH   5  21
TORSDOF 3
ENDMDL
MODEL 4
REMARK VINA RESULT:      -8.7      2.353      6.472
REMARK  3 active torsions:
REMARK  status: ('A' for Active; 'I' for Inactive)
REMARK    1  A    between atoms: N_5  and  C_6 
REMARK    2  A    between atoms: C_7  and  C_8 
REMARK       I    between atoms: C_8  and  N_9 
REMARK    3  A    between atoms: N_9  and  N_10 
ROOT
HETATM    1  C   UNL     1     -42.086  60.533 -51.121  1.00  0.00     0.056 C 
HETATM    2  C   UNL     1     -42.582  59.522 -52.140  1.00  0.00     0.158 C 
HETATM    3  C   UNL     1     -41.831  59.601 -53.471  1.00  0.00     0.267 C 
HETATM    4  O   UNL     1     -40.610  59.507 -53.568  1.00  0.00    -0.269 OA
HETATM    5  N   UNL     1     -42.763  59.602 -54.489  1.00  0.00    -0.230 N 
HETATM    6  C   UNL     1     -44.037  59.557 -53.961  1.00  0.00     0.333 C 
HETATM    7  O   UNL     1     -45.085  59.380 -54.565  1.00  0.00    -0.246 OA
HETATM    8  N   UNL     1     -43.951  59.750 -52.578  1.00  0.00    -0.309 N 
HETATM    9  C   UNL     1     -45.052  59.356 -51.692  1.00  0.00     0.134 C 
HETATM   10  C   UNL     1     -45.039  57.842 -51.377  1.00  0.00     0.061 C 
HETATM   11  C   UNL     1     -43.636  57.322 -51.308  1.00  0.00    -0.018 A 
HETATM   12  C   UNL     1     -42.542  58.100 -51.646  1.00  0.00     0.055 A 
HETATM   13  N   UNL     1     -41.422  57.313 -51.592  1.00  0.00    -0.356 N 
HETATM   14  H   UNL     1     -40.483  57.604 -51.844  1.00  0.00     0.166 HD
HETATM   15  C   UNL     1     -41.783  56.015 -51.301  1.00  0.00     0.043 A 
HETATM   16  C   UNL     1     -43.165  56.000 -51.081  1.00  0.00    -0.001 A 
HETATM   17  C   UNL     1     -41.000  54.856 -51.246  1.00  0.00     0.030 A 
HETATM   18  C   UNL     1     -41.644  53.651 -50.954  1.00  0.00     0.002 A 
HETATM   19  C   UNL     1     -43.016  53.609 -50.713  1.00  0.00     0.001 A 
HETATM   20  C   UNL     1     -43.787  54.775 -50.774  1.00  0.00     0.014 A 
ENDROOT
BRANCH   5  21
HETATM   21  C   UNL     1     -42.408  59.275 -55.823  1.00  0.00     0.063 A 
HETATM   22  C   UNL     1     -42.529  57.968 -56.340  1.00  0.00     0.060 A 
HETATM   23  C   UNL     1     -42.386  57.737 -57.718  1.00  0.00     0.019 A 
HETATM   24  C   UNL     1     -42.076  58.787 -58.580  1.00  0.00     0.001 A 
HETATM   25  C   UNL     1     -41.889  60.067 -58.070  1.00  0.00     0.002 A 
HETATM   26  C   UNL     1     -42.047  60.310 -56.703  1.00  0.00     0.031 A 
BRANCH  22  27
HETATM   27  C   UNL     1     -42.692  56.759 -55.487  1.00  0.00     0.268 C 
HETATM   28  N   UNL     1     -43.993  56.274 -55.377  1.00  0.00    -0.290 N 
HETATM   29  H   UNL     1     -44.780  56.808 -55.741  1.00  0.00     0.183 HD
HETATM   30  O   UNL     1     -41.745  56.295 -54.859  1.00  0.00    -0.266 OA
BRANCH  28  31
HETATM   31  N   UNL     1     -44.254  55.199 -54.502  1.00  0.00    -0.247 NA
HETATM   32  H   UNL     1     -44.422  54.373 -55.091  1.00  0.00     0.143 HD
HETATM   33  H   UNL     1     -45.180  55.368 -54.093  1.00  0.00     0.143 HD
ENDBRANCH  28  31
ENDBRANCH  22  27
ENDBRANCH   5  21
TORSDOF 3
ENDMDL
MODEL 5
REMARK VINA RESULT:      -8.5      1.874      2.767
REMARK  3 active torsions:
REMARK  status: ('A' for Active; 'I' for Inactive)
REMARK    1  A    between atoms: N_5  and  C_6 
REMARK    2  A    between atoms: C_7  and  C_8 
REMARK       I    between atoms: C_8  and  N_9 
REMARK    3  A    between atoms: N_9  and  N_10 
ROOT
HETATM    1  C   UNL     1     -45.204  59.210 -53.965  1.00  0.00     0.056 C 
HETATM    2  C   UNL     1     -43.881  58.506 -54.213  1.00  0.00     0.158 C 
HETATM    3  C   UNL     1     -43.726  57.225 -53.390  1.00  0.00     0.267 C 
HETATM    4  O   UNL     1     -44.534  56.300 -53.414  1.00  0.00    -0.269 OA
HETATM    5  N   UNL     1     -42.475  57.241 -52.807  1.00  0.00    -0.230 N 
HETATM    6  C   UNL     1     -41.813  58.404 -53.142  1.00  0.00     0.333 C 
HETATM    7  O   UNL     1     -40.637  58.674 -52.940  1.00  0.00    -0.246 OA
HETATM    8  N   UNL     1     -42.719  59.264 -53.773  1.00  0.00    -0.309 N 
HETATM    9  C   UNL     1     -42.248  60.380 -54.599  1.00  0.00     0.134 C 
HETATM   10  C   UNL     1     -41.846  59.928 -56.023  1.00  0.00     0.061 C 
HETATM   11  C   UNL     1     -42.715  58.802 -56.492  1.00  0.00    -0.018 A 
HETATM   12  C   UNL     1     -43.634  58.183 -55.662  1.00  0.00     0.055 A 
HETATM   13  N   UNL     1     -44.183  57.127 -56.341  1.00  0.00    -0.356 N 
HETATM   14  H   UNL     1     -44.847  56.460 -55.961  1.00  0.00     0.166 HD
HETATM   15  C   UNL     1     -43.576  57.004 -57.573  1.00  0.00     0.043 A 
HETATM   16  C   UNL     1     -42.675  58.066 -57.708  1.00  0.00    -0.001 A 
HETATM   17  C   UNL     1     -43.733  56.022 -58.557  1.00  0.00     0.030 A 
HETATM   18  C   UNL     1     -42.954  56.130 -59.713  1.00  0.00     0.002 A 
HETATM   19  C   UNL     1     -42.062  57.187 -59.882  1.00  0.00     0.001 A 
HETATM   20  C   UNL     1     -41.913  58.161 -58.887  1.00  0.00     0.014 A 
ENDROOT
BRANCH   5  21
HETATM   21  C   UNL     1     -41.868  56.057 -52.315  1.00  0.00     0.063 A 
HETATM   22  C   UNL     1     -41.466  55.003 -53.162  1.00  0.00     0.060 A 
HETATM   23  C   UNL     1     -40.669  53.959 -52.663  1.00  0.00     0.019 A 
HETATM   24  C   UNL     1     -40.309  53.929 -51.317  1.00  0.00     0.001 A 
HETATM   25  C   UNL     1     -40.757  54.928 -50.459  1.00  0.00     0.002 A 
HETATM   26  C   UNL     1     -41.535  55.980 -50.951  1.00  0.00     0.031 A 
BRANCH  22  27
HETATM   27  C   UNL     1     -41.933  54.855 -54.567  1.00  0.00     0.268 C 
HETATM   28  N   UNL     1     -43.104  54.119 -54.735  1.00  0.00    -0.290 N 
HETATM   29  H   UNL     1     -43.510  53.604 -53.956  1.00  0.00     0.183 HD
HETATM   30  O   UNL     1     -41.267  55.283 -55.505  1.00  0.00    -0.266 OA
BRANCH  28  31
HETATM   31  N   UNL     1     -43.557  53.837 -56.040  1.00  0.00    -0.247 NA
HETATM   32  H   UNL     1     -43.146  52.933 -56.307  1.00  0.00     0.143 HD
HETATM   33  H   UNL     1     -43.077  54.490 -56.669  1.00  0.00     0.143 HD
ENDBRANCH  28  31
ENDBRANCH  22  27
ENDBRANCH   5  21
TORSDOF 3
ENDMDL
MODEL 6
REMARK VINA RESULT:      -8.5      2.560      5.246
REMARK  3 active torsions:
REMARK  status: ('A' for Active; 'I' for Inactive)
REMARK    1  A    between atoms: N_5  and  C_6 
REMARK    2  A    between atoms: C_7  and  C_8 
REMARK       I    between atoms: C_8  and  N_9 
REMARK    3  A    between atoms: N_9  and  N_10 
ROOT
HETATM    1  C   UNL     1     -41.818  59.620 -55.645  1.00  0.00     0.056 C 
HETATM    2  C   UNL     1     -42.425  58.702 -54.599  1.00  0.00     0.158 C 
HETATM    3  C   UNL     1     -41.421  57.693 -54.037  1.00  0.00     0.267 C 
HETATM    4  O   UNL     1     -40.350  58.013 -53.528  1.00  0.00    -0.269 OA
HETATM    5  N   UNL     1     -42.017  56.448 -54.042  1.00  0.00    -0.230 N 
HETATM    6  C   UNL     1     -43.289  56.536 -54.569  1.00  0.00     0.333 C 
HETATM    7  O   UNL     1     -44.153  55.671 -54.574  1.00  0.00    -0.246 OA
HETATM    8  N   UNL     1     -43.453  57.812 -55.120  1.00  0.00    -0.309 N 
HETATM    9  C   UNL     1     -44.791  58.354 -55.382  1.00  0.00     0.134 C 
HETATM   10  C   UNL     1     -45.450  58.932 -54.108  1.00  0.00     0.061 C 
HETATM   11  C   UNL     1     -44.423  59.544 -53.205  1.00  0.00    -0.018 A 
HETATM   12  C   UNL     1     -43.065  59.437 -53.452  1.00  0.00     0.055 A 
HETATM   13  N   UNL     1     -42.392  59.994 -52.396  1.00  0.00    -0.356 N 
HETATM   14  H   UNL     1     -41.384  60.008 -52.279  1.00  0.00     0.166 HD
HETATM   15  C   UNL     1     -43.294  60.390 -51.431  1.00  0.00     0.043 A 
HETATM   16  C   UNL     1     -44.579  60.152 -51.930  1.00  0.00    -0.001 A 
HETATM   17  C   UNL     1     -43.067  60.908 -50.150  1.00  0.00     0.030 A 
HETATM   18  C   UNL     1     -44.184  61.196 -49.360  1.00  0.00     0.002 A 
HETATM   19  C   UNL     1     -45.475  60.986 -49.838  1.00  0.00     0.001 A 
HETATM   20  C   UNL     1     -45.687  60.464 -51.119  1.00  0.00     0.014 A 
ENDROOT
BRANCH   5  21
HETATM   21  C   UNL     1     -41.525  55.384 -53.243  1.00  0.00     0.063 A 
HETATM   22  C   UNL     1     -42.003  55.132 -51.940  1.00  0.00     0.060 A 
HETATM   23  C   UNL     1     -41.657  53.943 -51.277  1.00  0.00     0.019 A 
HETATM   24  C   UNL     1     -40.802  53.023 -51.880  1.00  0.00     0.001 A 
HETATM   25  C   UNL     1     -40.272  53.294 -53.138  1.00  0.00     0.002 A 
HETATM   26  C   UNL     1     -40.624  54.467 -53.811  1.00  0.00     0.031 A 
BRANCH  22  27
HETATM   27  C   UNL     1     -42.783  56.121 -51.146  1.00  0.00     0.268 C 
HETATM   28  N   UNL     1     -44.163  55.931 -51.141  1.00  0.00    -0.290 N 
HETATM   29  H   UNL     1     -44.596  55.250 -51.762  1.00  0.00     0.183 HD
HETATM   30  O   UNL     1     -42.234  57.083 -50.616  1.00  0.00    -0.266 OA
BRANCH  28  31
HETATM   31  N   UNL     1     -44.986  56.885 -50.505  1.00  0.00    -0.247 NA
HETATM   32  H   UNL     1     -45.837  56.967 -51.076  1.00  0.00     0.143 HD
HETATM   33  H   UNL     1     -44.541  57.799 -50.643  1.00  0.00     0.143 HD
ENDBRANCH  28  31
ENDBRANCH  22  27
ENDBRANCH   5  21
TORSDOF 3
ENDMDL
MODEL 7
REMARK VINA RESULT:      -8.0      2.344      3.505
REMARK  3 active torsions:
REMARK  status: ('A' for Active; 'I' for Inactive)
REMARK    1  A    between atoms: N_5  and  C_6 
REMARK    2  A    between atoms: C_7  and  C_8 
REMARK       I    between atoms: C_8  and  N_9 
REMARK    3  A    between atoms: N_9  and  N_10 
ROOT
HETATM    1  C   UNL     1     -44.142  58.993 -51.330  1.00  0.00     0.056 C 
HETATM    2  C   UNL     1     -43.411  58.346 -52.493  1.00  0.00     0.158 C 
HETATM    3  C   UNL     1     -43.238  56.835 -52.320  1.00  0.00     0.267 C 
HETATM    4  O   UNL     1     -44.173  56.063 -52.124  1.00  0.00    -0.269 OA
HETATM    5  N   UNL     1     -41.926  56.519 -52.608  1.00  0.00    -0.230 N 
HETATM    6  C   UNL     1     -41.224  57.664 -52.924  1.00  0.00     0.333 C 
HETATM    7  O   UNL     1     -40.094  57.739 -53.387  1.00  0.00    -0.246 OA
HETATM    8  N   UNL     1     -42.026  58.772 -52.629  1.00  0.00    -0.309 N 
HETATM    9  C   UNL     1     -41.744  60.085 -53.219  1.00  0.00     0.134 C 
HETATM   10  C   UNL     1     -42.286  60.209 -54.662  1.00  0.00     0.061 C 
HETATM   11  C   UNL     1     -43.558  59.435 -54.824  1.00  0.00    -0.018 A 
HETATM   12  C   UNL     1     -44.053  58.610 -53.829  1.00  0.00     0.055 A 
HETATM   13  N   UNL     1     -45.155  57.959 -54.318  1.00  0.00    -0.356 N 
HETATM   14  H   UNL     1     -45.689  57.250 -53.827  1.00  0.00     0.166 HD
HETATM   15  C   UNL     1     -45.336  58.291 -55.644  1.00  0.00     0.043 A 
HETATM   16  C   UNL     1     -44.368  59.245 -55.977  1.00  0.00    -0.001 A 
HETATM   17  C   UNL     1     -46.258  57.799 -56.575  1.00  0.00     0.030 A 
HETATM   18  C   UNL     1     -46.195  58.298 -57.879  1.00  0.00     0.002 A 
HETATM   19  C   UNL     1     -45.253  59.261 -58.233  1.00  0.00     0.001 A 
HETATM   20  C   UNL     1     -44.334  59.743 -57.293  1.00  0.00     0.014 A 
ENDROOT
BRANCH   5  21
HETATM   21  C   UNL     1     -41.531  55.194 -52.925  1.00  0.00     0.063 A 
HETATM   22  C   UNL     1     -41.596  54.677 -54.235  1.00  0.00     0.060 A 
HETATM   23  C   UNL     1     -40.987  53.449 -54.542  1.00  0.00     0.019 A 
HETATM   24  C   UNL     1     -40.355  52.707 -53.546  1.00  0.00     0.001 A 
HETATM   25  C   UNL     1     -40.345  53.177 -52.236  1.00  0.00     0.002 A 
HETATM   26  C   UNL     1     -40.933  54.406 -51.926  1.00  0.00     0.031 A 
BRANCH  22  27
HETATM   27  C   UNL     1     -42.385  55.306 -55.328  1.00  0.00     0.268 C 
HETATM   28  N   UNL     1     -41.642  55.983 -56.293  1.00  0.00    -0.290 N 
HETATM   29  H   UNL     1     -40.646  56.148 -56.159  1.00  0.00     0.183 HD
HETATM   30  O   UNL     1     -43.613  55.296 -55.310  1.00  0.00    -0.266 OA
BRANCH  28  31
HETATM   31  N   UNL     1     -42.316  56.701 -57.302  1.00  0.00    -0.247 NA
HETATM   32  H   UNL     1     -41.608  56.967 -57.999  1.00  0.00     0.143 HD
HETATM   33  H   UNL     1     -42.577  57.608 -56.898  1.00  0.00     0.143 HD
ENDBRANCH  28  31
ENDBRANCH  22  27
ENDBRANCH   5  21
TORSDOF 3
ENDMDL
MODEL 8
REMARK VINA RESULT:      -8.0     15.482     18.576
REMARK  3 active torsions:
REMARK  status: ('A' for Active; 'I' for Inactive)
REMARK    1  A    between atoms: N_5  and  C_6 
REMARK    2  A    between atoms: C_7  and  C_8 
REMARK       I    between atoms: C_8  and  N_9 
REMARK    3  A    between atoms: N_9  and  N_10 
ROOT
HETATM    1  C   UNL     1     -31.447  38.722 -57.055  1.00  0.00     0.056 C 
HETATM    2  C   UNL     1     -32.582  38.834 -56.052  1.00  0.00     0.158 C 
HETATM    3  C   UNL     1     -32.189  39.609 -54.793  1.00  0.00     0.267 C 
HETATM    4  O   UNL     1     -31.731  40.749 -54.812  1.00  0.00    -0.269 OA
HETATM    5  N   UNL     1     -32.612  38.886 -53.696  1.00  0.00    -0.230 N 
HETATM    6  C   UNL     1     -33.214  37.715 -54.107  1.00  0.00     0.333 C 
HETATM    7  O   UNL     1     -33.844  36.922 -53.421  1.00  0.00    -0.246 OA
HETATM    8  N   UNL     1     -32.991  37.559 -55.480  1.00  0.00    -0.309 N 
HETATM    9  C   UNL     1     -33.825  36.658 -56.282  1.00  0.00     0.134 C 
HETATM   10  C   UNL     1     -35.173  37.305 -56.680  1.00  0.00     0.061 C 
HETATM   11  C   UNL     1     -35.014  38.778 -56.904  1.00  0.00    -0.018 A 
HETATM   12  C   UNL     1     -33.833  39.444 -56.625  1.00  0.00     0.055 A 
HETATM   13  N   UNL     1     -34.040  40.784 -56.824  1.00  0.00    -0.356 N 
HETATM   14  H   UNL     1     -33.364  41.519 -56.643  1.00  0.00     0.166 HD
HETATM   15  C   UNL     1     -35.360  41.004 -57.152  1.00  0.00     0.043 A 
HETATM   16  C   UNL     1     -35.986  39.757 -57.246  1.00  0.00    -0.001 A 
HETATM   17  C   UNL     1     -36.050  42.208 -57.341  1.00  0.00     0.030 A 
HETATM   18  C   UNL     1     -37.413  42.136 -57.640  1.00  0.00     0.002 A 
HETATM   19  C   UNL     1     -38.058  40.906 -57.756  1.00  0.00     0.001 A 
HETATM   20  C   UNL     1     -37.357  39.710 -57.561  1.00  0.00     0.014 A 
ENDROOT
BRANCH   5  21
HETATM   21  C   UNL     1     -32.759  39.487 -52.420  1.00  0.00     0.063 A 
HETATM   22  C   UNL     1     -33.922  40.192 -52.043  1.00  0.00     0.060 A 
HETATM   23  C   UNL     1     -34.117  40.571 -50.705  1.00  0.00     0.019 A 
HETATM   24  C   UNL     1     -33.144  40.297 -49.746  1.00  0.00     0.001 A 
HETATM   25  C   UNL     1     -31.964  39.663 -50.120  1.00  0.00     0.002 A 
HETATM   26  C   UNL     1     -31.769  39.267 -51.446  1.00  0.00     0.031 A 
BRANCH  22  27
HETATM   27  C   UNL     1     -34.938  40.677 -53.016  1.00  0.00     0.268 C 
HETATM   28  N   UNL     1     -35.054  42.061 -53.122  1.00  0.00    -0.290 N 
HETATM   29  H   UNL     1     -34.574  42.674 -52.467  1.00  0.00     0.183 HD
HETATM   30  O   UNL     1     -35.677  39.892 -53.605  1.00  0.00    -0.266 OA
BRANCH  28  31
HETATM   31  N   UNL     1     -36.068  42.605 -53.938  1.00  0.00    -0.247 NA
HETATM   32  H   UNL     1     -36.934  42.100 -53.710  1.00  0.00     0.143 HD
HETATM   33  H   UNL     1     -35.877  42.292 -54.897  1.00  0.00     0.143 HD
ENDBRANCH  28  31
ENDBRANCH  22  27
ENDBRANCH   5  21
TORSDOF 3
ENDMDL
MODEL 9
REMARK VINA RESULT:      -7.9      1.988      3.602
REMARK  3 active torsions:
REMARK  status: ('A' for Active; 'I' for Inactive)
REMARK    1  A    between atoms: N_5  and  C_6 
REMARK    2  A    between atoms: C_7  and  C_8 
REMARK       I    between atoms: C_8  and  N_9 
REMARK    3  A    between atoms: N_9  and  N_10 
ROOT
HETATM    1  C   UNL     1     -44.593  56.406 -50.809  1.00  0.00     0.056 C 
HETATM    2  C   UNL     1     -43.304  56.270 -51.599  1.00  0.00     0.158 C 
HETATM    3  C   UNL     1     -43.021  54.829 -52.031  1.00  0.00     0.267 C 
HETATM    4  O   UNL     1     -43.810  54.148 -52.681  1.00  0.00    -0.269 OA
HETATM    5  N   UNL     1     -41.705  54.543 -51.730  1.00  0.00    -0.230 N 
HETATM    6  C   UNL     1     -41.111  55.633 -51.127  1.00  0.00     0.333 C 
HETATM    7  O   UNL     1     -39.924  55.790 -50.880  1.00  0.00    -0.246 OA
HETATM    8  N   UNL     1     -42.106  56.570 -50.828  1.00  0.00    -0.309 N 
HETATM    9  C   UNL     1     -41.765  57.973 -50.568  1.00  0.00     0.134 C 
HETATM   10  C   UNL     1     -41.547  58.776 -51.872  1.00  0.00     0.061 C 
HETATM   11  C   UNL     1     -42.452  58.285 -52.960  1.00  0.00    -0.018 A 
HETATM   12  C   UNL     1     -43.243  57.160 -52.811  1.00  0.00     0.055 A 
HETATM   13  N   UNL     1     -43.860  56.907 -54.009  1.00  0.00    -0.356 N 
HETATM   14  H   UNL     1     -44.457  56.111 -54.210  1.00  0.00     0.166 HD
HETATM   15  C   UNL     1     -43.418  57.807 -54.955  1.00  0.00     0.043 A 
HETATM   16  C   UNL     1     -42.560  58.707 -54.314  1.00  0.00    -0.001 A 
HETATM   17  C   UNL     1     -43.687  57.871 -56.327  1.00  0.00     0.030 A 
HETATM   18  C   UNL     1     -43.069  58.886 -57.063  1.00  0.00     0.002 A 
HETATM   19  C   UNL     1     -42.224  59.807 -56.447  1.00  0.00     0.001 A 
HETATM   20  C   UNL     1     -41.960  59.728 -55.074  1.00  0.00     0.014 A 
ENDROOT
BRANCH   5  21
HETATM   21  C   UNL     1     -41.019  53.461 -52.341  1.00  0.00     0.063 A 
HETATM   22  C   UNL     1     -40.771  53.409 -53.729  1.00  0.00     0.060 A 
HETATM   23  C   UNL     1     -39.898  52.442 -54.255  1.00  0.00     0.019 A 
HETATM   24  C   UNL     1     -39.307  51.497 -53.419  1.00  0.00     0.001 A 
HETATM   25  C   UNL     1     -39.598  51.499 -52.059  1.00  0.00     0.002 A 
HETATM   26  C   UNL     1     -40.452  52.468 -51.524  1.00  0.00     0.031 A 
BRANCH  22  27
HETATM   27  C   UNL     1     -41.479  54.262 -54.722  1.00  0.00     0.268 C 
HETATM   28  N   UNL     1     -42.657  53.728 -55.240  1.00  0.00    -0.290 N 
HETATM   29  H   UNL     1     -42.917  52.762 -55.050  1.00  0.00     0.183 HD
HETATM   30  O   UNL     1     -40.990  55.318 -55.113  1.00  0.00    -0.266 OA
BRANCH  28  31
HETATM   31  N   UNL     1     -43.332  54.420 -56.267  1.00  0.00    -0.247 NA
HETATM   32  H   UNL     1     -42.892  55.346 -56.338  1.00  0.00     0.143 HD
HETATM   33  H   UNL     1     -44.266  54.648 -55.907  1.00  0.00     0.143 HD
ENDBRANCH  28  31
ENDBRANCH  22  27
ENDBRANCH   5  21
TORSDOF 3
ENDMDL
MODEL 10
REMARK VINA RESULT:      -7.6      2.943      6.716
REMARK  3 active torsions:
REMARK  status: ('A' for Active; 'I' for Inactive)
REMARK    1  A    between atoms: N_5  and  C_6 
REMARK    2  A    between atoms: C_7  and  C_8 
REMARK       I    between atoms: C_8  and  N_9 
REMARK    3  A    between atoms: N_9  and  N_10 
ROOT
HETATM    1  C   UNL     1     -42.439  60.399 -53.348  1.00  0.00     0.056 C 
HETATM    2  C   UNL     1     -42.973  59.445 -54.402  1.00  0.00     0.158 C 
HETATM    3  C   UNL     1     -42.635  59.885 -55.828  1.00  0.00     0.267 C 
HETATM    4  O   UNL     1     -41.491  60.106 -56.217  1.00  0.00    -0.269 OA
HETATM    5  N   UNL     1     -43.784  59.796 -56.587  1.00  0.00    -0.230 N 
HETATM    6  C   UNL     1     -44.836  59.371 -55.802  1.00  0.00     0.333 C 
HETATM    7  O   UNL     1     -45.949  59.027 -56.174  1.00  0.00    -0.246 OA
HETATM    8  N   UNL     1     -44.427  59.390 -54.464  1.00  0.00    -0.309 N 
HETATM    9  C   UNL     1     -45.150  58.623 -53.444  1.00  0.00     0.134 C 
HETATM   10  C   UNL     1     -44.747  57.129 -53.438  1.00  0.00     0.061 C 
HETATM   11  C   UNL     1     -43.301  56.963 -53.792  1.00  0.00    -0.018 A 
HETATM   12  C   UNL     1     -42.518  58.023 -54.214  1.00  0.00     0.055 A 
HETATM   13  N   UNL     1     -41.288  57.533 -54.569  1.00  0.00    -0.356 N 
HETATM   14  H   UNL     1     -40.529  58.076 -54.967  1.00  0.00     0.166 HD
HETATM   15  C   UNL     1     -41.289  56.159 -54.459  1.00  0.00     0.043 A 
HETATM   16  C   UNL     1     -42.530  55.778 -53.938  1.00  0.00    -0.001 A 
HETATM   17  C   UNL     1     -40.302  55.230 -54.809  1.00  0.00     0.030 A 
HETATM   18  C   UNL     1     -40.588  53.876 -54.615  1.00  0.00     0.002 A 
HETATM   19  C   UNL     1     -41.809  53.468 -54.081  1.00  0.00     0.001 A 
HETATM   20  C   UNL     1     -42.788  54.408 -53.739  1.00  0.00     0.014 A 
ENDROOT
BRANCH   5  21
HETATM   21  C   UNL     1     -43.739  59.750 -58.004  1.00  0.00     0.063 A 
HETATM   22  C   UNL     1     -43.542  58.549 -58.717  1.00  0.00     0.060 A 
HETATM   23  C   UNL     1     -43.730  58.512 -60.108  1.00  0.00     0.019 A 
HETATM   24  C   UNL     1     -44.068  59.672 -60.804  1.00  0.00     0.001 A 
HETATM   25  C   UNL     1     -44.198  60.876 -60.119  1.00  0.00     0.002 A 
HETATM   26  C   UNL     1     -44.029  60.917 -58.732  1.00  0.00     0.031 A 
BRANCH  22  27
HETATM   27  C   UNL     1     -43.022  57.301 -58.095  1.00  0.00     0.268 C 
HETATM   28  N   UNL     1     -43.961  56.291 -57.899  1.00  0.00    -0.290 N 
HETATM   29  H   UNL     1     -44.954  56.470 -58.041  1.00  0.00     0.183 HD
HETATM   30  O   UNL     1     -41.860  57.224 -57.704  1.00  0.00    -0.266 OA
BRANCH  28  31
HETATM   31  N   UNL     1     -43.578  55.118 -57.215  1.00  0.00    -0.247 NA
HETATM   32  H   UNL     1     -44.420  54.763 -56.744  1.00  0.00     0.143 HD
HETATM   33  H   UNL     1     -42.993  55.413 -56.425  1.00  0.00     0.143 HD
ENDBRANCH  28  31
ENDBRANCH  22  27
ENDBRANCH   5  21
TORSDOF 3
ENDMDL
