MODEL 1
REMARK VINA RESULT:      -8.8      0.000      0.000
REMARK  6 active torsions:
REMARK  status: ('A' for Active; 'I' for Inactive)
REMARK    1  A    between atoms: C_2  and  O_3 
REMARK    2  A    between atoms: O_3  and  C_4 
REMARK    3  A    between atoms: C_5  and  O_6 
REMARK    4  A    between atoms: O_6  and  C_7 
REMARK    5  A    between atoms: C_7  and  C_8 
REMARK    6  A    between atoms: C_18  and  C_19 
ROOT
HETATM    1  C   UNL     1     -43.141  55.662 -53.823  1.00  0.00     0.103 A 
HETATM    2  C   UNL     1     -42.404  54.514 -54.136  1.00  0.00     0.112 A 
HETATM    3  C   UNL     1     -41.914  54.281 -55.421  1.00  0.00     0.041 A 
HETATM    4  C   UNL     1     -42.131  55.230 -56.414  1.00  0.00     0.014 A 
HETATM    5  C   UNL     1     -42.853  56.405 -56.134  1.00  0.00    -0.013 A 
HETATM    6  C   UNL     1     -43.358  56.606 -54.833  1.00  0.00     0.050 A 
ENDROOT
BRANCH   5   7
HETATM    7  C   UNL     1     -43.081  57.440 -57.213  1.00  0.00     0.219 C 
HETATM    8  N   UNL     1     -42.446  57.055 -58.447  1.00  0.00    -0.332 N 
HETATM    9  C   UNL     1     -42.222  57.946 -59.463  1.00  0.00     0.256 C 
HETATM   10  H   UNL     1     -42.533  56.093 -58.741  1.00  0.00     0.165 HD
HETATM   11  O   UNL     1     -42.028  57.584 -60.618  1.00  0.00    -0.267 OA
HETATM   12  C   UNL     1     -42.196  59.344 -59.064  1.00  0.00     0.073 A 
HETATM   13  C   UNL     1     -42.357  59.659 -57.734  1.00  0.00     0.088 A 
HETATM   14  C   UNL     1     -41.984  60.512 -59.864  1.00  0.00    -0.023 A 
HETATM   15  S   UNL     1     -42.248  61.328 -57.436  1.00  0.00    -0.074 SA
HETATM   16  N   UNL     1     -42.560  58.723 -56.783  1.00  0.00    -0.358 N 
HETATM   17  C   UNL     1     -41.979  61.656 -59.085  1.00  0.00     0.018 A 
HETATM   18  C   UNL     1     -41.776  63.039 -59.597  1.00  0.00     0.281 C 
HETATM   19  N   UNL     1     -41.186  63.029 -61.003  1.00  0.00    -0.070 N 
HETATM   20  C   UNL     1     -41.874  61.994 -61.892  1.00  0.00     0.239 C 
HETATM   21  H   UNL     1     -41.398  63.949 -61.406  1.00  0.00     0.279 HD
HETATM   22  C   UNL     1     -39.689  62.908 -61.000  1.00  0.00     0.270 C 
HETATM   23  C   UNL     1     -41.737  60.564 -61.342  1.00  0.00     0.068 C 
HETATM   24  H   UNL     1     -42.839  59.004 -55.846  1.00  0.00     0.162 HD
ENDBRANCH   5   7
BRANCH   1  25
HETATM   25  O   UNL     1     -43.603  55.753 -52.538  1.00  0.00    -0.349 OA
BRANCH  25  26
HETATM   26  C   UNL     1     -43.247  56.916 -51.793  1.00  0.00     0.171 C 
HETATM   27  C   UNL     1     -44.525  57.645 -51.419  1.00  0.00     0.034 C 
ENDBRANCH  25  26
ENDBRANCH   1  25
BRANCH   2  28
HETATM   28  O   UNL     1     -42.177  53.533 -53.167  1.00  0.00    -0.272 OA
BRANCH  28  29
HETATM   29  C   UNL     1     -40.877  53.560 -52.712  1.00  0.00     0.300 C 
HETATM   30  O   UNL     1     -40.234  54.513 -52.296  1.00  0.00    -0.259 OA
BRANCH  29  31
HETATM   31  C   UNL     1     -40.350  52.184 -52.717  1.00  0.00     0.061 A 
HETATM   32  C   UNL     1     -40.020  51.492 -51.545  1.00  0.00     0.050 A 
HETATM   33 CL   UNL     1     -40.235  52.160 -49.966  1.00  0.00    -0.083 Cl
HETATM   34  C   UNL     1     -39.545  50.179 -51.629  1.00  0.00     0.025 A 
HETATM   35  C   UNL     1     -39.413  49.555 -52.872  1.00  0.00     0.002 A 
HETATM   36  C   UNL     1     -39.762  50.237 -54.036  1.00  0.00     0.001 A 
HETATM   37  C   UNL     1     -40.235  51.548 -53.962  1.00  0.00     0.019 A 
ENDBRANCH  29  31
ENDBRANCH  28  29
ENDBRANCH   2  28
TORSDOF 6
ENDMDL
MODEL 2
REMARK VINA RESULT:      -8.7      3.873      6.729
REMARK  6 active torsions:
REMARK  status: ('A' for Active; 'I' for Inactive)
REMARK    1  A    between atoms: C_2  and  O_3 
REMARK    2  A    between atoms: O_3  and  C_4 
REMARK    3  A    between atoms: C_5  and  O_6 
REMARK    4  A    between atoms: O_6  and  C_7 
REMARK    5  A    between atoms: C_7  and  C_8 
REMARK    6  A    between atoms: C_18  and  C_19 
ROOT
HETATM    1  C   UNL     1     -43.097  55.832 -54.082  1.00  0.00     0.103 A 
HETATM    2  C   UNL     1     -42.543  54.851 -53.252  1.00  0.00     0.112 A 
HETATM    3  C   UNL     1     -42.287  55.088 -51.901  1.00  0.00     0.041 A 
HETATM    4  C   UNL     1     -42.625  56.321 -51.352  1.00  0.00     0.014 A 
HETATM    5  C   UNL     1     -43.200  57.326 -52.150  1.00  0.00    -0.013 A 
HETATM    6  C   UNL     1     -43.427  57.070 -53.518  1.00  0.00     0.050 A 
ENDROOT
BRANCH   5   7
HETATM    7  C   UNL     1     -43.575  58.662 -51.548  1.00  0.00     0.219 C 
HETATM    8  N   UNL     1     -44.658  58.525 -50.608  1.00  0.00    -0.332 N 
HETATM    9  C   UNL     1     -45.393  59.598 -50.179  1.00  0.00     0.256 C 
HETATM   10  H   UNL     1     -44.625  57.749 -49.962  1.00  0.00     0.165 HD
HETATM   11  O   UNL     1     -46.051  59.566 -49.145  1.00  0.00    -0.267 OA
HETATM   12  C   UNL     1     -45.364  60.757 -51.055  1.00  0.00     0.073 A 
HETATM   13  C   UNL     1     -44.653  60.684 -52.231  1.00  0.00     0.088 A 
HETATM   14  C   UNL     1     -46.017  62.022 -50.908  1.00  0.00    -0.023 A 
HETATM   15  S   UNL     1     -44.768  62.103 -53.158  1.00  0.00    -0.074 SA
HETATM   16  N   UNL     1     -43.962  59.584 -52.598  1.00  0.00    -0.358 N 
HETATM   17  C   UNL     1     -45.776  62.838 -52.000  1.00  0.00     0.018 A 
HETATM   18  C   UNL     1     -46.311  64.217 -52.173  1.00  0.00     0.281 C 
HETATM   19  N   UNL     1     -47.466  64.488 -51.213  1.00  0.00    -0.070 N 
HETATM   20  C   UNL     1     -47.158  63.974 -49.808  1.00  0.00     0.239 C 
HETATM   21  H   UNL     1     -47.542  65.509 -51.143  1.00  0.00     0.279 HD
HETATM   22  C   UNL     1     -48.785  64.006 -51.747  1.00  0.00     0.270 C 
HETATM   23  C   UNL     1     -46.905  62.457 -49.780  1.00  0.00     0.068 C 
HETATM   24  H   UNL     1     -43.320  59.628 -53.385  1.00  0.00     0.162 HD
ENDBRANCH   5   7
BRANCH   1  25
HETATM   25  O   UNL     1     -43.259  55.491 -55.397  1.00  0.00    -0.349 OA
BRANCH  25  26
HETATM   26  C   UNL     1     -42.530  56.241 -56.366  1.00  0.00     0.171 C 
HETATM   27  C   UNL     1     -43.528  56.978 -57.241  1.00  0.00     0.034 C 
ENDBRANCH  25  26
ENDBRANCH   1  25
BRANCH   2  28
HETATM   28  O   UNL     1     -42.179  53.606 -53.773  1.00  0.00    -0.272 OA
BRANCH  28  29
HETATM   29  C   UNL     1     -40.822  53.527 -53.995  1.00  0.00     0.300 C 
HETATM   30  O   UNL     1     -40.069  54.385 -54.432  1.00  0.00    -0.259 OA
BRANCH  29  31
HETATM   31  C   UNL     1     -40.348  52.209 -53.534  1.00  0.00     0.061 A 
HETATM   32  C   UNL     1     -39.834  51.994 -52.250  1.00  0.00     0.050 A 
HETATM   33 CL   UNL     1     -39.737  53.237 -51.054  1.00  0.00    -0.083 Cl
HETATM   34  C   UNL     1     -39.424  50.709 -51.877  1.00  0.00     0.025 A 
HETATM   35  C   UNL     1     -39.539  49.644 -52.774  1.00  0.00     0.002 A 
HETATM   36  C   UNL     1     -40.072  49.856 -54.044  1.00  0.00     0.001 A 
HETATM   37  C   UNL     1     -40.481  51.134 -54.425  1.00  0.00     0.019 A 
ENDBRANCH  29  31
ENDBRANCH  28  29
ENDBRANCH   2  28
TORSDOF 6
ENDMDL
MODEL 3
REMARK VINA RESULT:      -8.4      3.772      4.370
REMARK  6 active torsions:
REMARK  status: ('A' for Active; 'I' for Inactive)
REMARK    1  A    between atoms: C_2  and  O_3 
REMARK    2  A    between atoms: O_3  and  C_4 
REMARK    3  A    between atoms: C_5  and  O_6 
REMARK    4  A    between atoms: O_6  and  C_7 
REMARK    5  A    between atoms: C_7  and  C_8 
REMARK    6  A    between atoms: C_18  and  C_19 
ROOT
HETATM    1  C   UNL     1     -42.370  57.311 -54.883  1.00  0.00     0.103 A 
HETATM    2  C   UNL     1     -41.948  55.978 -54.812  1.00  0.00     0.112 A 
HETATM    3  C   UNL     1     -42.114  55.095 -55.879  1.00  0.00     0.041 A 
HETATM    4  C   UNL     1     -42.683  55.557 -57.061  1.00  0.00     0.014 A 
HETATM    5  C   UNL     1     -43.105  56.894 -57.177  1.00  0.00    -0.013 A 
HETATM    6  C   UNL     1     -42.947  57.761 -56.076  1.00  0.00     0.050 A 
ENDROOT
BRANCH   5   7
HETATM    7  C   UNL     1     -43.715  57.396 -58.466  1.00  0.00     0.219 C 
HETATM    8  N   UNL     1     -43.920  58.821 -58.425  1.00  0.00    -0.332 N 
HETATM    9  C   UNL     1     -44.742  59.467 -59.310  1.00  0.00     0.256 C 
HETATM   10  H   UNL     1     -43.182  59.392 -58.039  1.00  0.00     0.165 HD
HETATM   11  O   UNL     1     -44.653  60.671 -59.523  1.00  0.00    -0.267 OA
HETATM   12  C   UNL     1     -45.745  58.630 -59.946  1.00  0.00     0.073 A 
HETATM   13  C   UNL     1     -45.818  57.300 -59.599  1.00  0.00     0.088 A 
HETATM   14  C   UNL     1     -46.749  58.984 -60.902  1.00  0.00    -0.023 A 
HETATM   15  S   UNL     1     -47.076  56.481 -60.394  1.00  0.00    -0.074 SA
HETATM   16  N   UNL     1     -44.982  56.733 -58.704  1.00  0.00    -0.358 N 
HETATM   17  C   UNL     1     -47.546  57.896 -61.216  1.00  0.00     0.018 A 
HETATM   18  C   UNL     1     -48.689  57.919 -62.169  1.00  0.00     0.281 C 
HETATM   19  N   UNL     1     -49.136  59.347 -62.465  1.00  0.00    -0.070 N 
HETATM   20  C   UNL     1     -47.942  60.270 -62.704  1.00  0.00     0.239 C 
HETATM   21  H   UNL     1     -49.656  59.304 -63.349  1.00  0.00     0.279 HD
HETATM   22  C   UNL     1     -50.099  59.875 -61.439  1.00  0.00     0.270 C 
HETATM   23  C   UNL     1     -47.003  60.341 -61.488  1.00  0.00     0.068 C 
HETATM   24  H   UNL     1     -44.960  55.722 -58.601  1.00  0.00     0.162 HD
ENDBRANCH   5   7
BRANCH   1  25
HETATM   25  O   UNL     1     -42.190  58.064 -53.755  1.00  0.00    -0.349 OA
BRANCH  25  26
HETATM   26  C   UNL     1     -41.249  59.134 -53.822  1.00  0.00     0.171 C 
HETATM   27  C   UNL     1     -40.124  58.835 -52.847  1.00  0.00     0.034 C 
ENDBRANCH  25  26
ENDBRANCH   1  25
BRANCH   2  28
HETATM   28  O   UNL     1     -41.384  55.477 -53.635  1.00  0.00    -0.272 OA
BRANCH  28  29
HETATM   29  C   UNL     1     -42.077  54.381 -53.169  1.00  0.00     0.300 C 
HETATM   30  O   UNL     1     -43.266  54.287 -52.902  1.00  0.00    -0.259 OA
BRANCH  29  31
HETATM   31  C   UNL     1     -41.151  53.236 -53.102  1.00  0.00     0.061 A 
HETATM   32  C   UNL     1     -40.346  52.973 -51.986  1.00  0.00     0.050 A 
HETATM   33 CL   UNL     1     -40.382  53.937 -50.553  1.00  0.00    -0.083 Cl
HETATM   34  C   UNL     1     -39.508  51.854 -51.988  1.00  0.00     0.025 A 
HETATM   35  C   UNL     1     -39.482  50.994 -53.088  1.00  0.00     0.002 A 
HETATM   36  C   UNL     1     -40.299  51.243 -54.189  1.00  0.00     0.001 A 
HETATM   37  C   UNL     1     -41.137  52.359 -54.197  1.00  0.00     0.019 A 
ENDBRANCH  29  31
ENDBRANCH  28  29
ENDBRANCH   2  28
TORSDOF 6
ENDMDL
MODEL 4
REMARK VINA RESULT:      -8.1      2.051      2.282
REMARK  6 active torsions:
REMARK  status: ('A' for Active; 'I' for Inactive)
REMARK    1  A    between atoms: C_2  and  O_3 
REMARK    2  A    between atoms: O_3  and  C_4 
REMARK    3  A    between atoms: C_5  and  O_6 
REMARK    4  A    between atoms: O_6  and  C_7 
REMARK    5  A    between atoms: C_7  and  C_8 
REMARK    6  A    between atoms: C_18  and  C_19 
ROOT
HETATM    1  C   UNL     1     -42.007  56.268 -53.897  1.00  0.00     0.103 A 
HETATM    2  C   UNL     1     -42.109  54.934 -54.308  1.00  0.00     0.112 A 
HETATM    3  C   UNL     1     -42.818  54.567 -55.452  1.00  0.00     0.041 A 
HETATM    4  C   UNL     1     -43.413  55.556 -56.229  1.00  0.00     0.014 A 
HETATM    5  C   UNL     1     -43.317  56.909 -55.859  1.00  0.00    -0.013 A 
HETATM    6  C   UNL     1     -42.615  57.252 -54.684  1.00  0.00     0.050 A 
ENDROOT
BRANCH   5   7
HETATM    7  C   UNL     1     -43.956  57.984 -56.710  1.00  0.00     0.219 C 
HETATM    8  N   UNL     1     -44.839  57.413 -57.694  1.00  0.00    -0.332 N 
HETATM    9  C   UNL     1     -45.279  58.122 -58.780  1.00  0.00     0.256 C 
HETATM   10  H   UNL     1     -45.453  56.667 -57.399  1.00  0.00     0.165 HD
HETATM   11  O   UNL     1     -46.280  57.797 -59.410  1.00  0.00    -0.267 OA
HETATM   12  C   UNL     1     -44.454  59.260 -59.151  1.00  0.00     0.073 A 
HETATM   13  C   UNL     1     -43.309  59.514 -58.430  1.00  0.00     0.088 A 
HETATM   14  C   UNL     1     -44.623  60.192 -60.223  1.00  0.00    -0.023 A 
HETATM   15  S   UNL     1     -42.437  60.844 -59.028  1.00  0.00    -0.074 SA
HETATM   16  N   UNL     1     -42.929  58.761 -57.377  1.00  0.00    -0.358 N 
HETATM   17  C   UNL     1     -43.579  61.100 -60.265  1.00  0.00     0.018 A 
HETATM   18  C   UNL     1     -43.439  62.198 -61.260  1.00  0.00     0.281 C 
HETATM   19  N   UNL     1     -44.355  61.980 -62.460  1.00  0.00    -0.070 N 
HETATM   20  C   UNL     1     -45.751  61.536 -62.025  1.00  0.00     0.239 C 
HETATM   21  H   UNL     1     -44.465  62.900 -62.904  1.00  0.00     0.279 HD
HETATM   22  C   UNL     1     -43.743  61.084 -63.499  1.00  0.00     0.270 C 
HETATM   23  C   UNL     1     -45.727  60.214 -61.238  1.00  0.00     0.068 C 
HETATM   24  H   UNL     1     -42.175  59.077 -56.773  1.00  0.00     0.162 HD
ENDBRANCH   5   7
BRANCH   1  25
HETATM   25  O   UNL     1     -41.321  56.492 -52.735  1.00  0.00    -0.349 OA
BRANCH  25  26
HETATM   26  C   UNL     1     -42.060  56.987 -51.619  1.00  0.00     0.171 C 
HETATM   27  C   UNL     1     -41.265  56.696 -50.360  1.00  0.00     0.034 C 
ENDBRANCH  25  26
ENDBRANCH   1  25
BRANCH   2  28
HETATM   28  O   UNL     1     -41.536  53.912 -53.544  1.00  0.00    -0.272 OA
BRANCH  28  29
HETATM   29  C   UNL     1     -40.376  53.441 -54.118  1.00  0.00     0.300 C 
HETATM   30  O   UNL     1     -39.638  54.000 -54.916  1.00  0.00    -0.259 OA
BRANCH  29  31
HETATM   31  C   UNL     1     -40.076  52.116 -53.546  1.00  0.00     0.061 A 
HETATM   32  C   UNL     1     -39.731  51.929 -52.202  1.00  0.00     0.050 A 
HETATM   33 CL   UNL     1     -39.661  53.223 -51.059  1.00  0.00    -0.083 Cl
HETATM   34  C   UNL     1     -39.481  50.637 -51.727  1.00  0.00     0.025 A 
HETATM   35  C   UNL     1     -39.588  49.538 -52.582  1.00  0.00     0.002 A 
HETATM   36  C   UNL     1     -39.953  49.723 -53.915  1.00  0.00     0.001 A 
HETATM   37  C   UNL     1     -40.201  51.008 -54.398  1.00  0.00     0.019 A 
ENDBRANCH  29  31
ENDBRANCH  28  29
ENDBRANCH   2  28
TORSDOF 6
ENDMDL
MODEL 5
REMARK VINA RESULT:      -8.1      4.085     10.366
REMARK  6 active torsions:
REMARK  status: ('A' for Active; 'I' for Inactive)
REMARK    1  A    between atoms: C_2  and  O_3 
REMARK    2  A    between atoms: O_3  and  C_4 
REMARK    3  A    between atoms: C_5  and  O_6 
REMARK    4  A    between atoms: O_6  and  C_7 
REMARK    5  A    between atoms: C_7  and  C_8 
REMARK    6  A    between atoms: C_18  and  C_19 
ROOT
HETATM    1  C   UNL     1     -43.402  56.563 -59.770  1.00  0.00     0.103 A 
HETATM    2  C   UNL     1     -42.718  57.784 -59.768  1.00  0.00     0.112 A 
HETATM    3  C   UNL     1     -42.144  58.306 -58.609  1.00  0.00     0.041 A 
HETATM    4  C   UNL     1     -42.221  57.578 -57.426  1.00  0.00     0.014 A 
HETATM    5  C   UNL     1     -42.884  56.338 -57.391  1.00  0.00    -0.013 A 
HETATM    6  C   UNL     1     -43.477  55.844 -58.572  1.00  0.00     0.050 A 
ENDROOT
BRANCH   5   7
HETATM    7  C   UNL     1     -42.958  55.544 -56.106  1.00  0.00     0.219 C 
HETATM    8  N   UNL     1     -43.337  56.381 -54.997  1.00  0.00    -0.332 N 
HETATM    9  C   UNL     1     -43.161  55.993 -53.695  1.00  0.00     0.256 C 
HETATM   10  H   UNL     1     -44.083  57.046 -55.143  1.00  0.00     0.165 HD
HETATM   11  O   UNL     1     -43.784  56.505 -52.772  1.00  0.00    -0.267 OA
HETATM   12  C   UNL     1     -42.157  54.963 -53.488  1.00  0.00     0.073 A 
HETATM   13  C   UNL     1     -41.455  54.490 -54.573  1.00  0.00     0.088 A 
HETATM   14  C   UNL     1     -41.728  54.346 -52.270  1.00  0.00    -0.023 A 
HETATM   15  S   UNL     1     -40.288  53.331 -54.148  1.00  0.00    -0.074 SA
HETATM   16  N   UNL     1     -41.673  54.931 -55.831  1.00  0.00    -0.358 N 
HETATM   17  C   UNL     1     -40.703  53.444 -52.501  1.00  0.00     0.018 A 
HETATM   18  C   UNL     1     -40.022  52.637 -51.452  1.00  0.00     0.281 C 
HETATM   19  N   UNL     1     -40.298  53.190 -50.058  1.00  0.00    -0.070 N 
HETATM   20  C   UNL     1     -41.772  53.555 -49.883  1.00  0.00     0.239 C 
HETATM   21  H   UNL     1     -40.107  52.422 -49.405  1.00  0.00     0.279 HD
HETATM   22  C   UNL     1     -39.361  54.303 -49.682  1.00  0.00     0.270 C 
HETATM   23  C   UNL     1     -42.234  54.626 -50.886  1.00  0.00     0.068 C 
HETATM   24  H   UNL     1     -41.256  54.443 -56.619  1.00  0.00     0.162 HD
ENDBRANCH   5   7
BRANCH   1  25
HETATM   25  O   UNL     1     -43.957  56.181 -60.961  1.00  0.00    -0.349 OA
BRANCH  25  26
HETATM   26  C   UNL     1     -45.023  55.234 -60.916  1.00  0.00     0.171 C 
HETATM   27  C   UNL     1     -46.324  55.997 -60.751  1.00  0.00     0.034 C 
ENDBRANCH  25  26
ENDBRANCH   1  25
BRANCH   2  28
HETATM   28  O   UNL     1     -42.633  58.549 -60.935  1.00  0.00    -0.272 OA
BRANCH  28  29
HETATM   29  C   UNL     1     -43.273  59.761 -60.795  1.00  0.00     0.300 C 
HETATM   30  O   UNL     1     -44.414  59.981 -60.415  1.00  0.00    -0.259 OA
BRANCH  29  31
HETATM   31  C   UNL     1     -42.315  60.836 -61.109  1.00  0.00     0.061 A 
HETATM   32  C   UNL     1     -42.209  61.411 -62.381  1.00  0.00     0.050 A 
HETATM   33 CL   UNL     1     -43.216  60.955 -63.708  1.00  0.00    -0.083 Cl
HETATM   34  C   UNL     1     -41.289  62.443 -62.597  1.00  0.00     0.025 A 
HETATM   35  C   UNL     1     -40.491  62.908 -61.549  1.00  0.00     0.002 A 
HETATM   36  C   UNL     1     -40.613  62.349 -60.278  1.00  0.00     0.001 A 
HETATM   37  C   UNL     1     -41.526  61.318 -60.054  1.00  0.00     0.019 A 
ENDBRANCH  29  31
ENDBRANCH  28  29
ENDBRANCH   2  28
TORSDOF 6
ENDMDL
MODEL 6
REMARK VINA RESULT:      -7.8      1.632      2.167
REMARK  6 active torsions:
REMARK  status: ('A' for Active; 'I' for Inactive)
REMARK    1  A    between atoms: C_2  and  O_3 
REMARK    2  A    between atoms: O_3  and  C_4 
REMARK    3  A    between atoms: C_5  and  O_6 
REMARK    4  A    between atoms: O_6  and  C_7 
REMARK    5  A    between atoms: C_7  and  C_8 
REMARK    6  A    between atoms: C_18  and  C_19 
ROOT
HETATM    1  C   UNL     1     -42.052  56.827 -54.836  1.00  0.00     0.103 A 
HETATM    2  C   UNL     1     -42.283  55.526 -55.299  1.00  0.00     0.112 A 
HETATM    3  C   UNL     1     -42.683  55.271 -56.611  1.00  0.00     0.041 A 
HETATM    4  C   UNL     1     -42.824  56.333 -57.497  1.00  0.00     0.014 A 
HETATM    5  C   UNL     1     -42.584  57.653 -57.075  1.00  0.00    -0.013 A 
HETATM    6  C   UNL     1     -42.203  57.887 -55.737  1.00  0.00     0.050 A 
ENDROOT
BRANCH   5   7
HETATM    7  C   UNL     1     -42.728  58.806 -58.043  1.00  0.00     0.219 C 
HETATM    8  N   UNL     1     -42.209  58.464 -59.342  1.00  0.00    -0.332 N 
HETATM    9  C   UNL     1     -41.922  59.413 -60.288  1.00  0.00     0.256 C 
HETATM   10  H   UNL     1     -42.433  57.552 -59.713  1.00  0.00     0.165 HD
HETATM   11  O   UNL     1     -41.831  59.139 -61.479  1.00  0.00    -0.267 OA
HETATM   12  C   UNL     1     -41.696  60.752 -59.770  1.00  0.00     0.073 A 
HETATM   13  C   UNL     1     -41.750  60.958 -58.410  1.00  0.00     0.088 A 
HETATM   14  C   UNL     1     -41.374  61.955 -60.475  1.00  0.00    -0.023 A 
HETATM   15  S   UNL     1     -41.412  62.564 -57.974  1.00  0.00    -0.074 SA
HETATM   16  N   UNL     1     -42.026  59.968 -57.534  1.00  0.00    -0.358 N 
HETATM   17  C   UNL     1     -41.184  63.011 -59.601  1.00  0.00     0.018 A 
HETATM   18  C   UNL     1     -40.829  64.400 -60.001  1.00  0.00     0.281 C 
HETATM   19  N   UNL     1     -40.314  64.450 -61.435  1.00  0.00    -0.070 N 
HETATM   20  C   UNL     1     -41.172  63.598 -62.369  1.00  0.00     0.239 C 
HETATM   21  H   UNL     1     -40.424  65.424 -61.742  1.00  0.00     0.279 HD
HETATM   22  C   UNL     1     -38.846  64.144 -61.533  1.00  0.00     0.270 C 
HETATM   23  C   UNL     1     -41.194  62.116 -61.955  1.00  0.00     0.068 C 
HETATM   24  H   UNL     1     -42.220  60.192 -56.561  1.00  0.00     0.162 HD
ENDBRANCH   5   7
BRANCH   1  25
HETATM   25  O   UNL     1     -41.706  56.948 -53.518  1.00  0.00    -0.349 OA
BRANCH  25  26
HETATM   26  C   UNL     1     -42.564  57.722 -52.681  1.00  0.00     0.171 C 
HETATM   27  C   UNL     1     -43.674  56.817 -52.179  1.00  0.00     0.034 C 
ENDBRANCH  25  26
ENDBRANCH   1  25
BRANCH   2  28
HETATM   28  O   UNL     1     -42.165  54.435 -54.432  1.00  0.00    -0.272 OA
BRANCH  28  29
HETATM   29  C   UNL     1     -40.888  53.918 -54.440  1.00  0.00     0.300 C 
HETATM   30  O   UNL     1     -40.054  53.958 -55.333  1.00  0.00    -0.259 OA
BRANCH  29  31
HETATM   31  C   UNL     1     -40.609  53.339 -53.113  1.00  0.00     0.061 A 
HETATM   32  C   UNL     1     -40.100  52.046 -52.941  1.00  0.00     0.050 A 
HETATM   33 CL   UNL     1     -39.704  51.006 -54.262  1.00  0.00    -0.083 Cl
HETATM   34  C   UNL     1     -39.841  51.574 -51.650  1.00  0.00     0.025 A 
HETATM   35  C   UNL     1     -40.074  52.389 -50.540  1.00  0.00     0.002 A 
HETATM   36  C   UNL     1     -40.560  53.683 -50.714  1.00  0.00     0.001 A 
HETATM   37  C   UNL     1     -40.824  54.163 -51.998  1.00  0.00     0.019 A 
ENDBRANCH  29  31
ENDBRANCH  28  29
ENDBRANCH   2  28
TORSDOF 6
ENDMDL
MODEL 7
REMARK VINA RESULT:      -7.7      2.003      2.825
REMARK  6 active torsions:
REMARK  status: ('A' for Active; 'I' for Inactive)
REMARK    1  A    between atoms: C_2  and  O_3 
REMARK    2  A    between atoms: O_3  and  C_4 
REMARK    3  A    between atoms: C_5  and  O_6 
REMARK    4  A    between atoms: O_6  and  C_7 
REMARK    5  A    between atoms: C_7  and  C_8 
REMARK    6  A    between atoms: C_18  and  C_19 
ROOT
HETATM    1  C   UNL     1     -41.937  57.692 -52.448  1.00  0.00     0.103 A 
HETATM    2  C   UNL     1     -43.036  57.030 -51.891  1.00  0.00     0.112 A 
HETATM    3  C   UNL     1     -44.259  56.945 -52.556  1.00  0.00     0.041 A 
HETATM    4  C   UNL     1     -44.384  57.502 -53.824  1.00  0.00     0.014 A 
HETATM    5  C   UNL     1     -43.296  58.161 -54.425  1.00  0.00    -0.013 A 
HETATM    6  C   UNL     1     -42.077  58.254 -53.722  1.00  0.00     0.050 A 
ENDROOT
BRANCH   5   7
HETATM    7  C   UNL     1     -43.430  58.758 -55.808  1.00  0.00     0.219 C 
HETATM    8  N   UNL     1     -42.602  58.062 -56.759  1.00  0.00    -0.332 N 
HETATM    9  C   UNL     1     -42.290  58.592 -57.983  1.00  0.00     0.256 C 
HETATM   10  H   UNL     1     -42.584  57.053 -56.719  1.00  0.00     0.165 HD
HETATM   11  O   UNL     1     -41.908  57.896 -58.917  1.00  0.00    -0.267 OA
HETATM   12  C   UNL     1     -42.408  60.038 -58.078  1.00  0.00     0.073 A 
HETATM   13  C   UNL     1     -42.779  60.750 -56.960  1.00  0.00     0.088 A 
HETATM   14  C   UNL     1     -42.157  60.897 -59.195  1.00  0.00    -0.023 A 
HETATM   15  S   UNL     1     -42.818  62.426 -57.231  1.00  0.00    -0.074 SA
HETATM   16  N   UNL     1     -43.058  60.159 -55.779  1.00  0.00    -0.358 N 
HETATM   17  C   UNL     1     -42.336  62.226 -58.852  1.00  0.00     0.018 A 
HETATM   18  C   UNL     1     -42.148  63.381 -59.773  1.00  0.00     0.281 C 
HETATM   19  N   UNL     1     -41.362  62.976 -61.016  1.00  0.00    -0.070 N 
HETATM   20  C   UNL     1     -41.849  61.641 -61.577  1.00  0.00     0.239 C 
HETATM   21  H   UNL     1     -41.570  63.687 -61.727  1.00  0.00     0.279 HD
HETATM   22  C   UNL     1     -39.876  63.023 -60.800  1.00  0.00     0.270 C 
HETATM   23  C   UNL     1     -41.703  60.491 -60.565  1.00  0.00     0.068 C 
HETATM   24  H   UNL     1     -43.486  60.698 -55.031  1.00  0.00     0.162 HD
ENDBRANCH   5   7
BRANCH   1  25
HETATM   25  O   UNL     1     -40.807  57.743 -51.678  1.00  0.00    -0.349 OA
BRANCH  25  26
HETATM   26  C   UNL     1     -40.667  58.849 -50.788  1.00  0.00     0.171 C 
HETATM   27  C   UNL     1     -39.233  59.341 -50.869  1.00  0.00     0.034 C 
ENDBRANCH  25  26
ENDBRANCH   1  25
BRANCH   2  28
HETATM   28  O   UNL     1     -42.952  56.470 -50.613  1.00  0.00    -0.272 OA
BRANCH  28  29
HETATM   29  C   UNL     1     -43.256  55.126 -50.627  1.00  0.00     0.300 C 
HETATM   30  O   UNL     1     -44.327  54.584 -50.397  1.00  0.00    -0.259 OA
BRANCH  29  31
HETATM   31  C   UNL     1     -42.062  54.380 -51.063  1.00  0.00     0.061 A 
HETATM   32  C   UNL     1     -40.966  54.144 -50.225  1.00  0.00     0.050 A 
HETATM   33 CL   UNL     1     -40.912  54.663 -48.578  1.00  0.00    -0.083 Cl
HETATM   34  C   UNL     1     -39.877  53.408 -50.703  1.00  0.00     0.025 A 
HETATM   35  C   UNL     1     -39.886  52.900 -52.004  1.00  0.00     0.002 A 
HETATM   36  C   UNL     1     -40.986  53.117 -52.831  1.00  0.00     0.001 A 
HETATM   37  C   UNL     1     -42.076  53.852 -52.363  1.00  0.00     0.019 A 
ENDBRANCH  29  31
ENDBRANCH  28  29
ENDBRANCH   2  28
TORSDOF 6
ENDMDL
MODEL 8
REMARK VINA RESULT:      -7.6      3.017      3.261
REMARK  6 active torsions:
REMARK  status: ('A' for Active; 'I' for Inactive)
REMARK    1  A    between atoms: C_2  and  O_3 
REMARK    2  A    between atoms: O_3  and  C_4 
REMARK    3  A    between atoms: C_5  and  O_6 
REMARK    4  A    between atoms: O_6  and  C_7 
REMARK    5  A    between atoms: C_7  and  C_8 
REMARK    6  A    between atoms: C_18  and  C_19 
ROOT
HETATM    1  C   UNL     1     -42.398  57.126 -54.696  1.00  0.00     0.103 A 
HETATM    2  C   UNL     1     -41.909  55.815 -54.726  1.00  0.00     0.112 A 
HETATM    3  C   UNL     1     -42.112  54.979 -55.824  1.00  0.00     0.041 A 
HETATM    4  C   UNL     1     -42.789  55.468 -56.936  1.00  0.00     0.014 A 
HETATM    5  C   UNL     1     -43.280  56.786 -56.950  1.00  0.00    -0.013 A 
HETATM    6  C   UNL     1     -43.083  57.605 -55.818  1.00  0.00     0.050 A 
ENDROOT
BRANCH   5   7
HETATM    7  C   UNL     1     -44.007  57.320 -58.164  1.00  0.00     0.219 C 
HETATM    8  N   UNL     1     -43.139  58.133 -58.976  1.00  0.00    -0.332 N 
HETATM    9  C   UNL     1     -43.620  58.987 -59.933  1.00  0.00     0.256 C 
HETATM   10  H   UNL     1     -42.200  57.799 -59.141  1.00  0.00     0.165 HD
HETATM   11  O   UNL     1     -42.920  59.399 -60.851  1.00  0.00    -0.267 OA
HETATM   12  C   UNL     1     -45.004  59.394 -59.757  1.00  0.00     0.073 A 
HETATM   13  C   UNL     1     -45.698  58.937 -58.661  1.00  0.00     0.088 A 
HETATM   14  C   UNL     1     -45.802  60.269 -60.562  1.00  0.00    -0.023 A 
HETATM   15  S   UNL     1     -47.281  59.549 -58.581  1.00  0.00    -0.074 SA
HETATM   16  N   UNL     1     -45.153  58.106 -57.747  1.00  0.00    -0.358 N 
HETATM   17  C   UNL     1     -47.061  60.441 -60.015  1.00  0.00     0.018 A 
HETATM   18  C   UNL     1     -48.137  61.293 -60.592  1.00  0.00     0.281 C 
HETATM   19  N   UNL     1     -47.579  62.262 -61.631  1.00  0.00    -0.070 N 
HETATM   20  C   UNL     1     -46.587  61.571 -62.565  1.00  0.00     0.239 C 
HETATM   21  H   UNL     1     -48.378  62.547 -62.209  1.00  0.00     0.279 HD
HETATM   22  C   UNL     1     -47.037  63.520 -61.014  1.00  0.00     0.270 C 
HETATM   23  C   UNL     1     -45.381  60.985 -61.810  1.00  0.00     0.068 C 
HETATM   24  H   UNL     1     -45.743  57.662 -57.049  1.00  0.00     0.162 HD
ENDBRANCH   5   7
BRANCH   1  25
HETATM   25  O   UNL     1     -42.171  57.831 -53.545  1.00  0.00    -0.349 OA
BRANCH  25  26
HETATM   26  C   UNL     1     -41.303  58.960 -53.626  1.00  0.00     0.171 C 
HETATM   27  C   UNL     1     -42.123  60.206 -53.343  1.00  0.00     0.034 C 
ENDBRANCH  25  26
ENDBRANCH   1  25
BRANCH   2  28
HETATM   28  O   UNL     1     -41.237  55.285 -53.621  1.00  0.00    -0.272 OA
BRANCH  28  29
HETATM   29  C   UNL     1     -41.910  54.209 -53.087  1.00  0.00     0.300 C 
HETATM   30  O   UNL     1     -43.074  54.143 -52.718  1.00  0.00    -0.259 OA
BRANCH  29  31
HETATM   31  C   UNL     1     -41.007  53.044 -53.089  1.00  0.00     0.061 A 
HETATM   32  C   UNL     1     -40.133  52.758 -52.033  1.00  0.00     0.050 A 
HETATM   33 CL   UNL     1     -40.048  53.714 -50.596  1.00  0.00    -0.083 Cl
HETATM   34  C   UNL     1     -39.321  51.621 -52.097  1.00  0.00     0.025 A 
HETATM   35  C   UNL     1     -39.390  50.767 -53.200  1.00  0.00     0.002 A 
HETATM   36  C   UNL     1     -40.275  51.040 -54.241  1.00  0.00     0.001 A 
HETATM   37  C   UNL     1     -41.088  52.173 -54.186  1.00  0.00     0.019 A 
ENDBRANCH  29  31
ENDBRANCH  28  29
ENDBRANCH   2  28
TORSDOF 6
ENDMDL
MODEL 9
REMARK VINA RESULT:      -7.6      2.882      3.209
REMARK  6 active torsions:
REMARK  status: ('A' for Active; 'I' for Inactive)
REMARK    1  A    between atoms: C_2  and  O_3 
REMARK    2  A    between atoms: O_3  and  C_4 
REMARK    3  A    between atoms: C_5  and  O_6 
REMARK    4  A    between atoms: O_6  and  C_7 
REMARK    5  A    between atoms: C_7  and  C_8 
REMARK    6  A    between atoms: C_18  and  C_19 
ROOT
HETATM    1  C   UNL     1     -43.511  57.306 -53.296  1.00  0.00     0.103 A 
HETATM    2  C   UNL     1     -42.653  56.309 -53.775  1.00  0.00     0.112 A 
HETATM    3  C   UNL     1     -42.637  55.934 -55.118  1.00  0.00     0.041 A 
HETATM    4  C   UNL     1     -43.469  56.591 -56.018  1.00  0.00     0.014 A 
HETATM    5  C   UNL     1     -44.333  57.610 -55.579  1.00  0.00    -0.013 A 
HETATM    6  C   UNL     1     -44.348  57.955 -54.211  1.00  0.00     0.050 A 
ENDROOT
BRANCH   5   7
HETATM    7  C   UNL     1     -45.231  58.330 -56.560  1.00  0.00     0.219 C 
HETATM    8  N   UNL     1     -45.686  57.442 -57.598  1.00  0.00    -0.332 N 
HETATM    9  C   UNL     1     -46.229  57.904 -58.768  1.00  0.00     0.256 C 
HETATM   10  H   UNL     1     -45.988  56.517 -57.328  1.00  0.00     0.165 HD
HETATM   11  O   UNL     1     -46.932  57.199 -59.483  1.00  0.00    -0.267 OA
HETATM   12  C   UNL     1     -45.880  59.271 -59.115  1.00  0.00     0.073 A 
HETATM   13  C   UNL     1     -45.029  59.970 -58.289  1.00  0.00     0.088 A 
HETATM   14  C   UNL     1     -46.267  60.046 -60.254  1.00  0.00    -0.023 A 
HETATM   15  S   UNL     1     -44.685  61.530 -58.867  1.00  0.00    -0.074 SA
HETATM   16  N   UNL     1     -44.518  59.444 -57.155  1.00  0.00    -0.358 N 
HETATM   17  C   UNL     1     -45.669  61.294 -60.236  1.00  0.00     0.018 A 
HETATM   18  C   UNL     1     -45.849  62.345 -61.275  1.00  0.00     0.281 C 
HETATM   19  N   UNL     1     -46.446  61.765 -62.553  1.00  0.00    -0.070 N 
HETATM   20  C   UNL     1     -47.596  60.806 -62.249  1.00  0.00     0.239 C 
HETATM   21  H   UNL     1     -46.852  62.558 -63.062  1.00  0.00     0.279 HD
HETATM   22  C   UNL     1     -45.404  61.175 -63.461  1.00  0.00     0.270 C 
HETATM   23  C   UNL     1     -47.152  59.613 -61.384  1.00  0.00     0.068 C 
HETATM   24  H   UNL     1     -44.033  60.043 -56.492  1.00  0.00     0.162 HD
ENDBRANCH   5   7
BRANCH   1  25
HETATM   25  O   UNL     1     -43.463  57.552 -51.951  1.00  0.00    -0.349 OA
BRANCH  25  26
HETATM   26  C   UNL     1     -44.651  57.318 -51.197  1.00  0.00     0.171 C 
HETATM   27  C   UNL     1     -45.220  58.664 -50.786  1.00  0.00     0.034 C 
ENDBRANCH  25  26
ENDBRANCH   1  25
BRANCH   2  28
HETATM   28  O   UNL     1     -41.813  55.618 -52.897  1.00  0.00    -0.272 OA
BRANCH  28  29
HETATM   29  C   UNL     1     -42.332  54.387 -52.562  1.00  0.00     0.300 C 
HETATM   30  O   UNL     1     -43.467  54.110 -52.202  1.00  0.00    -0.259 OA
BRANCH  29  31
HETATM   31  C   UNL     1     -41.293  53.365 -52.782  1.00  0.00     0.061 A 
HETATM   32  C   UNL     1     -40.404  52.956 -51.781  1.00  0.00     0.050 A 
HETATM   33 CL   UNL     1     -40.455  53.574 -50.168  1.00  0.00    -0.083 Cl
HETATM   34  C   UNL     1     -39.459  51.964 -52.060  1.00  0.00     0.025 A 
HETATM   35  C   UNL     1     -39.408  51.373 -53.324  1.00  0.00     0.002 A 
HETATM   36  C   UNL     1     -40.308  51.765 -54.314  1.00  0.00     0.001 A 
HETATM   37  C   UNL     1     -41.253  52.755 -54.046  1.00  0.00     0.019 A 
ENDBRANCH  29  31
ENDBRANCH  28  29
ENDBRANCH   2  28
TORSDOF 6
ENDMDL
MODEL 10
REMARK VINA RESULT:      -7.5      4.016     10.017
REMARK  6 active torsions:
REMARK  status: ('A' for Active; 'I' for Inactive)
REMARK    1  A    between atoms: C_2  and  O_3 
REMARK    2  A    between atoms: O_3  and  C_4 
REMARK    3  A    between atoms: C_5  and  O_6 
REMARK    4  A    between atoms: O_6  and  C_7 
REMARK    5  A    between atoms: C_7  and  C_8 
REMARK    6  A    between atoms: C_18  and  C_19 
ROOT
HETATM    1  C   UNL     1     -43.502  56.736 -59.694  1.00  0.00     0.103 A 
HETATM    2  C   UNL     1     -42.829  57.963 -59.659  1.00  0.00     0.112 A 
HETATM    3  C   UNL     1     -42.230  58.441 -58.494  1.00  0.00     0.041 A 
HETATM    4  C   UNL     1     -42.269  57.663 -57.341  1.00  0.00     0.014 A 
HETATM    5  C   UNL     1     -42.920  56.417 -57.342  1.00  0.00    -0.013 A 
HETATM    6  C   UNL     1     -43.538  55.966 -58.527  1.00  0.00     0.050 A 
ENDROOT
BRANCH   5   7
HETATM    7  C   UNL     1     -42.953  55.568 -56.090  1.00  0.00     0.219 C 
HETATM    8  N   UNL     1     -43.379  56.338 -54.950  1.00  0.00    -0.332 N 
HETATM    9  C   UNL     1     -43.185  55.908 -53.664  1.00  0.00     0.256 C 
HETATM   10  H   UNL     1     -44.160  56.967 -55.072  1.00  0.00     0.165 HD
HETATM   11  O   UNL     1     -43.837  56.348 -52.724  1.00  0.00    -0.267 OA
HETATM   12  C   UNL     1     -42.127  54.926 -53.494  1.00  0.00     0.073 A 
HETATM   13  C   UNL     1     -41.398  54.537 -54.594  1.00  0.00     0.088 A 
HETATM   14  C   UNL     1     -41.667  54.285 -52.300  1.00  0.00    -0.023 A 
HETATM   15  S   UNL     1     -40.170  53.426 -54.212  1.00  0.00    -0.074 SA
HETATM   16  N   UNL     1     -41.637  55.016 -55.834  1.00  0.00    -0.358 N 
HETATM   17  C   UNL     1     -40.594  53.451 -52.563  1.00  0.00     0.018 A 
HETATM   18  C   UNL     1     -39.871  52.639 -51.545  1.00  0.00     0.281 C 
HETATM   19  N   UNL     1     -40.181  53.120 -50.131  1.00  0.00    -0.070 N 
HETATM   20  C   UNL     1     -41.672  53.397 -49.947  1.00  0.00     0.239 C 
HETATM   21  H   UNL     1     -39.949  52.338 -49.508  1.00  0.00     0.279 HD
HETATM   22  C   UNL     1     -39.307  54.266 -49.706  1.00  0.00     0.270 C 
HETATM   23  C   UNL     1     -42.190  54.481 -50.908  1.00  0.00     0.068 C 
HETATM   24  H   UNL     1     -41.192  54.583 -56.639  1.00  0.00     0.162 HD
ENDBRANCH   5   7
BRANCH   1  25
HETATM   25  O   UNL     1     -44.084  56.399 -60.886  1.00  0.00    -0.349 OA
BRANCH  25  26
HETATM   26  C   UNL     1     -45.113  55.412 -60.859  1.00  0.00     0.171 C 
HETATM   27  C   UNL     1     -46.449  56.126 -60.759  1.00  0.00     0.034 C 
ENDBRANCH  25  26
ENDBRANCH   1  25
BRANCH   2  28
HETATM   28  O   UNL     1     -42.782  58.777 -60.795  1.00  0.00    -0.272 OA
BRANCH  28  29
HETATM   29  C   UNL     1     -43.139  60.075 -60.503  1.00  0.00     0.300 C 
HETATM   30  O   UNL     1     -42.430  61.069 -60.452  1.00  0.00    -0.259 OA
BRANCH  29  31
HETATM   31  C   UNL     1     -44.602  60.129 -60.325  1.00  0.00     0.061 A 
HETATM   32  C   UNL     1     -45.208  60.561 -59.139  1.00  0.00     0.050 A 
HETATM   33 CL   UNL     1     -44.309  61.118 -57.772  1.00  0.00    -0.083 Cl
HETATM   34  C   UNL     1     -46.603  60.606 -59.053  1.00  0.00     0.025 A 
HETATM   35  C   UNL     1     -47.389  60.235 -60.146  1.00  0.00     0.002 A 
HETATM   36  C   UNL     1     -46.785  59.825 -61.334  1.00  0.00     0.001 A 
HETATM   37  C   UNL     1     -45.394  59.775 -61.428  1.00  0.00     0.019 A 
ENDBRANCH  29  31
ENDBRANCH  28  29
ENDBRANCH   2  28
TORSDOF 6
ENDMDL
