MODEL 1
REMARK VINA RESULT:      -9.3      0.000      0.000
REMARK  5 active torsions:
REMARK  status: ('A' for Active; 'I' for Inactive)
REMARK       I    between atoms: C_2  and  N_3 
REMARK    1  A    between atoms: N_3  and  C_4 
REMARK    2  A    between atoms: N_7  and  C_8 
REMARK    3  A    between atoms: C_8  and  C_9 
REMARK       I    between atoms: C_9  and  N_10 
REMARK    4  A    between atoms: C_13  and  O_14 
REMARK    5  A    between atoms: C_13  and  C_15 
ROOT
HETATM    1  C   UNL     1     -43.477  57.134 -53.629  1.00  0.00     0.238 C 
HETATM    2  N   UNL     1     -42.754  56.393 -52.683  1.00  0.00    -0.350 N 
HETATM    3  C   UNL     1     -41.299  56.263 -52.732  1.00  0.00     0.129 C 
HETATM    4  C   UNL     1     -40.719  55.788 -51.408  1.00  0.00     0.063 C 
HETATM    5  C   UNL     1     -41.328  54.440 -50.994  1.00  0.00     0.088 C 
HETATM    6  C   UNL     1     -42.842  54.666 -50.840  1.00  0.00     0.063 C 
HETATM    7  C   UNL     1     -43.503  55.306 -52.057  1.00  0.00     0.129 C 
HETATM    8  O   UNL     1     -44.710  57.188 -53.597  1.00  0.00    -0.272 OA
ENDROOT
BRANCH   1   9
HETATM    9  C   UNL     1     -42.728  57.822 -54.761  1.00  0.00     0.231 C 
BRANCH   9  10
HETATM   10  N   UNL     1     -42.996  57.186 -56.047  1.00  0.00    -0.347 N 
HETATM   11  C   UNL     1     -43.415  57.820 -57.204  1.00  0.00     0.047 A 
HETATM   12  C   UNL     1     -43.539  56.834 -58.196  1.00  0.00     0.019 A 
HETATM   13  C   UNL     1     -43.699  59.167 -57.470  1.00  0.00     0.031 A 
HETATM   14  C   UNL     1     -43.978  57.192 -59.499  1.00  0.00     0.047 A 
HETATM   15  C   UNL     1     -43.195  55.592 -57.584  1.00  0.00     0.033 A 
HETATM   16  C   UNL     1     -44.238  58.542 -59.759  1.00  0.00     0.030 A 
HETATM   17  C   UNL     1     -44.104  59.508 -58.761  1.00  0.00     0.005 A 
HETATM   18  C   UNL     1     -42.891  55.835 -56.268  1.00  0.00     0.092 A 
BRANCH  14  19
HETATM   19  N   UNL     1     -44.078  56.164 -60.458  1.00  0.00    -0.327 N 
HETATM   20  C   UNL     1     -45.130  55.551 -61.068  1.00  0.00     0.218 C 
HETATM   21  C   UNL     1     -46.540  55.775 -60.606  1.00  0.00     0.117 C 
HETATM   22  O   UNL     1     -44.896  54.759 -61.984  1.00  0.00    -0.274 OA
HETATM   23  H   UNL     1     -43.200  55.766 -60.765  1.00  0.00     0.169 HD
ENDBRANCH  14  19
ENDBRANCH   9  10
ENDBRANCH   1   9
BRANCH   5  24
HETATM   24  O   UNL     1     -40.833  54.134 -49.679  1.00  0.00    -0.385 OA
HETATM   25  H   UNL     1     -40.590  53.191 -49.669  1.00  0.00     0.211 HD
ENDBRANCH   5  24
BRANCH   5  26
HETATM   26  C   UNL     1     -40.865  53.300 -51.907  1.00  0.00    -0.024 A 
HETATM   27  C   UNL     1     -40.020  52.302 -51.376  1.00  0.00     0.012 A 
HETATM   28  C   UNL     1     -39.518  51.267 -52.170  1.00  0.00     0.024 A 
HETATM   29  C   UNL     1     -39.864  51.204 -53.513  1.00  0.00     0.034 A 
HETATM   30 CL   UNL     1     -39.236  49.946 -54.502  1.00  0.00    -0.084 Cl
HETATM   31  C   UNL     1     -40.724  52.152 -54.057  1.00  0.00     0.024 A 
HETATM   32  C   UNL     1     -41.232  53.185 -53.257  1.00  0.00     0.012 A 
ENDBRANCH   5  26
TORSDOF 5
ENDMDL
MODEL 2
REMARK VINA RESULT:      -8.9      3.041      8.252
REMARK  5 active torsions:
REMARK  status: ('A' for Active; 'I' for Inactive)
REMARK       I    between atoms: C_2  and  N_3 
REMARK    1  A    between atoms: N_3  and  C_4 
REMARK    2  A    between atoms: N_7  and  C_8 
REMARK    3  A    between atoms: C_8  and  C_9 
REMARK       I    between atoms: C_9  and  N_10 
REMARK    4  A    between atoms: C_13  and  O_14 
REMARK    5  A    between atoms: C_13  and  C_15 
ROOT
HETATM    1  C   UNL     1     -42.588  57.282 -53.660  1.00  0.00     0.238 C 
HETATM    2  N   UNL     1     -43.324  57.986 -54.624  1.00  0.00    -0.350 N 
HETATM    3  C   UNL     1     -44.681  57.604 -55.010  1.00  0.00     0.129 C 
HETATM    4  C   UNL     1     -45.412  58.726 -55.731  1.00  0.00     0.063 C 
HETATM    5  C   UNL     1     -44.641  59.168 -56.985  1.00  0.00     0.088 C 
HETATM    6  C   UNL     1     -43.269  59.672 -56.506  1.00  0.00     0.063 C 
HETATM    7  C   UNL     1     -42.516  58.684 -55.621  1.00  0.00     0.129 C 
HETATM    8  O   UNL     1     -41.425  57.593 -53.387  1.00  0.00    -0.272 OA
ENDROOT
BRANCH   1   9
HETATM    9  C   UNL     1     -43.212  56.064 -52.995  1.00  0.00     0.231 C 
BRANCH   9  10
HETATM   10  N   UNL     1     -42.439  54.854 -53.256  1.00  0.00    -0.347 N 
HETATM   11  C   UNL     1     -41.505  54.279 -52.412  1.00  0.00     0.047 A 
HETATM   12  C   UNL     1     -41.016  53.131 -53.055  1.00  0.00     0.019 A 
HETATM   13  C   UNL     1     -41.042  54.664 -51.146  1.00  0.00     0.031 A 
HETATM   14  C   UNL     1     -40.015  52.340 -52.427  1.00  0.00     0.047 A 
HETATM   15  C   UNL     1     -41.680  53.053 -54.315  1.00  0.00     0.033 A 
HETATM   16  C   UNL     1     -39.577  52.721 -51.154  1.00  0.00     0.030 A 
HETATM   17  C   UNL     1     -40.080  53.863 -50.529  1.00  0.00     0.005 A 
HETATM   18  C   UNL     1     -42.524  54.130 -54.419  1.00  0.00     0.092 A 
BRANCH  14  19
HETATM   19  N   UNL     1     -39.565  51.195 -53.113  1.00  0.00    -0.327 N 
HETATM   20  C   UNL     1     -39.565  49.865 -52.818  1.00  0.00     0.218 C 
HETATM   21  C   UNL     1     -39.919  49.369 -51.447  1.00  0.00     0.117 C 
HETATM   22  O   UNL     1     -39.215  49.071 -53.695  1.00  0.00    -0.274 OA
HETATM   23  H   UNL     1     -39.129  51.366 -54.011  1.00  0.00     0.169 HD
ENDBRANCH  14  19
ENDBRANCH   9  10
ENDBRANCH   1   9
BRANCH   5  24
HETATM   24  O   UNL     1     -45.323  60.313 -57.524  1.00  0.00    -0.385 OA
HETATM   25  H   UNL     1     -46.130  59.992 -57.965  1.00  0.00     0.211 HD
ENDBRANCH   5  24
BRANCH   5  26
HETATM   26  C   UNL     1     -44.667  58.093 -58.077  1.00  0.00    -0.024 A 
HETATM   27  C   UNL     1     -45.909  57.719 -58.635  1.00  0.00     0.012 A 
HETATM   28  C   UNL     1     -46.006  56.708 -59.594  1.00  0.00     0.024 A 
HETATM   29  C   UNL     1     -44.857  56.059 -60.025  1.00  0.00     0.034 A 
HETATM   30 CL   UNL     1     -44.970  54.801 -61.192  1.00  0.00    -0.084 Cl
HETATM   31  C   UNL     1     -43.615  56.430 -59.522  1.00  0.00     0.024 A 
HETATM   32  C   UNL     1     -43.520  57.450 -58.564  1.00  0.00     0.012 A 
ENDBRANCH   5  26
TORSDOF 5
ENDMDL
MODEL 3
REMARK VINA RESULT:      -8.9      1.506      2.408
REMARK  5 active torsions:
REMARK  status: ('A' for Active; 'I' for Inactive)
REMARK       I    between atoms: C_2  and  N_3 
REMARK    1  A    between atoms: N_3  and  C_4 
REMARK    2  A    between atoms: N_7  and  C_8 
REMARK    3  A    between atoms: C_8  and  C_9 
REMARK       I    between atoms: C_9  and  N_10 
REMARK    4  A    between atoms: C_13  and  O_14 
REMARK    5  A    between atoms: C_13  and  C_15 
ROOT
HETATM    1  C   UNL     1     -42.901  58.034 -52.293  1.00  0.00     0.238 C 
HETATM    2  N   UNL     1     -42.448  57.001 -51.461  1.00  0.00    -0.350 N 
HETATM    3  C   UNL     1     -41.032  56.663 -51.328  1.00  0.00     0.129 C 
HETATM    4  C   UNL     1     -40.754  55.825 -50.090  1.00  0.00     0.063 C 
HETATM    5  C   UNL     1     -41.578  54.528 -50.108  1.00  0.00     0.088 C 
HETATM    6  C   UNL     1     -43.058  54.944 -50.125  1.00  0.00     0.063 C 
HETATM    7  C   UNL     1     -43.416  55.930 -51.233  1.00  0.00     0.129 C 
HETATM    8  O   UNL     1     -44.107  58.267 -52.429  1.00  0.00    -0.272 OA
ENDROOT
BRANCH   1   9
HETATM    9  C   UNL     1     -41.890  58.831 -53.103  1.00  0.00     0.231 C 
BRANCH   9  10
HETATM   10  N   UNL     1     -42.167  58.755 -54.535  1.00  0.00    -0.347 N 
HETATM   11  C   UNL     1     -42.375  57.601 -55.270  1.00  0.00     0.047 A 
HETATM   12  C   UNL     1     -42.612  57.991 -56.597  1.00  0.00     0.019 A 
HETATM   13  C   UNL     1     -42.375  56.251 -54.891  1.00  0.00     0.031 A 
HETATM   14  C   UNL     1     -42.841  57.006 -57.595  1.00  0.00     0.047 A 
HETATM   15  C   UNL     1     -42.521  59.414 -56.628  1.00  0.00     0.033 A 
HETATM   16  C   UNL     1     -42.861  55.663 -57.202  1.00  0.00     0.030 A 
HETATM   17  C   UNL     1     -42.628  55.295 -55.876  1.00  0.00     0.005 A 
HETATM   18  C   UNL     1     -42.225  59.850 -55.361  1.00  0.00     0.092 A 
BRANCH  14  19
HETATM   19  N   UNL     1     -43.080  57.453 -58.909  1.00  0.00    -0.327 N 
HETATM   20  C   UNL     1     -44.205  57.816 -59.585  1.00  0.00     0.218 C 
HETATM   21  C   UNL     1     -45.572  57.580 -59.013  1.00  0.00     0.117 C 
HETATM   22  O   UNL     1     -44.080  58.302 -60.713  1.00  0.00    -0.274 OA
HETATM   23  H   UNL     1     -42.265  57.510 -59.507  1.00  0.00     0.169 HD
ENDBRANCH  14  19
ENDBRANCH   9  10
ENDBRANCH   1   9
BRANCH   5  24
HETATM   24  O   UNL     1     -41.362  53.868 -48.849  1.00  0.00    -0.385 OA
HETATM   25  H   UNL     1     -40.427  53.993 -48.609  1.00  0.00     0.211 HD
ENDBRANCH   5  24
BRANCH   5  26
HETATM   26  C   UNL     1     -41.093  53.561 -51.193  1.00  0.00    -0.024 A 
HETATM   27  C   UNL     1     -40.171  52.551 -50.843  1.00  0.00     0.012 A 
HETATM   28  C   UNL     1     -39.650  51.673 -51.796  1.00  0.00     0.024 A 
HETATM   29  C   UNL     1     -40.052  51.780 -53.121  1.00  0.00     0.034 A 
HETATM   30 CL   UNL     1     -39.401  50.716 -54.304  1.00  0.00    -0.084 Cl
HETATM   31  C   UNL     1     -40.987  52.742 -53.490  1.00  0.00     0.024 A 
HETATM   32  C   UNL     1     -41.514  53.617 -52.530  1.00  0.00     0.012 A 
ENDBRANCH   5  26
TORSDOF 5
ENDMDL
MODEL 4
REMARK VINA RESULT:      -8.8      3.498      7.222
REMARK  5 active torsions:
REMARK  status: ('A' for Active; 'I' for Inactive)
REMARK       I    between atoms: C_2  and  N_3 
REMARK    1  A    between atoms: N_3  and  C_4 
REMARK    2  A    between atoms: N_7  and  C_8 
REMARK    3  A    between atoms: C_8  and  C_9 
REMARK       I    between atoms: C_9  and  N_10 
REMARK    4  A    between atoms: C_13  and  O_14 
REMARK    5  A    between atoms: C_13  and  C_15 
ROOT
HETATM    1  C   UNL     1     -41.844  57.480 -51.486  1.00  0.00     0.238 C 
HETATM    2  N   UNL     1     -42.382  58.306 -52.482  1.00  0.00    -0.350 N 
HETATM    3  C   UNL     1     -43.644  58.006 -53.156  1.00  0.00     0.129 C 
HETATM    4  C   UNL     1     -44.221  59.220 -53.866  1.00  0.00     0.063 C 
HETATM    5  C   UNL     1     -43.226  59.778 -54.896  1.00  0.00     0.088 C 
HETATM    6  C   UNL     1     -41.966  60.189 -54.116  1.00  0.00     0.063 C 
HETATM    7  C   UNL     1     -41.397  59.089 -53.226  1.00  0.00     0.129 C 
HETATM    8  O   UNL     1     -40.750  57.728 -50.968  1.00  0.00    -0.272 OA
ENDROOT
BRANCH   1   9
HETATM    9  C   UNL     1     -42.588  56.212 -51.092  1.00  0.00     0.231 C 
BRANCH   9  10
HETATM   10  N   UNL     1     -41.850  55.013 -51.478  1.00  0.00    -0.347 N 
HETATM   11  C   UNL     1     -41.379  54.711 -52.743  1.00  0.00     0.047 A 
HETATM   12  C   UNL     1     -40.725  53.472 -52.658  1.00  0.00     0.019 A 
HETATM   13  C   UNL     1     -41.471  55.410 -53.956  1.00  0.00     0.031 A 
HETATM   14  C   UNL     1     -40.153  52.892 -53.823  1.00  0.00     0.047 A 
HETATM   15  C   UNL     1     -40.838  53.042 -51.303  1.00  0.00     0.033 A 
HETATM   16  C   UNL     1     -40.230  53.609 -55.022  1.00  0.00     0.030 A 
HETATM   17  C   UNL     1     -40.881  54.842 -55.085  1.00  0.00     0.005 A 
HETATM   18  C   UNL     1     -41.549  53.991 -50.612  1.00  0.00     0.092 A 
BRANCH  14  19
HETATM   19  N   UNL     1     -39.502  51.651 -53.679  1.00  0.00    -0.327 N 
HETATM   20  C   UNL     1     -39.831  50.375 -54.024  1.00  0.00     0.218 C 
HETATM   21  C   UNL     1     -41.211  50.025 -54.501  1.00  0.00     0.117 C 
HETATM   22  O   UNL     1     -38.980  49.492 -53.886  1.00  0.00    -0.274 OA
HETATM   23  H   UNL     1     -38.606  51.678 -53.209  1.00  0.00     0.169 HD
ENDBRANCH  14  19
ENDBRANCH   9  10
ENDBRANCH   1   9
BRANCH   5  24
HETATM   24  O   UNL     1     -43.789  60.993 -55.418  1.00  0.00    -0.385 OA
HETATM   25  H   UNL     1     -43.582  61.706 -54.788  1.00  0.00     0.211 HD
ENDBRANCH   5  24
BRANCH   5  26
HETATM   26  C   UNL     1     -43.052  58.833 -56.089  1.00  0.00    -0.024 A 
HETATM   27  C   UNL     1     -42.134  59.180 -57.104  1.00  0.00     0.012 A 
HETATM   28  C   UNL     1     -41.969  58.389 -58.244  1.00  0.00     0.024 A 
HETATM   29  C   UNL     1     -42.712  57.225 -58.386  1.00  0.00     0.034 A 
HETATM   30 CL   UNL     1     -42.529  56.256 -59.794  1.00  0.00    -0.084 Cl
HETATM   31  C   UNL     1     -43.598  56.837 -57.385  1.00  0.00     0.024 A 
HETATM   32  C   UNL     1     -43.756  57.629 -56.239  1.00  0.00     0.012 A 
ENDBRANCH   5  26
TORSDOF 5
ENDMDL
MODEL 5
REMARK VINA RESULT:      -8.4      3.275      9.091
REMARK  5 active torsions:
REMARK  status: ('A' for Active; 'I' for Inactive)
REMARK       I    between atoms: C_2  and  N_3 
REMARK    1  A    between atoms: N_3  and  C_4 
REMARK    2  A    between atoms: N_7  and  C_8 
REMARK    3  A    between atoms: C_8  and  C_9 
REMARK       I    between atoms: C_9  and  N_10 
REMARK    4  A    between atoms: C_13  and  O_14 
REMARK    5  A    between atoms: C_13  and  C_15 
ROOT
HETATM    1  C   UNL     1     -43.865  57.548 -55.554  1.00  0.00     0.238 C 
HETATM    2  N   UNL     1     -43.877  57.239 -56.921  1.00  0.00    -0.350 N 
HETATM    3  C   UNL     1     -42.652  57.119 -57.710  1.00  0.00     0.129 C 
HETATM    4  C   UNL     1     -42.881  56.383 -59.020  1.00  0.00     0.063 C 
HETATM    5  C   UNL     1     -43.953  57.087 -59.866  1.00  0.00     0.088 C 
HETATM    6  C   UNL     1     -45.249  57.077 -59.037  1.00  0.00     0.063 C 
HETATM    7  C   UNL     1     -45.092  57.638 -57.628  1.00  0.00     0.129 C 
HETATM    8  O   UNL     1     -44.915  57.694 -54.919  1.00  0.00    -0.272 OA
ENDROOT
BRANCH   1   9
HETATM    9  C   UNL     1     -42.533  57.782 -54.857  1.00  0.00     0.231 C 
BRANCH   9  10
HETATM   10  N   UNL     1     -42.299  56.803 -53.799  1.00  0.00    -0.347 N 
HETATM   11  C   UNL     1     -41.605  55.613 -53.921  1.00  0.00     0.047 A 
HETATM   12  C   UNL     1     -41.619  54.993 -52.662  1.00  0.00     0.019 A 
HETATM   13  C   UNL     1     -40.969  55.022 -55.022  1.00  0.00     0.031 A 
HETATM   14  C   UNL     1     -40.993  53.729 -52.487  1.00  0.00     0.047 A 
HETATM   15  C   UNL     1     -42.359  55.849 -51.792  1.00  0.00     0.033 A 
HETATM   16  C   UNL     1     -40.342  53.159 -53.587  1.00  0.00     0.030 A 
HETATM   17  C   UNL     1     -40.335  53.794 -54.831  1.00  0.00     0.005 A 
HETATM   18  C   UNL     1     -42.781  56.933 -52.520  1.00  0.00     0.092 A 
BRANCH  14  19
HETATM   19  N   UNL     1     -41.030  53.155 -51.201  1.00  0.00    -0.327 N 
HETATM   20  C   UNL     1     -40.409  53.450 -50.026  1.00  0.00     0.218 C 
HETATM   21  C   UNL     1     -39.290  54.448 -49.961  1.00  0.00     0.117 C 
HETATM   22  O   UNL     1     -40.752  52.835 -49.012  1.00  0.00    -0.274 OA
HETATM   23  H   UNL     1     -41.622  52.340 -51.103  1.00  0.00     0.169 HD
ENDBRANCH  14  19
ENDBRANCH   9  10
ENDBRANCH   1   9
BRANCH   5  24
HETATM   24  O   UNL     1     -44.205  56.258 -61.013  1.00  0.00    -0.385 OA
HETATM   25  H   UNL     1     -44.087  55.332 -60.737  1.00  0.00     0.211 HD
ENDBRANCH   5  24
BRANCH   5  26
HETATM   26  C   UNL     1     -43.460  58.434 -60.404  1.00  0.00    -0.024 A 
HETATM   27  C   UNL     1     -44.406  59.447 -60.676  1.00  0.00     0.012 A 
HETATM   28  C   UNL     1     -44.027  60.677 -61.219  1.00  0.00     0.024 A 
HETATM   29  C   UNL     1     -42.687  60.923 -61.490  1.00  0.00     0.034 A 
HETATM   30 CL   UNL     1     -42.214  62.427 -62.176  1.00  0.00    -0.084 Cl
HETATM   31  C   UNL     1     -41.727  59.959 -61.199  1.00  0.00     0.024 A 
HETATM   32  C   UNL     1     -42.110  58.729 -60.648  1.00  0.00     0.012 A 
ENDBRANCH   5  26
TORSDOF 5
ENDMDL
MODEL 6
REMARK VINA RESULT:      -8.3     15.088     17.038
REMARK  5 active torsions:
REMARK  status: ('A' for Active; 'I' for Inactive)
REMARK       I    between atoms: C_2  and  N_3 
REMARK    1  A    between atoms: N_3  and  C_4 
REMARK    2  A    between atoms: N_7  and  C_8 
REMARK    3  A    between atoms: C_8  and  C_9 
REMARK       I    between atoms: C_9  and  N_10 
REMARK    4  A    between atoms: C_13  and  O_14 
REMARK    5  A    between atoms: C_13  and  C_15 
ROOT
HETATM    1  C   UNL     1     -37.445  40.622 -52.026  1.00  0.00     0.238 C 
HETATM    2  N   UNL     1     -36.167  40.405 -51.491  1.00  0.00    -0.350 N 
HETATM    3  C   UNL     1     -35.039  41.293 -51.767  1.00  0.00     0.129 C 
HETATM    4  C   UNL     1     -33.904  41.108 -50.772  1.00  0.00     0.063 C 
HETATM    5  C   UNL     1     -33.408  39.653 -50.770  1.00  0.00     0.088 C 
HETATM    6  C   UNL     1     -34.602  38.777 -50.357  1.00  0.00     0.063 C 
HETATM    7  C   UNL     1     -35.862  39.010 -51.185  1.00  0.00     0.129 C 
HETATM    8  O   UNL     1     -38.370  39.830 -51.820  1.00  0.00    -0.272 OA
ENDROOT
BRANCH   1   9
HETATM    9  C   UNL     1     -37.674  41.817 -52.939  1.00  0.00     0.231 C 
BRANCH   9  10
HETATM   10  N   UNL     1     -37.692  41.425 -54.345  1.00  0.00    -0.347 N 
HETATM   11  C   UNL     1     -36.610  41.416 -55.209  1.00  0.00     0.047 A 
HETATM   12  C   UNL     1     -37.076  40.964 -56.453  1.00  0.00     0.019 A 
HETATM   13  C   UNL     1     -35.267  41.767 -55.012  1.00  0.00     0.031 A 
HETATM   14  C   UNL     1     -36.181  40.871 -57.553  1.00  0.00     0.047 A 
HETATM   15  C   UNL     1     -38.474  40.720 -56.303  1.00  0.00     0.033 A 
HETATM   16  C   UNL     1     -34.838  41.202 -57.340  1.00  0.00     0.030 A 
HETATM   17  C   UNL     1     -34.394  41.645 -56.093  1.00  0.00     0.005 A 
HETATM   18  C   UNL     1     -38.825  41.032 -55.014  1.00  0.00     0.092 A 
BRANCH  14  19
HETATM   19  N   UNL     1     -36.700  40.405 -58.777  1.00  0.00    -0.327 N 
HETATM   20  C   UNL     1     -37.133  41.026 -59.909  1.00  0.00     0.218 C 
HETATM   21  C   UNL     1     -37.331  42.513 -59.957  1.00  0.00     0.117 C 
HETATM   22  O   UNL     1     -37.413  40.331 -60.889  1.00  0.00    -0.274 OA
HETATM   23  H   UNL     1     -36.799  39.400 -58.856  1.00  0.00     0.169 HD
ENDBRANCH  14  19
ENDBRANCH   9  10
ENDBRANCH   1   9
BRANCH   5  24
HETATM   24  O   UNL     1     -32.439  39.535 -49.714  1.00  0.00    -0.385 OA
HETATM   25  H   UNL     1     -31.893  40.341 -49.725  1.00  0.00     0.211 HD
ENDBRANCH   5  24
BRANCH   5  26
HETATM   26  C   UNL     1     -32.678  39.300 -52.070  1.00  0.00    -0.024 A 
HETATM   27  C   UNL     1     -32.273  37.964 -52.282  1.00  0.00     0.012 A 
HETATM   28  C   UNL     1     -31.556  37.587 -53.420  1.00  0.00     0.024 A 
HETATM   29  C   UNL     1     -31.240  38.541 -54.379  1.00  0.00     0.034 A 
HETATM   30 CL   UNL     1     -30.342  38.090 -55.774  1.00  0.00    -0.084 Cl
HETATM   31  C   UNL     1     -31.657  39.858 -54.216  1.00  0.00     0.024 A 
HETATM   32  C   UNL     1     -32.382  40.231 -53.076  1.00  0.00     0.012 A 
ENDBRANCH   5  26
TORSDOF 5
ENDMDL
MODEL 7
REMARK VINA RESULT:      -8.2      2.827      7.753
REMARK  5 active torsions:
REMARK  status: ('A' for Active; 'I' for Inactive)
REMARK       I    between atoms: C_2  and  N_3 
REMARK    1  A    between atoms: N_3  and  C_4 
REMARK    2  A    between atoms: N_7  and  C_8 
REMARK    3  A    between atoms: C_8  and  C_9 
REMARK       I    between atoms: C_9  and  N_10 
REMARK    4  A    between atoms: C_13  and  O_14 
REMARK    5  A    between atoms: C_13  and  C_15 
ROOT
HETATM    1  C   UNL     1     -42.172  59.244 -54.144  1.00  0.00     0.238 C 
HETATM    2  N   UNL     1     -42.809  59.511 -55.364  1.00  0.00    -0.350 N 
HETATM    3  C   UNL     1     -44.196  59.130 -55.627  1.00  0.00     0.129 C 
HETATM    4  C   UNL     1     -44.783  59.877 -56.814  1.00  0.00     0.063 C 
HETATM    5  C   UNL     1     -43.948  59.635 -58.082  1.00  0.00     0.088 C 
HETATM    6  C   UNL     1     -42.534  60.164 -57.790  1.00  0.00     0.063 C 
HETATM    7  C   UNL     1     -41.912  59.608 -56.513  1.00  0.00     0.129 C 
HETATM    8  O   UNL     1     -40.984  59.530 -53.963  1.00  0.00    -0.272 OA
ENDROOT
BRANCH   1   9
HETATM    9  C   UNL     1     -42.941  58.519 -53.049  1.00  0.00     0.231 C 
BRANCH   9  10
HETATM   10  N   UNL     1     -42.293  57.265 -52.677  1.00  0.00    -0.347 N 
HETATM   11  C   UNL     1     -42.324  56.081 -53.393  1.00  0.00     0.047 A 
HETATM   12  C   UNL     1     -41.566  55.142 -52.676  1.00  0.00     0.019 A 
HETATM   13  C   UNL     1     -42.951  55.747 -54.602  1.00  0.00     0.031 A 
HETATM   14  C   UNL     1     -41.435  53.814 -53.166  1.00  0.00     0.047 A 
HETATM   15  C   UNL     1     -41.097  55.804 -51.503  1.00  0.00     0.033 A 
HETATM   16  C   UNL     1     -42.047  53.499 -54.385  1.00  0.00     0.030 A 
HETATM   17  C   UNL     1     -42.793  54.448 -55.085  1.00  0.00     0.005 A 
HETATM   18  C   UNL     1     -41.576  57.090 -51.519  1.00  0.00     0.092 A 
BRANCH  14  19
HETATM   19  N   UNL     1     -40.657  52.915 -52.411  1.00  0.00    -0.327 N 
HETATM   20  C   UNL     1     -39.868  51.855 -52.739  1.00  0.00     0.218 C 
HETATM   21  C   UNL     1     -39.859  51.288 -54.129  1.00  0.00     0.117 C 
HETATM   22  O   UNL     1     -39.191  51.331 -51.850  1.00  0.00    -0.274 OA
HETATM   23  H   UNL     1     -40.684  53.049 -51.408  1.00  0.00     0.169 HD
ENDBRANCH  14  19
ENDBRANCH   9  10
ENDBRANCH   1   9
BRANCH   5  24
HETATM   24  O   UNL     1     -44.487  60.478 -59.115  1.00  0.00    -0.385 OA
HETATM   25  H   UNL     1     -43.959  61.296 -59.130  1.00  0.00     0.211 HD
ENDBRANCH   5  24
BRANCH   5  26
HETATM   26  C   UNL     1     -44.083  58.194 -58.586  1.00  0.00    -0.024 A 
HETATM   27  C   UNL     1     -45.314  57.777 -59.137  1.00  0.00     0.012 A 
HETATM   28  C   UNL     1     -45.518  56.462 -59.563  1.00  0.00     0.024 A 
HETATM   29  C   UNL     1     -44.486  55.539 -59.458  1.00  0.00     0.034 A 
HETATM   30 CL   UNL     1     -44.735  53.914 -59.962  1.00  0.00    -0.084 Cl
HETATM   31  C   UNL     1     -43.250  55.929 -58.954  1.00  0.00     0.024 A 
HETATM   32  C   UNL     1     -43.046  57.250 -58.533  1.00  0.00     0.012 A 
ENDBRANCH   5  26
TORSDOF 5
ENDMDL
MODEL 8
REMARK VINA RESULT:      -8.1      3.542      9.039
REMARK  5 active torsions:
REMARK  status: ('A' for Active; 'I' for Inactive)
REMARK       I    between atoms: C_2  and  N_3 
REMARK    1  A    between atoms: N_3  and  C_4 
REMARK    2  A    between atoms: N_7  and  C_8 
REMARK    3  A    between atoms: C_8  and  C_9 
REMARK       I    between atoms: C_9  and  N_10 
REMARK    4  A    between atoms: C_13  and  O_14 
REMARK    5  A    between atoms: C_13  and  C_15 
ROOT
HETATM    1  C   UNL     1     -43.233  56.793 -55.172  1.00  0.00     0.238 C 
HETATM    2  N   UNL     1     -43.404  57.041 -56.541  1.00  0.00    -0.350 N 
HETATM    3  C   UNL     1     -42.278  57.270 -57.445  1.00  0.00     0.129 C 
HETATM    4  C   UNL     1     -42.667  57.095 -58.904  1.00  0.00     0.063 C 
HETATM    5  C   UNL     1     -43.814  58.044 -59.284  1.00  0.00     0.088 C 
HETATM    6  C   UNL     1     -45.008  57.678 -58.386  1.00  0.00     0.063 C 
HETATM    7  C   UNL     1     -44.682  57.651 -56.896  1.00  0.00     0.129 C 
HETATM    8  O   UNL     1     -44.201  56.654 -54.418  1.00  0.00    -0.272 OA
ENDROOT
BRANCH   1   9
HETATM    9  C   UNL     1     -41.826  56.773 -54.592  1.00  0.00     0.231 C 
BRANCH   9  10
HETATM   10  N   UNL     1     -41.323  55.410 -54.446  1.00  0.00    -0.347 N 
HETATM   11  C   UNL     1     -41.038  54.764 -53.256  1.00  0.00     0.047 A 
HETATM   12  C   UNL     1     -40.590  53.474 -53.582  1.00  0.00     0.019 A 
HETATM   13  C   UNL     1     -41.130  55.194 -51.925  1.00  0.00     0.031 A 
HETATM   14  C   UNL     1     -40.200  52.578 -52.550  1.00  0.00     0.047 A 
HETATM   15  C   UNL     1     -40.604  53.383 -55.005  1.00  0.00     0.033 A 
HETATM   16  C   UNL     1     -40.317  53.010 -51.224  1.00  0.00     0.030 A 
HETATM   17  C   UNL     1     -40.770  54.295 -50.920  1.00  0.00     0.005 A 
HETATM   18  C   UNL     1     -41.032  54.587 -55.505  1.00  0.00     0.092 A 
BRANCH  14  19
HETATM   19  N   UNL     1     -39.765  51.294 -52.932  1.00  0.00    -0.327 N 
HETATM   20  C   UNL     1     -39.649  50.109 -52.271  1.00  0.00     0.218 C 
HETATM   21  C   UNL     1     -39.806  50.026 -50.781  1.00  0.00     0.117 C 
HETATM   22  O   UNL     1     -39.357  49.101 -52.921  1.00  0.00    -0.274 OA
HETATM   23  H   UNL     1     -39.450  51.206 -53.890  1.00  0.00     0.169 HD
ENDBRANCH  14  19
ENDBRANCH   9  10
ENDBRANCH   1   9
BRANCH   5  24
HETATM   24  O   UNL     1     -44.209  57.720 -60.628  1.00  0.00    -0.385 OA
HETATM   25  H   UNL     1     -43.632  56.999 -60.938  1.00  0.00     0.211 HD
ENDBRANCH   5  24
BRANCH   5  26
HETATM   26  C   UNL     1     -43.359  59.507 -59.307  1.00  0.00    -0.024 A 
HETATM   27  C   UNL     1     -42.201  59.848 -60.038  1.00  0.00     0.012 A 
HETATM   28  C   UNL     1     -41.702  61.154 -60.054  1.00  0.00     0.024 A 
HETATM   29  C   UNL     1     -42.363  62.149 -59.347  1.00  0.00     0.034 A 
HETATM   30 CL   UNL     1     -41.747  63.754 -59.345  1.00  0.00    -0.084 Cl
HETATM   31  C   UNL     1     -43.528  61.851 -58.647  1.00  0.00     0.024 A 
HETATM   32  C   UNL     1     -44.030  60.542 -58.639  1.00  0.00     0.012 A 
ENDBRANCH   5  26
TORSDOF 5
ENDMDL
MODEL 9
REMARK VINA RESULT:      -8.1      3.696      6.704
REMARK  5 active torsions:
REMARK  status: ('A' for Active; 'I' for Inactive)
REMARK       I    between atoms: C_2  and  N_3 
REMARK    1  A    between atoms: N_3  and  C_4 
REMARK    2  A    between atoms: N_7  and  C_8 
REMARK    3  A    between atoms: C_8  and  C_9 
REMARK       I    between atoms: C_9  and  N_10 
REMARK    4  A    between atoms: C_13  and  O_14 
REMARK    5  A    between atoms: C_13  and  C_15 
ROOT
HETATM    1  C   UNL     1     -43.006  57.122 -55.141  1.00  0.00     0.238 C 
HETATM    2  N   UNL     1     -42.393  55.888 -54.884  1.00  0.00    -0.350 N 
HETATM    3  C   UNL     1     -43.053  54.824 -54.131  1.00  0.00     0.129 C 
HETATM    4  C   UNL     1     -42.389  53.472 -54.341  1.00  0.00     0.063 C 
HETATM    5  C   UNL     1     -40.906  53.522 -53.941  1.00  0.00     0.088 C 
HETATM    6  C   UNL     1     -40.237  54.570 -54.847  1.00  0.00     0.063 C 
HETATM    7  C   UNL     1     -40.933  55.927 -54.848  1.00  0.00     0.129 C 
HETATM    8  O   UNL     1     -42.409  58.025 -55.735  1.00  0.00    -0.272 OA
ENDROOT
BRANCH   1   9
HETATM    9  C   UNL     1     -44.408  57.379 -54.607  1.00  0.00     0.231 C 
BRANCH   9  10
HETATM   10  N   UNL     1     -44.377  57.952 -53.265  1.00  0.00    -0.347 N 
HETATM   11  C   UNL     1     -44.151  59.279 -52.945  1.00  0.00     0.047 A 
HETATM   12  C   UNL     1     -44.217  59.386 -51.547  1.00  0.00     0.019 A 
HETATM   13  C   UNL     1     -43.893  60.395 -53.754  1.00  0.00     0.031 A 
HETATM   14  C   UNL     1     -44.001  60.644 -50.921  1.00  0.00     0.047 A 
HETATM   15  C   UNL     1     -44.473  58.075 -51.047  1.00  0.00     0.033 A 
HETATM   16  C   UNL     1     -43.767  61.755 -51.740  1.00  0.00     0.030 A 
HETATM   17  C   UNL     1     -43.710  61.629 -53.129  1.00  0.00     0.005 A 
HETATM   18  C   UNL     1     -44.542  57.218 -52.117  1.00  0.00     0.092 A 
BRANCH  14  19
HETATM   19  N   UNL     1     -44.086  60.696 -49.516  1.00  0.00    -0.327 N 
HETATM   20  C   UNL     1     -44.999  61.217 -48.651  1.00  0.00     0.218 C 
HETATM   21  C   UNL     1     -46.110  62.106 -49.129  1.00  0.00     0.117 C 
HETATM   22  O   UNL     1     -44.864  60.985 -47.447  1.00  0.00    -0.274 OA
HETATM   23  H   UNL     1     -43.309  60.281 -49.016  1.00  0.00     0.169 HD
ENDBRANCH  14  19
ENDBRANCH   9  10
ENDBRANCH   1   9
BRANCH   5  24
HETATM   24  O   UNL     1     -40.325  52.255 -54.297  1.00  0.00    -0.385 OA
HETATM   25  H   UNL     1     -40.625  52.038 -55.198  1.00  0.00     0.211 HD
ENDBRANCH   5  24
BRANCH   5  26
HETATM   26  C   UNL     1     -40.729  53.669 -52.426  1.00  0.00    -0.024 A 
HETATM   27  C   UNL     1     -40.315  52.546 -51.677  1.00  0.00     0.012 A 
HETATM   28  C   UNL     1     -40.188  52.600 -50.286  1.00  0.00     0.024 A 
HETATM   29  C   UNL     1     -40.461  53.786 -49.618  1.00  0.00     0.034 A 
HETATM   30 CL   UNL     1     -40.325  53.856 -47.905  1.00  0.00    -0.084 Cl
HETATM   31  C   UNL     1     -40.834  54.920 -50.333  1.00  0.00     0.024 A 
HETATM   32  C   UNL     1     -40.954  54.865 -51.728  1.00  0.00     0.012 A 
ENDBRANCH   5  26
TORSDOF 5
ENDMDL
MODEL 10
REMARK VINA RESULT:      -8.0      3.104      4.186
REMARK  5 active torsions:
REMARK  status: ('A' for Active; 'I' for Inactive)
REMARK       I    between atoms: C_2  and  N_3 
REMARK    1  A    between atoms: N_3  and  C_4 
REMARK    2  A    between atoms: N_7  and  C_8 
REMARK    3  A    between atoms: C_8  and  C_9 
REMARK       I    between atoms: C_9  and  N_10 
REMARK    4  A    between atoms: C_13  and  O_14 
REMARK    5  A    between atoms: C_13  and  C_15 
ROOT
HETATM    1  C   UNL     1     -43.343  56.969 -55.776  1.00  0.00     0.238 C 
HETATM    2  N   UNL     1     -42.672  56.616 -54.597  1.00  0.00    -0.350 N 
HETATM    3  C   UNL     1     -41.223  56.432 -54.542  1.00  0.00     0.129 C 
HETATM    4  C   UNL     1     -40.691  56.471 -53.119  1.00  0.00     0.063 C 
HETATM    5  C   UNL     1     -41.364  55.397 -52.250  1.00  0.00     0.088 C 
HETATM    6  C   UNL     1     -42.870  55.711 -52.245  1.00  0.00     0.063 C 
HETATM    7  C   UNL     1     -43.479  55.867 -53.635  1.00  0.00     0.129 C 
HETATM    8  O   UNL     1     -44.574  57.069 -55.809  1.00  0.00    -0.272 OA
ENDROOT
BRANCH   1   9
HETATM    9  C   UNL     1     -42.544  57.157 -57.056  1.00  0.00     0.231 C 
BRANCH   9  10
HETATM   10  N   UNL     1     -42.367  58.570 -57.378  1.00  0.00    -0.347 N 
HETATM   11  C   UNL     1     -42.220  59.112 -58.642  1.00  0.00     0.047 A 
HETATM   12  C   UNL     1     -42.087  60.500 -58.487  1.00  0.00     0.019 A 
HETATM   13  C   UNL     1     -42.186  58.509 -59.908  1.00  0.00     0.031 A 
HETATM   14  C   UNL     1     -41.898  61.327 -59.628  1.00  0.00     0.047 A 
HETATM   15  C   UNL     1     -42.145  60.763 -57.086  1.00  0.00     0.033 A 
HETATM   16  C   UNL     1     -41.889  60.717 -60.888  1.00  0.00     0.030 A 
HETATM   17  C   UNL     1     -42.027  59.335 -61.022  1.00  0.00     0.005 A 
HETATM   18  C   UNL     1     -42.293  59.564 -56.434  1.00  0.00     0.092 A 
BRANCH  14  19
HETATM   19  N   UNL     1     -41.778  62.714 -59.415  1.00  0.00    -0.327 N 
HETATM   20  C   UNL     1     -40.721  63.572 -59.405  1.00  0.00     0.218 C 
HETATM   21  C   UNL     1     -39.306  63.071 -59.431  1.00  0.00     0.117 C 
HETATM   22  O   UNL     1     -40.949  64.782 -59.320  1.00  0.00    -0.274 OA
HETATM   23  H   UNL     1     -42.641  63.201 -59.207  1.00  0.00     0.169 HD
ENDBRANCH  14  19
ENDBRANCH   9  10
ENDBRANCH   1   9
BRANCH   5  24
HETATM   24  O   UNL     1     -40.909  55.593 -50.900  1.00  0.00    -0.385 OA
HETATM   25  H   UNL     1     -40.734  56.544 -50.785  1.00  0.00     0.211 HD
ENDBRANCH   5  24
BRANCH   5  26
HETATM   26  C   UNL     1     -40.930  53.984 -52.653  1.00  0.00    -0.024 A 
HETATM   27  C   UNL     1     -40.228  53.194 -51.717  1.00  0.00     0.012 A 
HETATM   28  C   UNL     1     -39.757  51.919 -52.041  1.00  0.00     0.024 A 
HETATM   29  C   UNL     1     -39.991  51.403 -53.309  1.00  0.00     0.034 A 
HETATM   30 CL   UNL     1     -39.398  49.843 -53.723  1.00  0.00    -0.084 Cl
HETATM   31  C   UNL     1     -40.711  52.143 -54.241  1.00  0.00     0.024 A 
HETATM   32  C   UNL     1     -41.189  53.419 -53.911  1.00  0.00     0.012 A 
ENDBRANCH   5  26
TORSDOF 5
ENDMDL
