MODEL 1
REMARK VINA RESULT:      -9.9      0.000      0.000
REMARK  5 active torsions:
REMARK  status: ('A' for Active; 'I' for Inactive)
REMARK    1  A    between atoms: C_5  and  C_6 
REMARK    2  A    between atoms: C_13  and  C_14 
REMARK       I    between atoms: C_14  and  N_15 
REMARK    3  A    between atoms: N_15  and  C_16 
REMARK    4  A    between atoms: C_19  and  C_20 
REMARK    5  A    between atoms: C_23  and  N_24 
ROOT
HETATM    1  C   UNL     1     -41.796  54.841 -52.706  1.00  0.00     0.262 C 
HETATM    2  N   UNL     1     -41.240  55.871 -53.428  1.00  0.00    -0.301 N 
HETATM    3  O   UNL     1     -42.856  54.275 -52.928  1.00  0.00    -0.267 OA
HETATM    4  H   UNL     1     -40.292  56.162 -53.248  1.00  0.00     0.171 HD
ENDROOT
BRANCH   2   5
HETATM    5  C   UNL     1     -41.852  56.441 -54.505  1.00  0.00     0.173 A 
HETATM    6  S   UNL     1     -41.907  58.144 -54.427  1.00  0.00    -0.061 SA
HETATM    7  C   UNL     1     -42.720  58.165 -55.938  1.00  0.00     0.085 A 
HETATM    8  C   UNL     1     -42.894  56.871 -56.398  1.00  0.00     0.076 A 
HETATM    9  N   UNL     1     -42.405  55.885 -55.550  1.00  0.00    -0.223 NA
BRANCH   8  10
HETATM   10  C   UNL     1     -43.565  56.527 -57.649  1.00  0.00    -0.007 A 
HETATM   11  C   UNL     1     -44.439  57.419 -58.291  1.00  0.00     0.016 A 
HETATM   12  C   UNL     1     -45.079  57.062 -59.483  1.00  0.00     0.037 A 
HETATM   13  C   UNL     1     -44.845  55.800 -60.043  1.00  0.00     0.102 A 
HETATM   14  C   UNL     1     -43.967  54.903 -59.425  1.00  0.00     0.037 A 
HETATM   15  C   UNL     1     -43.330  55.273 -58.235  1.00  0.00     0.016 A 
BRANCH  13  16
HETATM   16  N   UNL     1     -45.523  55.420 -61.288  1.00  0.00    -0.116 N 
HETATM   17  O   UNL     1     -44.896  54.716 -62.093  1.00  0.00    -0.532 OA
HETATM   18  O   UNL     1     -46.679  55.830 -61.465  1.00  0.00    -0.532 OA
ENDBRANCH  13  16
ENDBRANCH   8  10
ENDBRANCH   2   5
BRANCH   1  19
HETATM   19  C   UNL     1     -40.941  54.420 -51.611  1.00  0.00     0.095 A 
HETATM   20  C   UNL     1     -40.732  55.082 -50.419  1.00  0.00     0.093 A 
HETATM   21  C   UNL     1     -41.243  56.329 -49.817  1.00  0.00     0.080 C 
HETATM   22  O   UNL     1     -39.885  54.355 -49.646  1.00  0.00    -0.217 OA
HETATM   23  N   UNL     1     -39.537  53.196 -50.303  1.00  0.00    -0.127 NA
HETATM   24  C   UNL     1     -40.171  53.226 -51.487  1.00  0.00     0.114 A 
BRANCH  24  25
HETATM   25  C   UNL     1     -40.011  52.125 -52.432  1.00  0.00     0.018 A 
HETATM   26  C   UNL     1     -39.874  50.787 -52.032  1.00  0.00     0.046 A 
HETATM   27 CL   UNL     1     -39.943  50.293 -50.373  1.00  0.00    -0.083 Cl
HETATM   28  C   UNL     1     -39.723  49.777 -52.991  1.00  0.00     0.025 A 
HETATM   29  C   UNL     1     -39.724  50.090 -54.351  1.00  0.00     0.002 A 
HETATM   30  C   UNL     1     -39.879  51.411 -54.759  1.00  0.00     0.001 A 
HETATM   31  C   UNL     1     -40.022  52.423 -53.806  1.00  0.00     0.016 A 
ENDBRANCH  24  25
ENDBRANCH   1  19
TORSDOF 5
ENDMDL
MODEL 2
REMARK VINA RESULT:      -9.4      4.494      8.284
REMARK  5 active torsions:
REMARK  status: ('A' for Active; 'I' for Inactive)
REMARK    1  A    between atoms: C_5  and  C_6 
REMARK    2  A    between atoms: C_13  and  C_14 
REMARK       I    between atoms: C_14  and  N_15 
REMARK    3  A    between atoms: N_15  and  C_16 
REMARK    4  A    between atoms: C_19  and  C_20 
REMARK    5  A    between atoms: C_23  and  N_24 
ROOT
HETATM    1  C   UNL     1     -41.652  59.284 -53.247  1.00  0.00     0.262 C 
HETATM    2  N   UNL     1     -42.379  58.262 -52.685  1.00  0.00    -0.301 N 
HETATM    3  O   UNL     1     -40.450  59.298 -53.469  1.00  0.00    -0.267 OA
HETATM    4  H   UNL     1     -43.386  58.295 -52.685  1.00  0.00     0.171 HD
ENDROOT
BRANCH   2   5
HETATM    5  C   UNL     1     -41.815  57.099 -52.249  1.00  0.00     0.173 A 
HETATM    6  S   UNL     1     -41.309  57.163 -50.621  1.00  0.00    -0.061 SA
HETATM    7  C   UNL     1     -40.763  55.541 -50.751  1.00  0.00     0.085 A 
HETATM    8  C   UNL     1     -41.004  55.063 -52.027  1.00  0.00     0.076 A 
HETATM    9  N   UNL     1     -41.593  55.981 -52.886  1.00  0.00    -0.223 NA
BRANCH   8  10
HETATM   10  C   UNL     1     -40.647  53.722 -52.481  1.00  0.00    -0.007 A 
HETATM   11  C   UNL     1     -40.857  53.307 -53.806  1.00  0.00     0.016 A 
HETATM   12  C   UNL     1     -40.517  52.012 -54.214  1.00  0.00     0.037 A 
HETATM   13  C   UNL     1     -39.958  51.119 -53.291  1.00  0.00     0.102 A 
HETATM   14  C   UNL     1     -39.729  51.519 -51.969  1.00  0.00     0.037 A 
HETATM   15  C   UNL     1     -40.070  52.818 -51.574  1.00  0.00     0.016 A 
BRANCH  13  16
HETATM   16  N   UNL     1     -39.611  49.758 -53.714  1.00  0.00    -0.116 N 
HETATM   17  O   UNL     1     -39.215  48.969 -52.844  1.00  0.00    -0.532 OA
HETATM   18  O   UNL     1     -39.727  49.479 -54.916  1.00  0.00    -0.532 OA
ENDBRANCH  13  16
ENDBRANCH   8  10
ENDBRANCH   2   5
BRANCH   1  19
HETATM   19  C   UNL     1     -42.492  60.407 -53.622  1.00  0.00     0.095 A 
HETATM   20  C   UNL     1     -43.015  61.370 -52.785  1.00  0.00     0.093 A 
HETATM   21  C   UNL     1     -42.933  61.647 -51.337  1.00  0.00     0.080 C 
HETATM   22  O   UNL     1     -43.727  62.264 -53.520  1.00  0.00    -0.217 OA
HETATM   23  N   UNL     1     -43.669  61.918 -54.851  1.00  0.00    -0.127 NA
HETATM   24  C   UNL     1     -42.925  60.803 -54.923  1.00  0.00     0.114 A 
BRANCH  24  25
HETATM   25  C   UNL     1     -42.669  60.174 -56.215  1.00  0.00     0.018 A 
HETATM   26  C   UNL     1     -43.243  58.952 -56.599  1.00  0.00     0.046 A 
HETATM   27 CL   UNL     1     -44.367  58.090 -55.602  1.00  0.00    -0.083 Cl
HETATM   28  C   UNL     1     -42.956  58.403 -57.855  1.00  0.00     0.025 A 
HETATM   29  C   UNL     1     -42.110  59.073 -58.741  1.00  0.00     0.002 A 
HETATM   30  C   UNL     1     -41.551  60.294 -58.378  1.00  0.00     0.001 A 
HETATM   31  C   UNL     1     -41.828  60.843 -57.123  1.00  0.00     0.016 A 
ENDBRANCH  24  25
ENDBRANCH   1  19
TORSDOF 5
ENDMDL
MODEL 3
REMARK VINA RESULT:      -9.3      3.690      8.846
REMARK  5 active torsions:
REMARK  status: ('A' for Active; 'I' for Inactive)
REMARK    1  A    between atoms: C_5  and  C_6 
REMARK    2  A    between atoms: C_13  and  C_14 
REMARK       I    between atoms: C_14  and  N_15 
REMARK    3  A    between atoms: N_15  and  C_16 
REMARK    4  A    between atoms: C_19  and  C_20 
REMARK    5  A    between atoms: C_23  and  N_24 
ROOT
HETATM    1  C   UNL     1     -43.420  57.897 -56.357  1.00  0.00     0.262 C 
HETATM    2  N   UNL     1     -42.119  57.646 -55.990  1.00  0.00    -0.301 N 
HETATM    3  O   UNL     1     -44.432  57.506 -55.796  1.00  0.00    -0.267 OA
HETATM    4  H   UNL     1     -41.362  58.141 -56.434  1.00  0.00     0.171 HD
ENDROOT
BRANCH   2   5
HETATM    5  C   UNL     1     -41.784  56.858 -54.929  1.00  0.00     0.173 A 
HETATM    6  S   UNL     1     -41.878  57.668 -53.430  1.00  0.00    -0.061 SA
HETATM    7  C   UNL     1     -41.377  56.226 -52.645  1.00  0.00     0.085 A 
HETATM    8  C   UNL     1     -41.172  55.227 -53.580  1.00  0.00     0.076 A 
HETATM    9  N   UNL     1     -41.391  55.612 -54.896  1.00  0.00    -0.223 NA
BRANCH   8  10
HETATM   10  C   UNL     1     -40.724  53.876 -53.252  1.00  0.00    -0.007 A 
HETATM   11  C   UNL     1     -40.583  52.882 -54.234  1.00  0.00     0.016 A 
HETATM   12  C   UNL     1     -40.164  51.591 -53.892  1.00  0.00     0.037 A 
HETATM   13  C   UNL     1     -39.880  51.287 -52.555  1.00  0.00     0.102 A 
HETATM   14  C   UNL     1     -40.003  52.267 -51.564  1.00  0.00     0.037 A 
HETATM   15  C   UNL     1     -40.419  53.556 -51.919  1.00  0.00     0.016 A 
BRANCH  13  16
HETATM   16  N   UNL     1     -39.449  49.931 -52.193  1.00  0.00    -0.116 N 
HETATM   17  O   UNL     1     -39.110  49.730 -51.019  1.00  0.00    -0.532 OA
HETATM   18  O   UNL     1     -39.445  49.069 -53.084  1.00  0.00    -0.532 OA
ENDBRANCH  13  16
ENDBRANCH   8  10
ENDBRANCH   2   5
BRANCH   1  19
HETATM   19  C   UNL     1     -43.499  58.763 -57.519  1.00  0.00     0.095 A 
HETATM   20  C   UNL     1     -43.119  60.087 -57.597  1.00  0.00     0.093 A 
HETATM   21  C   UNL     1     -42.523  61.055 -56.656  1.00  0.00     0.080 C 
HETATM   22  O   UNL     1     -43.327  60.539 -58.860  1.00  0.00    -0.217 OA
HETATM   23  N   UNL     1     -43.826  59.521 -59.640  1.00  0.00    -0.127 NA
HETATM   24  C   UNL     1     -43.931  58.446 -58.842  1.00  0.00     0.114 A 
BRANCH  24  25
HETATM   25  C   UNL     1     -44.435  57.184 -59.374  1.00  0.00     0.018 A 
HETATM   26  C   UNL     1     -45.771  56.995 -59.759  1.00  0.00     0.046 A 
HETATM   27 CL   UNL     1     -46.951  58.262 -59.702  1.00  0.00    -0.083 Cl
HETATM   28  C   UNL     1     -46.190  55.758 -60.264  1.00  0.00     0.025 A 
HETATM   29  C   UNL     1     -45.281  54.707 -60.402  1.00  0.00     0.002 A 
HETATM   30  C   UNL     1     -43.950  54.890 -60.041  1.00  0.00     0.001 A 
HETATM   31  C   UNL     1     -43.528  56.120 -59.530  1.00  0.00     0.016 A 
ENDBRANCH  24  25
ENDBRANCH   1  19
TORSDOF 5
ENDMDL
MODEL 4
REMARK VINA RESULT:      -9.2      4.746      8.886
REMARK  5 active torsions:
REMARK  status: ('A' for Active; 'I' for Inactive)
REMARK    1  A    between atoms: C_5  and  C_6 
REMARK    2  A    between atoms: C_13  and  C_14 
REMARK       I    between atoms: C_14  and  N_15 
REMARK    3  A    between atoms: N_15  and  C_16 
REMARK    4  A    between atoms: C_19  and  C_20 
REMARK    5  A    between atoms: C_23  and  N_24 
ROOT
HETATM    1  C   UNL     1     -41.735  59.376 -53.715  1.00  0.00     0.262 C 
HETATM    2  N   UNL     1     -42.530  58.299 -53.404  1.00  0.00    -0.301 N 
HETATM    3  O   UNL     1     -40.523  59.460 -53.584  1.00  0.00    -0.267 OA
HETATM    4  H   UNL     1     -43.495  58.281 -53.692  1.00  0.00     0.171 HD
ENDROOT
BRANCH   2   5
HETATM    5  C   UNL     1     -42.046  57.154 -52.845  1.00  0.00     0.173 A 
HETATM    6  S   UNL     1     -41.811  57.272 -51.159  1.00  0.00    -0.061 SA
HETATM    7  C   UNL     1     -41.254  55.649 -51.145  1.00  0.00     0.085 A 
HETATM    8  C   UNL     1     -41.285  55.129 -52.428  1.00  0.00     0.076 A 
HETATM    9  N   UNL     1     -41.726  56.016 -53.401  1.00  0.00    -0.223 NA
BRANCH   8  10
HETATM   10  C   UNL     1     -40.861  53.775 -52.775  1.00  0.00    -0.007 A 
HETATM   11  C   UNL     1     -41.198  53.183 -54.002  1.00  0.00     0.016 A 
HETATM   12  C   UNL     1     -40.790  51.880 -54.306  1.00  0.00     0.037 A 
HETATM   13  C   UNL     1     -40.033  51.157 -53.375  1.00  0.00     0.102 A 
HETATM   14  C   UNL     1     -39.676  51.734 -52.151  1.00  0.00     0.037 A 
HETATM   15  C   UNL     1     -40.088  53.040 -51.861  1.00  0.00     0.016 A 
BRANCH  13  16
HETATM   16  N   UNL     1     -39.612  49.786 -53.688  1.00  0.00    -0.116 N 
HETATM   17  O   UNL     1     -39.541  49.465 -54.883  1.00  0.00    -0.532 OA
HETATM   18  O   UNL     1     -39.359  49.028 -52.740  1.00  0.00    -0.532 OA
ENDBRANCH  13  16
ENDBRANCH   8  10
ENDBRANCH   2   5
BRANCH   1  19
HETATM   19  C   UNL     1     -42.498  60.466 -54.297  1.00  0.00     0.095 A 
HETATM   20  C   UNL     1     -42.587  60.798 -55.633  1.00  0.00     0.093 A 
HETATM   21  C   UNL     1     -42.032  60.242 -56.883  1.00  0.00     0.080 C 
HETATM   22  O   UNL     1     -43.418  61.862 -55.776  1.00  0.00    -0.217 OA
HETATM   23  N   UNL     1     -43.905  62.237 -54.545  1.00  0.00    -0.127 NA
HETATM   24  C   UNL     1     -43.359  61.400 -53.648  1.00  0.00     0.114 A 
BRANCH  24  25
HETATM   25  C   UNL     1     -43.681  61.532 -52.231  1.00  0.00     0.018 A 
HETATM   26  C   UNL     1     -44.648  60.743 -51.588  1.00  0.00     0.046 A 
HETATM   27 CL   UNL     1     -45.519  59.484 -52.398  1.00  0.00    -0.083 Cl
HETATM   28  C   UNL     1     -44.908  60.921 -50.224  1.00  0.00     0.025 A 
HETATM   29  C   UNL     1     -44.199  61.872 -49.488  1.00  0.00     0.002 A 
HETATM   30  C   UNL     1     -43.224  62.645 -50.110  1.00  0.00     0.001 A 
HETATM   31  C   UNL     1     -42.966  62.478 -51.473  1.00  0.00     0.016 A 
ENDBRANCH  24  25
ENDBRANCH   1  19
TORSDOF 5
ENDMDL
MODEL 5
REMARK VINA RESULT:      -9.1      3.566      8.436
REMARK  5 active torsions:
REMARK  status: ('A' for Active; 'I' for Inactive)
REMARK    1  A    between atoms: C_5  and  C_6 
REMARK    2  A    between atoms: C_13  and  C_14 
REMARK       I    between atoms: C_14  and  N_15 
REMARK    3  A    between atoms: N_15  and  C_16 
REMARK    4  A    between atoms: C_19  and  C_20 
REMARK    5  A    between atoms: C_23  and  N_24 
ROOT
HETATM    1  C   UNL     1     -44.364  58.009 -55.398  1.00  0.00     0.262 C 
HETATM    2  N   UNL     1     -42.999  57.939 -55.250  1.00  0.00    -0.301 N 
HETATM    3  O   UNL     1     -45.206  57.371 -54.785  1.00  0.00    -0.267 OA
HETATM    4  H   UNL     1     -42.404  58.617 -55.698  1.00  0.00     0.171 HD
ENDROOT
BRANCH   2   5
HETATM    5  C   UNL     1     -42.388  57.076 -54.388  1.00  0.00     0.173 A 
HETATM    6  S   UNL     1     -41.997  57.786 -52.886  1.00  0.00    -0.061 SA
HETATM    7  C   UNL     1     -41.334  56.288 -52.376  1.00  0.00     0.085 A 
HETATM    8  C   UNL     1     -41.456  55.349 -53.387  1.00  0.00     0.076 A 
HETATM    9  N   UNL     1     -42.049  55.825 -54.549  1.00  0.00    -0.223 NA
BRANCH   8  10
HETATM   10  C   UNL     1     -40.979  53.972 -53.290  1.00  0.00    -0.007 A 
HETATM   11  C   UNL     1     -40.370  53.479 -52.125  1.00  0.00     0.016 A 
HETATM   12  C   UNL     1     -39.910  52.158 -52.062  1.00  0.00     0.037 A 
HETATM   13  C   UNL     1     -40.061  51.318 -53.172  1.00  0.00     0.102 A 
HETATM   14  C   UNL     1     -40.678  51.789 -54.337  1.00  0.00     0.037 A 
HETATM   15  C   UNL     1     -41.137  53.110 -54.387  1.00  0.00     0.016 A 
BRANCH  13  16
HETATM   16  N   UNL     1     -39.571  49.936 -53.111  1.00  0.00    -0.116 N 
HETATM   17  O   UNL     1     -39.495  49.402 -51.995  1.00  0.00    -0.532 OA
HETATM   18  O   UNL     1     -39.256  49.387 -54.176  1.00  0.00    -0.532 OA
ENDBRANCH  13  16
ENDBRANCH   8  10
ENDBRANCH   2   5
BRANCH   1  19
HETATM   19  C   UNL     1     -44.754  59.007 -56.378  1.00  0.00     0.095 A 
HETATM   20  C   UNL     1     -45.118  60.315 -56.133  1.00  0.00     0.093 A 
HETATM   21  C   UNL     1     -45.229  61.155 -54.925  1.00  0.00     0.080 C 
HETATM   22  O   UNL     1     -45.387  60.933 -57.312  1.00  0.00    -0.217 OA
HETATM   23  N   UNL     1     -45.187  60.054 -58.352  1.00  0.00    -0.127 NA
HETATM   24  C   UNL     1     -44.803  58.892 -57.799  1.00  0.00     0.114 A 
BRANCH  24  25
HETATM   25  C   UNL     1     -44.506  57.741 -58.646  1.00  0.00     0.018 A 
HETATM   26  C   UNL     1     -43.202  57.383 -59.022  1.00  0.00     0.046 A 
HETATM   27 CL   UNL     1     -41.800  58.236 -58.468  1.00  0.00    -0.083 Cl
HETATM   28  C   UNL     1     -42.986  56.265 -59.836  1.00  0.00     0.025 A 
HETATM   29  C   UNL     1     -44.062  55.488 -60.269  1.00  0.00     0.002 A 
HETATM   30  C   UNL     1     -45.357  55.823 -59.886  1.00  0.00     0.001 A 
HETATM   31  C   UNL     1     -45.579  56.942 -59.080  1.00  0.00     0.016 A 
ENDBRANCH  24  25
ENDBRANCH   1  19
TORSDOF 5
ENDMDL
MODEL 6
REMARK VINA RESULT:      -8.9      3.134      4.704
REMARK  5 active torsions:
REMARK  status: ('A' for Active; 'I' for Inactive)
REMARK    1  A    between atoms: C_5  and  C_6 
REMARK    2  A    between atoms: C_13  and  C_14 
REMARK       I    between atoms: C_14  and  N_15 
REMARK    3  A    between atoms: N_15  and  C_16 
REMARK    4  A    between atoms: C_19  and  C_20 
REMARK    5  A    between atoms: C_23  and  N_24 
ROOT
HETATM    1  C   UNL     1     -43.115  57.447 -55.577  1.00  0.00     0.262 C 
HETATM    2  N   UNL     1     -42.773  57.500 -56.907  1.00  0.00    -0.301 N 
HETATM    3  O   UNL     1     -44.146  56.997 -55.099  1.00  0.00    -0.267 OA
HETATM    4  H   UNL     1     -41.836  57.752 -57.181  1.00  0.00     0.171 HD
ENDROOT
BRANCH   2   5
HETATM    5  C   UNL     1     -43.598  57.075 -57.906  1.00  0.00     0.173 A 
HETATM    6  S   UNL     1     -43.264  55.485 -58.429  1.00  0.00    -0.061 SA
HETATM    7  C   UNL     1     -44.544  55.612 -59.563  1.00  0.00     0.085 A 
HETATM    8  C   UNL     1     -45.139  56.859 -59.467  1.00  0.00     0.076 A 
HETATM    9  N   UNL     1     -44.568  57.698 -58.519  1.00  0.00    -0.223 NA
BRANCH   8  10
HETATM   10  C   UNL     1     -46.252  57.304 -60.301  1.00  0.00    -0.007 A 
HETATM   11  C   UNL     1     -46.596  58.660 -60.416  1.00  0.00     0.016 A 
HETATM   12  C   UNL     1     -47.674  59.061 -61.213  1.00  0.00     0.037 A 
HETATM   13  C   UNL     1     -48.419  58.098 -61.905  1.00  0.00     0.102 A 
HETATM   14  C   UNL     1     -48.083  56.742 -61.813  1.00  0.00     0.037 A 
HETATM   15  C   UNL     1     -46.999  56.355 -61.016  1.00  0.00     0.016 A 
BRANCH  13  16
HETATM   16  N   UNL     1     -49.556  58.515 -62.734  1.00  0.00    -0.116 N 
HETATM   17  O   UNL     1     -50.092  59.600 -62.469  1.00  0.00    -0.532 OA
HETATM   18  O   UNL     1     -49.918  57.755 -63.644  1.00  0.00    -0.532 OA
ENDBRANCH  13  16
ENDBRANCH   8  10
ENDBRANCH   2   5
BRANCH   1  19
HETATM   19  C   UNL     1     -42.061  57.961 -54.723  1.00  0.00     0.095 A 
HETATM   20  C   UNL     1     -41.782  59.285 -54.452  1.00  0.00     0.093 A 
HETATM   21  C   UNL     1     -42.378  60.576 -54.848  1.00  0.00     0.080 C 
HETATM   22  O   UNL     1     -40.736  59.355 -53.589  1.00  0.00    -0.217 OA
HETATM   23  N   UNL     1     -40.321  58.085 -53.261  1.00  0.00    -0.127 NA
HETATM   24  C   UNL     1     -41.115  57.239 -53.937  1.00  0.00     0.114 A 
BRANCH  24  25
HETATM   25  C   UNL     1     -40.932  55.797 -53.802  1.00  0.00     0.018 A 
HETATM   26  C   UNL     1     -41.319  55.079 -52.659  1.00  0.00     0.046 A 
HETATM   27 CL   UNL     1     -42.113  55.823 -51.311  1.00  0.00    -0.083 Cl
HETATM   28  C   UNL     1     -41.116  53.696 -52.594  1.00  0.00     0.025 A 
HETATM   29  C   UNL     1     -40.542  53.015 -53.670  1.00  0.00     0.002 A 
HETATM   30  C   UNL     1     -40.173  53.714 -54.815  1.00  0.00     0.001 A 
HETATM   31  C   UNL     1     -40.366  55.096 -54.882  1.00  0.00     0.016 A 
ENDBRANCH  24  25
ENDBRANCH   1  19
TORSDOF 5
ENDMDL
MODEL 7
REMARK VINA RESULT:      -8.9      4.353      8.435
REMARK  5 active torsions:
REMARK  status: ('A' for Active; 'I' for Inactive)
REMARK    1  A    between atoms: C_5  and  C_6 
REMARK    2  A    between atoms: C_13  and  C_14 
REMARK       I    between atoms: C_14  and  N_15 
REMARK    3  A    between atoms: N_15  and  C_16 
REMARK    4  A    between atoms: C_19  and  C_20 
REMARK    5  A    between atoms: C_23  and  N_24 
ROOT
HETATM    1  C   UNL     1     -42.208  59.155 -54.354  1.00  0.00     0.262 C 
HETATM    2  N   UNL     1     -42.925  58.133 -53.778  1.00  0.00    -0.301 N 
HETATM    3  O   UNL     1     -40.992  59.250 -54.430  1.00  0.00    -0.267 OA
HETATM    4  H   UNL     1     -43.923  58.080 -53.904  1.00  0.00     0.171 HD
ENDROOT
BRANCH   2   5
HETATM    5  C   UNL     1     -42.339  57.072 -53.155  1.00  0.00     0.173 A 
HETATM    6  S   UNL     1     -41.994  57.362 -51.509  1.00  0.00    -0.061 SA
HETATM    7  C   UNL     1     -41.345  55.777 -51.389  1.00  0.00     0.085 A 
HETATM    8  C   UNL     1     -41.437  55.136 -52.612  1.00  0.00     0.076 A 
HETATM    9  N   UNL     1     -41.995  55.903 -53.627  1.00  0.00    -0.223 NA
BRANCH   8  10
HETATM   10  C   UNL     1     -40.962  53.778 -52.865  1.00  0.00    -0.007 A 
HETATM   11  C   UNL     1     -40.208  53.068 -51.917  1.00  0.00     0.016 A 
HETATM   12  C   UNL     1     -39.754  51.772 -52.187  1.00  0.00     0.037 A 
HETATM   13  C   UNL     1     -40.058  51.175 -53.418  1.00  0.00     0.102 A 
HETATM   14  C   UNL     1     -40.819  51.863 -54.370  1.00  0.00     0.037 A 
HETATM   15  C   UNL     1     -41.270  53.157 -54.086  1.00  0.00     0.016 A 
BRANCH  13  16
HETATM   16  N   UNL     1     -39.574  49.820 -53.707  1.00  0.00    -0.116 N 
HETATM   17  O   UNL     1     -39.385  49.518 -54.894  1.00  0.00    -0.532 OA
HETATM   18  O   UNL     1     -39.390  49.055 -52.750  1.00  0.00    -0.532 OA
ENDBRANCH  13  16
ENDBRANCH   8  10
ENDBRANCH   2   5
BRANCH   1  19
HETATM   19  C   UNL     1     -43.072  60.159 -54.948  1.00  0.00     0.095 A 
HETATM   20  C   UNL     1     -43.615  61.263 -54.324  1.00  0.00     0.093 A 
HETATM   21  C   UNL     1     -43.537  61.833 -52.964  1.00  0.00     0.080 C 
HETATM   22  O   UNL     1     -44.346  61.971 -55.222  1.00  0.00    -0.217 OA
HETATM   23  N   UNL     1     -44.282  61.361 -56.454  1.00  0.00    -0.127 NA
HETATM   24  C   UNL     1     -43.515  60.270 -56.300  1.00  0.00     0.114 A 
BRANCH  24  25
HETATM   25  C   UNL     1     -43.247  59.395 -57.437  1.00  0.00     0.018 A 
HETATM   26  C   UNL     1     -42.255  59.665 -58.393  1.00  0.00     0.046 A 
HETATM   27 CL   UNL     1     -41.200  61.035 -58.287  1.00  0.00    -0.083 Cl
HETATM   28  C   UNL     1     -42.048  58.783 -59.460  1.00  0.00     0.025 A 
HETATM   29  C   UNL     1     -42.815  57.622 -59.576  1.00  0.00     0.002 A 
HETATM   30  C   UNL     1     -43.788  57.336 -58.624  1.00  0.00     0.001 A 
HETATM   31  C   UNL     1     -44.003  58.216 -57.560  1.00  0.00     0.016 A 
ENDBRANCH  24  25
ENDBRANCH   1  19
TORSDOF 5
ENDMDL
MODEL 8
REMARK VINA RESULT:      -8.8      4.080      8.343
REMARK  5 active torsions:
REMARK  status: ('A' for Active; 'I' for Inactive)
REMARK    1  A    between atoms: C_5  and  C_6 
REMARK    2  A    between atoms: C_13  and  C_14 
REMARK       I    between atoms: C_14  and  N_15 
REMARK    3  A    between atoms: N_15  and  C_16 
REMARK    4  A    between atoms: C_19  and  C_20 
REMARK    5  A    between atoms: C_23  and  N_24 
ROOT
HETATM    1  C   UNL     1     -44.245  58.125 -54.055  1.00  0.00     0.262 C 
HETATM    2  N   UNL     1     -42.917  58.131 -53.700  1.00  0.00    -0.301 N 
HETATM    3  O   UNL     1     -45.053  57.228 -53.870  1.00  0.00    -0.267 OA
HETATM    4  H   UNL     1     -42.378  58.980 -53.763  1.00  0.00     0.171 HD
ENDROOT
BRANCH   2   5
HETATM    5  C   UNL     1     -42.300  57.068 -53.108  1.00  0.00     0.173 A 
HETATM    6  S   UNL     1     -41.877  57.355 -51.479  1.00  0.00    -0.061 SA
HETATM    7  C   UNL     1     -41.221  55.771 -51.395  1.00  0.00     0.085 A 
HETATM    8  C   UNL     1     -41.369  55.133 -52.615  1.00  0.00     0.076 A 
HETATM    9  N   UNL     1     -41.976  55.902 -53.599  1.00  0.00    -0.223 NA
BRANCH   8  10
HETATM   10  C   UNL     1     -40.905  53.777 -52.893  1.00  0.00    -0.007 A 
HETATM   11  C   UNL     1     -41.095  53.170 -54.145  1.00  0.00     0.016 A 
HETATM   12  C   UNL     1     -40.651  51.864 -54.383  1.00  0.00     0.037 A 
HETATM   13  C   UNL     1     -40.007  51.155 -53.361  1.00  0.00     0.102 A 
HETATM   14  C   UNL     1     -39.796  51.748 -52.111  1.00  0.00     0.037 A 
HETATM   15  C   UNL     1     -40.241  53.056 -51.887  1.00  0.00     0.016 A 
BRANCH  13  16
HETATM   16  N   UNL     1     -39.549  49.782 -53.606  1.00  0.00    -0.116 N 
HETATM   17  O   UNL     1     -39.336  49.448 -54.780  1.00  0.00    -0.532 OA
HETATM   18  O   UNL     1     -39.408  49.037 -52.626  1.00  0.00    -0.532 OA
ENDBRANCH  13  16
ENDBRANCH   8  10
ENDBRANCH   2   5
BRANCH   1  19
HETATM   19  C   UNL     1     -44.649  59.377 -54.668  1.00  0.00     0.095 A 
HETATM   20  C   UNL     1     -45.234  60.459 -54.042  1.00  0.00     0.093 A 
HETATM   21  C   UNL     1     -45.625  60.771 -52.653  1.00  0.00     0.080 C 
HETATM   22  O   UNL     1     -45.438  61.446 -54.950  1.00  0.00    -0.217 OA
HETATM   23  N   UNL     1     -44.975  61.044 -56.183  1.00  0.00    -0.127 NA
HETATM   24  C   UNL     1     -44.496  59.800 -56.022  1.00  0.00     0.114 A 
BRANCH  24  25
HETATM   25  C   UNL     1     -43.923  59.083 -57.156  1.00  0.00     0.018 A 
HETATM   26  C   UNL     1     -44.700  58.364 -58.079  1.00  0.00     0.046 A 
HETATM   27 CL   UNL     1     -46.430  58.306 -58.002  1.00  0.00    -0.083 Cl
HETATM   28  C   UNL     1     -44.088  57.698 -59.147  1.00  0.00     0.025 A 
HETATM   29  C   UNL     1     -42.703  57.754 -59.313  1.00  0.00     0.002 A 
HETATM   30  C   UNL     1     -41.925  58.479 -58.416  1.00  0.00     0.001 A 
HETATM   31  C   UNL     1     -42.531  59.140 -57.344  1.00  0.00     0.016 A 
ENDBRANCH  24  25
ENDBRANCH   1  19
TORSDOF 5
ENDMDL
MODEL 9
REMARK VINA RESULT:      -8.6      3.767      9.696
REMARK  5 active torsions:
REMARK  status: ('A' for Active; 'I' for Inactive)
REMARK    1  A    between atoms: C_5  and  C_6 
REMARK    2  A    between atoms: C_13  and  C_14 
REMARK       I    between atoms: C_14  and  N_15 
REMARK    3  A    between atoms: N_15  and  C_16 
REMARK    4  A    between atoms: C_19  and  C_20 
REMARK    5  A    between atoms: C_23  and  N_24 
ROOT
HETATM    1  C   UNL     1     -43.276  56.889 -58.104  1.00  0.00     0.262 C 
HETATM    2  N   UNL     1     -43.719  56.261 -56.964  1.00  0.00    -0.301 N 
HETATM    3  O   UNL     1     -42.118  57.139 -58.405  1.00  0.00    -0.267 OA
HETATM    4  H   UNL     1     -44.680  55.970 -56.886  1.00  0.00     0.171 HD
ENDROOT
BRANCH   2   5
HETATM    5  C   UNL     1     -42.884  55.859 -55.964  1.00  0.00     0.173 A 
HETATM    6  S   UNL     1     -42.209  57.157 -55.084  1.00  0.00    -0.061 SA
HETATM    7  C   UNL     1     -41.368  56.026 -54.105  1.00  0.00     0.085 A 
HETATM    8  C   UNL     1     -41.659  54.737 -54.517  1.00  0.00     0.076 A 
HETATM    9  N   UNL     1     -42.520  54.658 -55.603  1.00  0.00    -0.223 NA
BRANCH   8  10
HETATM   10  C   UNL     1     -41.096  53.535 -53.908  1.00  0.00    -0.007 A 
HETATM   11  C   UNL     1     -40.638  53.520 -52.580  1.00  0.00     0.016 A 
HETATM   12  C   UNL     1     -40.092  52.358 -52.023  1.00  0.00     0.037 A 
HETATM   13  C   UNL     1     -40.003  51.195 -52.798  1.00  0.00     0.102 A 
HETATM   14  C   UNL     1     -40.466  51.187 -54.119  1.00  0.00     0.037 A 
HETATM   15  C   UNL     1     -41.014  52.354 -54.663  1.00  0.00     0.016 A 
BRANCH  13  16
HETATM   16  N   UNL     1     -39.421  49.978 -52.219  1.00  0.00    -0.116 N 
HETATM   17  O   UNL     1     -39.102  50.007 -51.022  1.00  0.00    -0.532 OA
HETATM   18  O   UNL     1     -39.278  48.996 -52.961  1.00  0.00    -0.532 OA
ENDBRANCH  13  16
ENDBRANCH   8  10
ENDBRANCH   2   5
BRANCH   1  19
HETATM   19  C   UNL     1     -44.366  57.212 -59.006  1.00  0.00     0.095 A 
HETATM   20  C   UNL     1     -45.049  56.342 -59.830  1.00  0.00     0.093 A 
HETATM   21  C   UNL     1     -44.984  54.891 -60.094  1.00  0.00     0.080 C 
HETATM   22  O   UNL     1     -46.015  57.022 -60.498  1.00  0.00    -0.217 OA
HETATM   23  N   UNL     1     -46.001  58.344 -60.114  1.00  0.00    -0.127 NA
HETATM   24  C   UNL     1     -45.013  58.467 -59.213  1.00  0.00     0.114 A 
BRANCH  24  25
HETATM   25  C   UNL     1     -44.735  59.763 -58.602  1.00  0.00     0.018 A 
HETATM   26  C   UNL     1     -43.641  60.563 -58.968  1.00  0.00     0.046 A 
HETATM   27 CL   UNL     1     -42.538  60.122 -60.229  1.00  0.00    -0.083 Cl
HETATM   28  C   UNL     1     -43.432  61.799 -58.343  1.00  0.00     0.025 A 
HETATM   29  C   UNL     1     -44.316  62.252 -57.362  1.00  0.00     0.002 A 
HETATM   30  C   UNL     1     -45.415  61.476 -57.006  1.00  0.00     0.001 A 
HETATM   31  C   UNL     1     -45.624  60.239 -57.622  1.00  0.00     0.016 A 
ENDBRANCH  24  25
ENDBRANCH   1  19
TORSDOF 5
ENDMDL
MODEL 10
REMARK VINA RESULT:      -8.5      3.879      8.971
REMARK  5 active torsions:
REMARK  status: ('A' for Active; 'I' for Inactive)
REMARK    1  A    between atoms: C_5  and  C_6 
REMARK    2  A    between atoms: C_13  and  C_14 
REMARK       I    between atoms: C_14  and  N_15 
REMARK    3  A    between atoms: N_15  and  C_16 
REMARK    4  A    between atoms: C_19  and  C_20 
REMARK    5  A    between atoms: C_23  and  N_24 
ROOT
HETATM    1  C   UNL     1     -42.485  58.925 -57.540  1.00  0.00     0.262 C 
HETATM    2  N   UNL     1     -42.876  58.864 -56.224  1.00  0.00    -0.301 N 
HETATM    3  O   UNL     1     -41.580  58.298 -58.071  1.00  0.00    -0.267 OA
HETATM    4  H   UNL     1     -43.729  59.308 -55.926  1.00  0.00     0.171 HD
ENDROOT
BRANCH   2   5
HETATM    5  C   UNL     1     -42.243  58.091 -55.295  1.00  0.00     0.173 A 
HETATM    6  S   UNL     1     -41.649  58.982 -53.966  1.00  0.00    -0.061 SA
HETATM    7  C   UNL     1     -41.049  57.525 -53.287  1.00  0.00     0.085 A 
HETATM    8  C   UNL     1     -41.342  56.459 -54.120  1.00  0.00     0.076 A 
HETATM    9  N   UNL     1     -42.014  56.805 -55.285  1.00  0.00    -0.223 NA
BRANCH   8  10
HETATM   10  C   UNL     1     -40.959  55.076 -53.849  1.00  0.00    -0.007 A 
HETATM   11  C   UNL     1     -40.956  54.549 -52.548  1.00  0.00     0.016 A 
HETATM   12  C   UNL     1     -40.573  53.223 -52.313  1.00  0.00     0.037 A 
HETATM   13  C   UNL     1     -40.191  52.412 -53.389  1.00  0.00     0.102 A 
HETATM   14  C   UNL     1     -40.200  52.917 -54.694  1.00  0.00     0.037 A 
HETATM   15  C   UNL     1     -40.588  54.243 -54.917  1.00  0.00     0.016 A 
BRANCH  13  16
HETATM   16  N   UNL     1     -39.780  51.024 -53.143  1.00  0.00    -0.116 N 
HETATM   17  O   UNL     1     -39.780  50.246 -54.107  1.00  0.00    -0.532 OA
HETATM   18  O   UNL     1     -39.463  50.712 -51.987  1.00  0.00    -0.532 OA
ENDBRANCH  13  16
ENDBRANCH   8  10
ENDBRANCH   2   5
BRANCH   1  19
HETATM   19  C   UNL     1     -43.324  59.821 -58.315  1.00  0.00     0.095 A 
HETATM   20  C   UNL     1     -43.232  61.196 -58.380  1.00  0.00     0.093 A 
HETATM   21  C   UNL     1     -42.339  62.210 -57.784  1.00  0.00     0.080 C 
HETATM   22  O   UNL     1     -44.178  61.669 -59.232  1.00  0.00    -0.217 OA
HETATM   23  N   UNL     1     -44.894  60.617 -59.758  1.00  0.00    -0.127 NA
HETATM   24  C   UNL     1     -44.385  59.500 -59.213  1.00  0.00     0.114 A 
BRANCH  24  25
HETATM   25  C   UNL     1     -44.932  58.195 -59.571  1.00  0.00     0.018 A 
HETATM   26  C   UNL     1     -46.228  57.786 -59.220  1.00  0.00     0.046 A 
HETATM   27 CL   UNL     1     -47.339  58.815 -58.378  1.00  0.00    -0.083 Cl
HETATM   28  C   UNL     1     -46.693  56.520 -59.595  1.00  0.00     0.025 A 
HETATM   29  C   UNL     1     -45.878  55.659 -60.333  1.00  0.00     0.002 A 
HETATM   30  C   UNL     1     -44.598  56.062 -60.702  1.00  0.00     0.001 A 
HETATM   31  C   UNL     1     -44.127  57.322 -60.324  1.00  0.00     0.016 A 
ENDBRANCH  24  25
ENDBRANCH   1  19
TORSDOF 5
ENDMDL
