MODEL 1
REMARK VINA RESULT:      -9.8      0.000      0.000
REMARK  4 active torsions:
REMARK  status: ('A' for Active; 'I' for Inactive)
REMARK    1  A    between atoms: C_4  and  C_5 
REMARK    2  A    between atoms: N_8  and  C_9 
REMARK    3  A    between atoms: C_12  and  C_13 
REMARK       I    between atoms: C_13  and  N_14 
REMARK    4  A    between atoms: N_14  and  N_15 
ROOT
HETATM    1  C   UNL     1     -45.903  60.432 -51.422  1.00  0.00     0.034 A 
HETATM    2  C   UNL     1     -45.746  59.225 -50.731  1.00  0.00     0.030 A 
HETATM    3  C   UNL     1     -45.038  58.147 -51.291  1.00  0.00     0.019 A 
HETATM    4  C   UNL     1     -44.478  58.261 -52.568  1.00  0.00     0.033 A 
HETATM    5  C   UNL     1     -44.644  59.455 -53.275  1.00  0.00     0.019 A 
HETATM    6  C   UNL     1     -45.354  60.519 -52.712  1.00  0.00     0.030 A 
ENDROOT
BRANCH   4   7
HETATM    7  C   UNL     1     -43.656  57.193 -53.205  1.00  0.00     0.271 C 
HETATM    8  N   UNL     1     -43.849  55.900 -52.745  1.00  0.00    -0.242 N 
HETATM    9  H   UNL     1     -44.579  55.668 -52.072  1.00  0.00     0.192 HD
HETATM   10  O   UNL     1     -42.877  57.505 -54.104  1.00  0.00    -0.266 OA
BRANCH   8  11
HETATM   11  N   UNL     1     -43.112  54.888 -53.298  1.00  0.00    -0.166 NA
HETATM   12  C   UNL     1     -42.200  54.343 -52.562  1.00  0.00     0.157 A 
HETATM   13  C   UNL     1     -41.811  54.667 -51.120  1.00  0.00     0.277 A 
HETATM   14  C   UNL     1     -41.322  53.257 -52.980  1.00  0.00     0.027 A 
HETATM   15  O   UNL     1     -42.327  55.530 -50.440  1.00  0.00    -0.266 OA
HETATM   16  N   UNL     1     -40.794  53.790 -50.804  1.00  0.00    -0.321 N 
HETATM   17  C   UNL     1     -40.504  52.965 -51.890  1.00  0.00     0.048 A 
HETATM   18  H   UNL     1     -40.335  53.768 -49.907  1.00  0.00     0.169 HD
HETATM   19  C   UNL     1     -39.552  51.970 -51.960  1.00  0.00     0.030 A 
HETATM   20  C   UNL     1     -39.442  51.270 -53.169  1.00  0.00     0.002 A 
HETATM   21  C   UNL     1     -40.274  51.573 -54.269  1.00  0.00     0.001 A 
HETATM   22  C   UNL     1     -41.234  52.583 -54.180  1.00  0.00     0.016 A 
ENDBRANCH   8  11
ENDBRANCH   4   7
BRANCH   1  23
HETATM   23  N   UNL     1     -46.570  61.563 -50.917  1.00  0.00    -0.335 N 
HETATM   24  C   UNL     1     -46.464  62.173 -49.715  1.00  0.00     0.171 A 
HETATM   25  N   UNL     1     -45.834  61.758 -48.639  1.00  0.00    -0.223 NA
HETATM   26  S   UNL     1     -47.251  63.706 -49.525  1.00  0.00    -0.061 SA
HETATM   27  C   UNL     1     -45.937  62.685 -47.610  1.00  0.00     0.076 A 
HETATM   28  C   UNL     1     -46.678  63.807 -47.918  1.00  0.00     0.085 A 
HETATM   29  H   UNL     1     -47.099  62.069 -51.616  1.00  0.00     0.168 HD
BRANCH  27  30
HETATM   30  C   UNL     1     -45.331  62.442 -46.306  1.00  0.00    -0.007 A 
HETATM   31  C   UNL     1     -44.858  61.174 -45.933  1.00  0.00     0.014 A 
HETATM   32  C   UNL     1     -44.263  60.975 -44.683  1.00  0.00     0.001 A 
HETATM   33  C   UNL     1     -44.138  62.039 -43.793  1.00  0.00     0.000 A 
HETATM   34  C   UNL     1     -44.612  63.301 -44.146  1.00  0.00     0.001 A 
HETATM   35  C   UNL     1     -45.210  63.500 -45.394  1.00  0.00     0.014 A 
ENDBRANCH  27  30
ENDBRANCH   1  23
TORSDOF 4
ENDMDL
MODEL 2
REMARK VINA RESULT:      -9.7      5.384      9.976
REMARK  4 active torsions:
REMARK  status: ('A' for Active; 'I' for Inactive)
REMARK    1  A    between atoms: C_4  and  C_5 
REMARK    2  A    between atoms: N_8  and  C_9 
REMARK    3  A    between atoms: C_12  and  C_13 
REMARK       I    between atoms: C_13  and  N_14 
REMARK    4  A    between atoms: N_14  and  N_15 
ROOT
HETATM    1  C   UNL     1     -41.803  57.255 -50.955  1.00  0.00     0.034 A 
HETATM    2  C   UNL     1     -43.047  57.531 -51.534  1.00  0.00     0.030 A 
HETATM    3  C   UNL     1     -43.178  58.463 -52.580  1.00  0.00     0.019 A 
HETATM    4  C   UNL     1     -42.055  59.144 -53.059  1.00  0.00     0.033 A 
HETATM    5  C   UNL     1     -40.810  58.889 -52.477  1.00  0.00     0.019 A 
HETATM    6  C   UNL     1     -40.691  57.966 -51.435  1.00  0.00     0.030 A 
ENDROOT
BRANCH   4   7
HETATM    7  C   UNL     1     -42.097  60.093 -54.208  1.00  0.00     0.271 C 
HETATM    8  N   UNL     1     -41.723  59.592 -55.445  1.00  0.00    -0.242 N 
HETATM    9  H   UNL     1     -41.518  58.603 -55.588  1.00  0.00     0.192 HD
HETATM   10  O   UNL     1     -42.474  61.246 -54.007  1.00  0.00    -0.266 OA
BRANCH   8  11
HETATM   11  N   UNL     1     -41.742  60.429 -56.527  1.00  0.00    -0.166 NA
HETATM   12  C   UNL     1     -41.905  59.893 -57.692  1.00  0.00     0.157 A 
HETATM   13  C   UNL     1     -42.088  58.419 -58.054  1.00  0.00     0.277 A 
HETATM   14  C   UNL     1     -41.952  60.624 -58.953  1.00  0.00     0.027 A 
HETATM   15  O   UNL     1     -42.097  57.506 -57.254  1.00  0.00    -0.266 OA
HETATM   16  N   UNL     1     -42.232  58.389 -59.425  1.00  0.00    -0.321 N 
HETATM   17  C   UNL     1     -42.151  59.676 -59.955  1.00  0.00     0.048 A 
HETATM   18  H   UNL     1     -42.372  57.541 -59.952  1.00  0.00     0.169 HD
HETATM   19  C   UNL     1     -42.245  60.048 -61.279  1.00  0.00     0.030 A 
HETATM   20  C   UNL     1     -42.130  61.413 -61.572  1.00  0.00     0.002 A 
HETATM   21  C   UNL     1     -41.927  62.367 -60.552  1.00  0.00     0.001 A 
HETATM   22  C   UNL     1     -41.835  61.973 -59.216  1.00  0.00     0.016 A 
ENDBRANCH   8  11
ENDBRANCH   4   7
BRANCH   1  23
HETATM   23  N   UNL     1     -41.588  56.317 -49.929  1.00  0.00    -0.335 N 
HETATM   24  C   UNL     1     -41.127  55.047 -49.991  1.00  0.00     0.171 A 
HETATM   25  N   UNL     1     -40.928  54.300 -51.053  1.00  0.00    -0.223 NA
HETATM   26  S   UNL     1     -40.740  54.264 -48.494  1.00  0.00    -0.061 SA
HETATM   27  C   UNL     1     -40.420  53.056 -50.702  1.00  0.00     0.076 A 
HETATM   28  C   UNL     1     -40.257  52.863 -49.346  1.00  0.00     0.085 A 
HETATM   29  H   UNL     1     -41.656  56.709 -48.999  1.00  0.00     0.168 HD
BRANCH  27  30
HETATM   30  C   UNL     1     -40.130  52.042 -51.710  1.00  0.00    -0.007 A 
HETATM   31  C   UNL     1     -39.757  50.734 -51.359  1.00  0.00     0.014 A 
HETATM   32  C   UNL     1     -39.504  49.777 -52.347  1.00  0.00     0.001 A 
HETATM   33  C   UNL     1     -39.619  50.117 -53.693  1.00  0.00     0.000 A 
HETATM   34  C   UNL     1     -39.979  51.413 -54.055  1.00  0.00     0.001 A 
HETATM   35  C   UNL     1     -40.229  52.371 -53.068  1.00  0.00     0.014 A 
ENDBRANCH  27  30
ENDBRANCH   1  23
TORSDOF 4
ENDMDL
MODEL 3
REMARK VINA RESULT:      -9.4      2.037      2.610
REMARK  4 active torsions:
REMARK  status: ('A' for Active; 'I' for Inactive)
REMARK    1  A    between atoms: C_4  and  C_5 
REMARK    2  A    between atoms: N_8  and  C_9 
REMARK    3  A    between atoms: C_12  and  C_13 
REMARK       I    between atoms: C_13  and  N_14 
REMARK    4  A    between atoms: N_14  and  N_15 
ROOT
HETATM    1  C   UNL     1     -42.994  60.290 -52.831  1.00  0.00     0.034 A 
HETATM    2  C   UNL     1     -41.959  59.613 -52.175  1.00  0.00     0.030 A 
HETATM    3  C   UNL     1     -41.714  58.248 -52.407  1.00  0.00     0.019 A 
HETATM    4  C   UNL     1     -42.515  57.532 -53.302  1.00  0.00     0.033 A 
HETATM    5  C   UNL     1     -43.563  58.193 -53.949  1.00  0.00     0.019 A 
HETATM    6  C   UNL     1     -43.801  59.548 -53.708  1.00  0.00     0.030 A 
ENDROOT
BRANCH   4   7
HETATM    7  C   UNL     1     -42.279  56.103 -53.656  1.00  0.00     0.271 C 
HETATM    8  N   UNL     1     -41.004  55.608 -53.435  1.00  0.00    -0.242 N 
HETATM    9  H   UNL     1     -40.283  56.158 -52.969  1.00  0.00     0.192 HD
HETATM   10  O   UNL     1     -43.218  55.442 -54.098  1.00  0.00    -0.266 OA
BRANCH   8  11
HETATM   11  N   UNL     1     -40.742  54.302 -53.749  1.00  0.00    -0.166 NA
HETATM   12  C   UNL     1     -40.458  53.500 -52.775  1.00  0.00     0.157 A 
HETATM   13  C   UNL     1     -40.374  53.800 -51.279  1.00  0.00     0.277 A 
HETATM   14  C   UNL     1     -40.153  52.082 -52.918  1.00  0.00     0.027 A 
HETATM   15  O   UNL     1     -40.562  54.890 -50.779  1.00  0.00    -0.266 OA
HETATM   16  N   UNL     1     -40.052  52.601 -50.678  1.00  0.00    -0.321 N 
HETATM   17  C   UNL     1     -39.920  51.594 -51.633  1.00  0.00     0.048 A 
HETATM   18  H   UNL     1     -39.930  52.491 -49.683  1.00  0.00     0.169 HD
HETATM   19  C   UNL     1     -39.604  50.269 -51.420  1.00  0.00     0.030 A 
HETATM   20  C   UNL     1     -39.526  49.439 -52.546  1.00  0.00     0.002 A 
HETATM   21  C   UNL     1     -39.762  49.941 -53.844  1.00  0.00     0.001 A 
HETATM   22  C   UNL     1     -40.082  51.285 -54.041  1.00  0.00     0.016 A 
ENDBRANCH   8  11
ENDBRANCH   4   7
BRANCH   1  23
HETATM   23  N   UNL     1     -43.281  61.657 -52.675  1.00  0.00    -0.335 N 
HETATM   24  C   UNL     1     -43.635  62.354 -51.570  1.00  0.00     0.171 A 
HETATM   25  N   UNL     1     -43.975  61.895 -50.387  1.00  0.00    -0.223 NA
HETATM   26  S   UNL     1     -43.660  64.083 -51.690  1.00  0.00    -0.061 SA
HETATM   27  C   UNL     1     -44.246  62.933 -49.506  1.00  0.00     0.076 A 
HETATM   28  C   UNL     1     -44.126  64.195 -50.049  1.00  0.00     0.085 A 
HETATM   29  H   UNL     1     -43.047  62.218 -53.484  1.00  0.00     0.168 HD
BRANCH  27  30
HETATM   30  C   UNL     1     -44.660  62.674 -48.131  1.00  0.00    -0.007 A 
HETATM   31  C   UNL     1     -45.035  63.711 -47.263  1.00  0.00     0.014 A 
HETATM   32  C   UNL     1     -45.447  63.431 -45.956  1.00  0.00     0.001 A 
HETATM   33  C   UNL     1     -45.486  62.114 -45.504  1.00  0.00     0.000 A 
HETATM   34  C   UNL     1     -45.107  61.076 -46.352  1.00  0.00     0.001 A 
HETATM   35  C   UNL     1     -44.692  61.355 -47.657  1.00  0.00     0.014 A 
ENDBRANCH  27  30
ENDBRANCH   1  23
TORSDOF 4
ENDMDL
MODEL 4
REMARK VINA RESULT:      -9.0      2.391      3.374
REMARK  4 active torsions:
REMARK  status: ('A' for Active; 'I' for Inactive)
REMARK    1  A    between atoms: C_4  and  C_5 
REMARK    2  A    between atoms: N_8  and  C_9 
REMARK    3  A    between atoms: C_12  and  C_13 
REMARK       I    between atoms: C_13  and  N_14 
REMARK    4  A    between atoms: N_14  and  N_15 
ROOT
HETATM    1  C   UNL     1     -42.475  60.257 -51.257  1.00  0.00     0.034 A 
HETATM    2  C   UNL     1     -41.354  60.025 -50.450  1.00  0.00     0.030 A 
HETATM    3  C   UNL     1     -40.951  58.721 -50.112  1.00  0.00     0.019 A 
HETATM    4  C   UNL     1     -41.678  57.619 -50.575  1.00  0.00     0.033 A 
HETATM    5  C   UNL     1     -42.809  57.838 -51.366  1.00  0.00     0.019 A 
HETATM    6  C   UNL     1     -43.203  59.138 -51.692  1.00  0.00     0.030 A 
ENDROOT
BRANCH   4   7
HETATM    7  C   UNL     1     -41.279  56.205 -50.320  1.00  0.00     0.271 C 
HETATM    8  N   UNL     1     -41.001  55.426 -51.432  1.00  0.00    -0.242 N 
HETATM    9  H   UNL     1     -40.977  55.816 -52.374  1.00  0.00     0.192 HD
HETATM   10  O   UNL     1     -41.199  55.815 -49.157  1.00  0.00    -0.266 OA
BRANCH   8  11
HETATM   11  N   UNL     1     -40.634  54.121 -51.246  1.00  0.00    -0.166 NA
HETATM   12  C   UNL     1     -40.468  53.392 -52.301  1.00  0.00     0.157 A 
HETATM   13  C   UNL     1     -40.619  53.783 -53.771  1.00  0.00     0.277 A 
HETATM   14  C   UNL     1     -40.079  51.987 -52.298  1.00  0.00     0.027 A 
HETATM   15  O   UNL     1     -40.941  54.885 -54.165  1.00  0.00    -0.266 OA
HETATM   16  N   UNL     1     -40.316  52.646 -54.490  1.00  0.00    -0.321 N 
HETATM   17  C   UNL     1     -40.001  51.593 -53.632  1.00  0.00     0.048 A 
HETATM   18  H   UNL     1     -40.329  52.603 -55.497  1.00  0.00     0.169 HD
HETATM   19  C   UNL     1     -39.651  50.305 -53.975  1.00  0.00     0.030 A 
HETATM   20  C   UNL     1     -39.379  49.413 -52.929  1.00  0.00     0.002 A 
HETATM   21  C   UNL     1     -39.461  49.819 -51.580  1.00  0.00     0.001 A 
HETATM   22  C   UNL     1     -39.817  51.129 -51.250  1.00  0.00     0.016 A 
ENDBRANCH   8  11
ENDBRANCH   4   7
BRANCH   1  23
HETATM   23  N   UNL     1     -42.921  61.527 -51.661  1.00  0.00    -0.335 N 
HETATM   24  C   UNL     1     -43.566  62.489 -50.962  1.00  0.00     0.171 A 
HETATM   25  N   UNL     1     -44.100  62.411 -49.765  1.00  0.00    -0.223 NA
HETATM   26  S   UNL     1     -43.733  64.044 -51.710  1.00  0.00    -0.061 SA
HETATM   27  C   UNL     1     -44.651  63.627 -49.382  1.00  0.00     0.076 A 
HETATM   28  C   UNL     1     -44.543  64.629 -50.324  1.00  0.00     0.085 A 
HETATM   29  H   UNL     1     -42.577  61.809 -52.571  1.00  0.00     0.168 HD
BRANCH  27  30
HETATM   30  C   UNL     1     -45.319  63.787 -48.095  1.00  0.00    -0.007 A 
HETATM   31  C   UNL     1     -44.695  64.426 -47.011  1.00  0.00     0.014 A 
HETATM   32  C   UNL     1     -45.367  64.583 -45.795  1.00  0.00     0.001 A 
HETATM   33  C   UNL     1     -46.666  64.101 -45.648  1.00  0.00     0.000 A 
HETATM   34  C   UNL     1     -47.292  63.455 -46.713  1.00  0.00     0.001 A 
HETATM   35  C   UNL     1     -46.620  63.296 -47.927  1.00  0.00     0.014 A 
ENDBRANCH  27  30
ENDBRANCH   1  23
TORSDOF 4
ENDMDL
MODEL 5
REMARK VINA RESULT:      -8.6      3.228      5.095
REMARK  4 active torsions:
REMARK  status: ('A' for Active; 'I' for Inactive)
REMARK    1  A    between atoms: C_4  and  C_5 
REMARK    2  A    between atoms: N_8  and  C_9 
REMARK    3  A    between atoms: C_12  and  C_13 
REMARK       I    between atoms: C_13  and  N_14 
REMARK    4  A    between atoms: N_14  and  N_15 
ROOT
HETATM    1  C   UNL     1     -44.174  59.851 -51.444  1.00  0.00     0.034 A 
HETATM    2  C   UNL     1     -42.996  59.767 -52.197  1.00  0.00     0.030 A 
HETATM    3  C   UNL     1     -42.545  58.541 -52.718  1.00  0.00     0.019 A 
HETATM    4  C   UNL     1     -43.271  57.369 -52.485  1.00  0.00     0.033 A 
HETATM    5  C   UNL     1     -44.439  57.437 -51.720  1.00  0.00     0.019 A 
HETATM    6  C   UNL     1     -44.876  58.659 -51.202  1.00  0.00     0.030 A 
ENDROOT
BRANCH   4   7
HETATM    7  C   UNL     1     -42.901  56.044 -53.059  1.00  0.00     0.271 C 
HETATM    8  N   UNL     1     -41.560  55.696 -53.011  1.00  0.00    -0.242 N 
HETATM    9  H   UNL     1     -40.870  56.269 -52.527  1.00  0.00     0.192 HD
HETATM   10  O   UNL     1     -43.791  55.331 -53.519  1.00  0.00    -0.266 OA
BRANCH   8  11
HETATM   11  N   UNL     1     -41.175  54.490 -53.529  1.00  0.00    -0.166 NA
HETATM   12  C   UNL     1     -40.739  53.597 -52.702  1.00  0.00     0.157 A 
HETATM   13  C   UNL     1     -40.589  53.688 -51.183  1.00  0.00     0.277 A 
HETATM   14  C   UNL     1     -40.286  52.261 -53.070  1.00  0.00     0.027 A 
HETATM   15  O   UNL     1     -40.865  54.664 -50.517  1.00  0.00    -0.266 OA
HETATM   16  N   UNL     1     -40.095  52.463 -50.786  1.00  0.00    -0.321 N 
HETATM   17  C   UNL     1     -39.915  51.626 -51.887  1.00  0.00     0.048 A 
HETATM   18  H   UNL     1     -39.896  52.227 -49.826  1.00  0.00     0.169 HD
HETATM   19  C   UNL     1     -39.439  50.332 -51.891  1.00  0.00     0.030 A 
HETATM   20  C   UNL     1     -39.343  49.688 -53.131  1.00  0.00     0.002 A 
HETATM   21  C   UNL     1     -39.720  50.338 -54.326  1.00  0.00     0.001 A 
HETATM   22  C   UNL     1     -40.201  51.648 -54.303  1.00  0.00     0.016 A 
ENDBRANCH   8  11
ENDBRANCH   4   7
BRANCH   1  23
HETATM   23  N   UNL     1     -44.703  61.042 -50.916  1.00  0.00    -0.335 N 
HETATM   24  C   UNL     1     -45.832  61.714 -51.240  1.00  0.00     0.171 A 
HETATM   25  N   UNL     1     -46.637  61.517 -52.259  1.00  0.00    -0.223 NA
HETATM   26  S   UNL     1     -46.313  63.015 -50.200  1.00  0.00    -0.061 SA
HETATM   27  C   UNL     1     -47.707  62.401 -52.229  1.00  0.00     0.076 A 
HETATM   28  C   UNL     1     -47.688  63.292 -51.176  1.00  0.00     0.085 A 
HETATM   29  H   UNL     1     -44.237  61.356 -50.075  1.00  0.00     0.168 HD
BRANCH  27  30
HETATM   30  C   UNL     1     -48.732  62.390 -53.267  1.00  0.00    -0.007 A 
HETATM   31  C   UNL     1     -50.048  61.976 -53.005  1.00  0.00     0.014 A 
HETATM   32  C   UNL     1     -51.014  61.993 -54.015  1.00  0.00     0.001 A 
HETATM   33  C   UNL     1     -50.676  62.422 -55.297  1.00  0.00     0.000 A 
HETATM   34  C   UNL     1     -49.371  62.826 -55.573  1.00  0.00     0.001 A 
HETATM   35  C   UNL     1     -48.404  62.805 -54.565  1.00  0.00     0.014 A 
ENDBRANCH  27  30
ENDBRANCH   1  23
TORSDOF 4
ENDMDL
MODEL 6
REMARK VINA RESULT:      -8.6      3.809      5.992
REMARK  4 active torsions:
REMARK  status: ('A' for Active; 'I' for Inactive)
REMARK    1  A    between atoms: C_4  and  C_5 
REMARK    2  A    between atoms: N_8  and  C_9 
REMARK    3  A    between atoms: C_12  and  C_13 
REMARK       I    between atoms: C_13  and  N_14 
REMARK    4  A    between atoms: N_14  and  N_15 
ROOT
HETATM    1  C   UNL     1     -46.331  61.183 -52.636  1.00  0.00     0.034 A 
HETATM    2  C   UNL     1     -45.921  61.156 -53.974  1.00  0.00     0.030 A 
HETATM    3  C   UNL     1     -45.158  60.092 -54.487  1.00  0.00     0.019 A 
HETATM    4  C   UNL     1     -44.784  59.032 -53.655  1.00  0.00     0.033 A 
HETATM    5  C   UNL     1     -45.172  59.055 -52.313  1.00  0.00     0.019 A 
HETATM    6  C   UNL     1     -45.926  60.120 -51.813  1.00  0.00     0.030 A 
ENDROOT
BRANCH   4   7
HETATM    7  C   UNL     1     -44.036  57.834 -54.135  1.00  0.00     0.271 C 
HETATM    8  N   UNL     1     -44.115  56.695 -53.350  1.00  0.00    -0.242 N 
HETATM    9  H   UNL     1     -44.725  56.641 -52.534  1.00  0.00     0.192 HD
HETATM   10  O   UNL     1     -43.416  57.910 -55.194  1.00  0.00    -0.266 OA
BRANCH   8  11
HETATM   11  N   UNL     1     -43.442  55.573 -53.749  1.00  0.00    -0.166 NA
HETATM   12  C   UNL     1     -42.542  55.101 -52.950  1.00  0.00     0.157 A 
HETATM   13  C   UNL     1     -42.107  55.622 -51.581  1.00  0.00     0.277 A 
HETATM   14  C   UNL     1     -41.729  53.918 -53.206  1.00  0.00     0.027 A 
HETATM   15  O   UNL     1     -42.565  56.605 -51.036  1.00  0.00    -0.266 OA
HETATM   16  N   UNL     1     -41.128  54.752 -51.147  1.00  0.00    -0.321 N 
HETATM   17  C   UNL     1     -40.903  53.756 -52.095  1.00  0.00     0.048 A 
HETATM   18  H   UNL     1     -40.652  54.845 -50.263  1.00  0.00     0.169 HD
HETATM   19  C   UNL     1     -40.004  52.713 -52.023  1.00  0.00     0.030 A 
HETATM   20  C   UNL     1     -39.954  51.831 -53.110  1.00  0.00     0.002 A 
HETATM   21  C   UNL     1     -40.793  52.003 -54.232  1.00  0.00     0.001 A 
HETATM   22  C   UNL     1     -41.700  53.064 -54.288  1.00  0.00     0.016 A 
ENDBRANCH   8  11
ENDBRANCH   4   7
BRANCH   1  23
HETATM   23  N   UNL     1     -47.119  62.195 -52.060  1.00  0.00    -0.335 N 
HETATM   24  C   UNL     1     -48.426  62.494 -52.243  1.00  0.00     0.171 A 
HETATM   25  N   UNL     1     -49.255  62.020 -53.145  1.00  0.00    -0.223 NA
HETATM   26  S   UNL     1     -49.138  63.652 -51.168  1.00  0.00    -0.061 SA
HETATM   27  C   UNL     1     -50.526  62.557 -52.988  1.00  0.00     0.076 A 
HETATM   28  C   UNL     1     -50.642  63.468 -51.959  1.00  0.00     0.085 A 
HETATM   29  H   UNL     1     -46.668  62.674 -51.291  1.00  0.00     0.168 HD
BRANCH  27  30
HETATM   30  C   UNL     1     -51.620  62.195 -53.883  1.00  0.00    -0.007 A 
HETATM   31  C   UNL     1     -51.449  61.271 -54.926  1.00  0.00     0.014 A 
HETATM   32  C   UNL     1     -52.520  60.929 -55.756  1.00  0.00     0.001 A 
HETATM   33  C   UNL     1     -53.772  61.507 -55.555  1.00  0.00     0.000 A 
HETATM   34  C   UNL     1     -53.952  62.433 -54.529  1.00  0.00     0.001 A 
HETATM   35  C   UNL     1     -52.881  62.778 -53.701  1.00  0.00     0.014 A 
ENDBRANCH  27  30
ENDBRANCH   1  23
TORSDOF 4
ENDMDL
MODEL 7
REMARK VINA RESULT:      -8.6      6.158      8.410
REMARK  4 active torsions:
REMARK  status: ('A' for Active; 'I' for Inactive)
REMARK    1  A    between atoms: C_4  and  C_5 
REMARK    2  A    between atoms: N_8  and  C_9 
REMARK    3  A    between atoms: C_12  and  C_13 
REMARK       I    between atoms: C_13  and  N_14 
REMARK    4  A    between atoms: N_14  and  N_15 
ROOT
HETATM    1  C   UNL     1     -43.163  59.700 -55.573  1.00  0.00     0.034 A 
HETATM    2  C   UNL     1     -42.087  59.253 -54.797  1.00  0.00     0.030 A 
HETATM    3  C   UNL     1     -41.761  57.887 -54.712  1.00  0.00     0.019 A 
HETATM    4  C   UNL     1     -42.522  56.940 -55.405  1.00  0.00     0.033 A 
HETATM    5  C   UNL     1     -43.609  57.372 -56.169  1.00  0.00     0.019 A 
HETATM    6  C   UNL     1     -43.927  58.731 -56.242  1.00  0.00     0.030 A 
ENDROOT
BRANCH   4   7
HETATM    7  C   UNL     1     -42.202  55.483 -55.425  1.00  0.00     0.271 C 
HETATM    8  N   UNL     1     -41.008  55.099 -54.837  1.00  0.00    -0.242 N 
HETATM    9  H   UNL     1     -40.415  55.759 -54.334  1.00  0.00     0.192 HD
HETATM   10  O   UNL     1     -43.011  54.709 -55.934  1.00  0.00    -0.266 OA
BRANCH   8  11
HETATM   11  N   UNL     1     -40.673  53.773 -54.836  1.00  0.00    -0.166 NA
HETATM   12  C   UNL     1     -40.446  53.216 -53.691  1.00  0.00     0.157 A 
HETATM   13  C   UNL     1     -40.502  53.836 -52.295  1.00  0.00     0.277 A 
HETATM   14  C   UNL     1     -40.079  51.819 -53.494  1.00  0.00     0.027 A 
HETATM   15  O   UNL     1     -40.772  54.996 -52.063  1.00  0.00    -0.266 OA
HETATM   16  N   UNL     1     -40.191  52.814 -51.422  1.00  0.00    -0.321 N 
HETATM   17  C   UNL     1     -39.941  51.633 -52.120  1.00  0.00     0.048 A 
HETATM   18  H   UNL     1     -40.152  52.928 -50.421  1.00  0.00     0.169 HD
HETATM   19  C   UNL     1     -39.597  50.404 -51.598  1.00  0.00     0.030 A 
HETATM   20  C   UNL     1     -39.392  49.356 -52.505  1.00  0.00     0.002 A 
HETATM   21  C   UNL     1     -39.532  49.552 -53.895  1.00  0.00     0.001 A 
HETATM   22  C   UNL     1     -39.882  50.804 -54.407  1.00  0.00     0.016 A 
ENDBRANCH   8  11
ENDBRANCH   4   7
BRANCH   1  23
HETATM   23  N   UNL     1     -43.530  61.048 -55.730  1.00  0.00    -0.335 N 
HETATM   24  C   UNL     1     -43.116  61.966 -56.633  1.00  0.00     0.171 A 
HETATM   25  N   UNL     1     -42.124  61.879 -57.491  1.00  0.00    -0.223 NA
HETATM   26  S   UNL     1     -43.977  63.469 -56.698  1.00  0.00    -0.061 SA
HETATM   27  C   UNL     1     -42.033  63.027 -58.268  1.00  0.00     0.076 A 
HETATM   28  C   UNL     1     -42.964  63.999 -57.968  1.00  0.00     0.085 A 
HETATM   29  H   UNL     1     -44.328  61.320 -55.170  1.00  0.00     0.168 HD
BRANCH  27  30
HETATM   30  C   UNL     1     -40.998  63.176 -59.285  1.00  0.00    -0.007 A 
HETATM   31  C   UNL     1     -39.758  63.768 -58.998  1.00  0.00     0.014 A 
HETATM   32  C   UNL     1     -38.776  63.880 -59.988  1.00  0.00     0.001 A 
HETATM   33  C   UNL     1     -39.025  63.404 -61.273  1.00  0.00     0.000 A 
HETATM   34  C   UNL     1     -40.255  62.822 -61.574  1.00  0.00     0.001 A 
HETATM   35  C   UNL     1     -41.237  62.713 -60.586  1.00  0.00     0.014 A 
ENDBRANCH  27  30
ENDBRANCH   1  23
TORSDOF 4
ENDMDL
MODEL 8
REMARK VINA RESULT:      -8.6      4.124      7.023
REMARK  4 active torsions:
REMARK  status: ('A' for Active; 'I' for Inactive)
REMARK    1  A    between atoms: C_4  and  C_5 
REMARK    2  A    between atoms: N_8  and  C_9 
REMARK    3  A    between atoms: C_12  and  C_13 
REMARK       I    between atoms: C_13  and  N_14 
REMARK    4  A    between atoms: N_14  and  N_15 
ROOT
HETATM    1  C   UNL     1     -42.647  60.179 -51.604  1.00  0.00     0.034 A 
HETATM    2  C   UNL     1     -41.450  59.986 -50.905  1.00  0.00     0.030 A 
HETATM    3  C   UNL     1     -41.029  58.704 -50.511  1.00  0.00     0.019 A 
HETATM    4  C   UNL     1     -41.813  57.585 -50.808  1.00  0.00     0.033 A 
HETATM    5  C   UNL     1     -43.020  57.766 -51.490  1.00  0.00     0.019 A 
HETATM    6  C   UNL     1     -43.431  59.045 -51.872  1.00  0.00     0.030 A 
ENDROOT
BRANCH   4   7
HETATM    7  C   UNL     1     -41.406  56.186 -50.488  1.00  0.00     0.271 C 
HETATM    8  N   UNL     1     -41.083  55.370 -51.561  1.00  0.00    -0.242 N 
HETATM    9  H   UNL     1     -41.034  55.726 -52.515  1.00  0.00     0.192 HD
HETATM   10  O   UNL     1     -41.358  55.841 -49.309  1.00  0.00    -0.266 OA
BRANCH   8  11
HETATM   11  N   UNL     1     -40.708  54.078 -51.314  1.00  0.00    -0.166 NA
HETATM   12  C   UNL     1     -40.494  53.315 -52.336  1.00  0.00     0.157 A 
HETATM   13  C   UNL     1     -40.597  53.650 -53.823  1.00  0.00     0.277 A 
HETATM   14  C   UNL     1     -40.089  51.916 -52.268  1.00  0.00     0.027 A 
HETATM   15  O   UNL     1     -40.919  54.733 -54.268  1.00  0.00    -0.266 OA
HETATM   16  N   UNL     1     -40.255  52.492 -54.489  1.00  0.00    -0.321 N 
HETATM   17  C   UNL     1     -39.958  51.475 -53.583  1.00  0.00     0.048 A 
HETATM   18  H   UNL     1     -40.231  52.413 -55.495  1.00  0.00     0.169 HD
HETATM   19  C   UNL     1     -39.580  50.180 -53.866  1.00  0.00     0.030 A 
HETATM   20  C   UNL     1     -39.335  49.330 -52.780  1.00  0.00     0.002 A 
HETATM   21  C   UNL     1     -39.471  49.784 -51.450  1.00  0.00     0.001 A 
HETATM   22  C   UNL     1     -39.854  51.099 -51.181  1.00  0.00     0.016 A 
ENDBRANCH   8  11
ENDBRANCH   4   7
BRANCH   1  23
HETATM   23  N   UNL     1     -43.119  61.424 -52.056  1.00  0.00    -0.335 N 
HETATM   24  C   UNL     1     -43.241  61.905 -53.315  1.00  0.00     0.171 A 
HETATM   25  N   UNL     1     -42.783  61.394 -54.435  1.00  0.00    -0.223 NA
HETATM   26  S   UNL     1     -44.108  63.392 -53.520  1.00  0.00    -0.061 SA
HETATM   27  C   UNL     1     -43.140  62.176 -55.525  1.00  0.00     0.076 A 
HETATM   28  C   UNL     1     -43.863  63.307 -55.209  1.00  0.00     0.085 A 
HETATM   29  H   UNL     1     -43.562  61.978 -51.335  1.00  0.00     0.168 HD
BRANCH  27  30
HETATM   30  C   UNL     1     -42.732  61.822 -56.880  1.00  0.00    -0.007 A 
HETATM   31  C   UNL     1     -42.842  62.727 -57.948  1.00  0.00     0.014 A 
HETATM   32  C   UNL     1     -42.425  62.367 -59.232  1.00  0.00     0.001 A 
HETATM   33  C   UNL     1     -41.897  61.098 -59.465  1.00  0.00     0.000 A 
HETATM   34  C   UNL     1     -41.792  60.187 -58.416  1.00  0.00     0.001 A 
HETATM   35  C   UNL     1     -42.212  60.545 -57.132  1.00  0.00     0.014 A 
ENDBRANCH  27  30
ENDBRANCH   1  23
TORSDOF 4
ENDMDL
MODEL 9
REMARK VINA RESULT:      -8.3      3.656      5.187
REMARK  4 active torsions:
REMARK  status: ('A' for Active; 'I' for Inactive)
REMARK    1  A    between atoms: C_4  and  C_5 
REMARK    2  A    between atoms: N_8  and  C_9 
REMARK    3  A    between atoms: C_12  and  C_13 
REMARK       I    between atoms: C_13  and  N_14 
REMARK    4  A    between atoms: N_14  and  N_15 
ROOT
HETATM    1  C   UNL     1     -44.700  60.740 -52.775  1.00  0.00     0.034 A 
HETATM    2  C   UNL     1     -44.154  60.614 -51.492  1.00  0.00     0.030 A 
HETATM    3  C   UNL     1     -43.764  59.364 -50.980  1.00  0.00     0.019 A 
HETATM    4  C   UNL     1     -43.923  58.209 -51.752  1.00  0.00     0.033 A 
HETATM    5  C   UNL     1     -44.483  58.319 -53.028  1.00  0.00     0.019 A 
HETATM    6  C   UNL     1     -44.872  59.566 -53.525  1.00  0.00     0.030 A 
ENDROOT
BRANCH   4   7
HETATM    7  C   UNL     1     -43.471  56.857 -51.313  1.00  0.00     0.271 C 
HETATM    8  N   UNL     1     -42.112  56.598 -51.388  1.00  0.00    -0.242 N 
HETATM    9  H   UNL     1     -41.438  57.320 -51.643  1.00  0.00     0.192 HD
HETATM   10  O   UNL     1     -44.311  56.062 -50.893  1.00  0.00    -0.266 OA
BRANCH   8  11
HETATM   11  N   UNL     1     -41.654  55.370 -50.999  1.00  0.00    -0.166 NA
HETATM   12  C   UNL     1     -41.180  54.592 -51.917  1.00  0.00     0.157 A 
HETATM   13  C   UNL     1     -41.047  54.849 -53.418  1.00  0.00     0.277 A 
HETATM   14  C   UNL     1     -40.649  53.253 -51.691  1.00  0.00     0.027 A 
HETATM   15  O   UNL     1     -41.396  55.867 -53.980  1.00  0.00    -0.266 OA
HETATM   16  N   UNL     1     -40.470  53.710 -53.939  1.00  0.00    -0.321 N 
HETATM   17  C   UNL     1     -40.237  52.774 -52.933  1.00  0.00     0.048 A 
HETATM   18  H   UNL     1     -40.258  53.590 -54.918  1.00  0.00     0.169 HD
HETATM   19  C   UNL     1     -39.679  51.520 -53.063  1.00  0.00     0.030 A 
HETATM   20  C   UNL     1     -39.547  50.752 -51.899  1.00  0.00     0.002 A 
HETATM   21  C   UNL     1     -39.967  51.244 -50.645  1.00  0.00     0.001 A 
HETATM   22  C   UNL     1     -40.529  52.517 -50.531  1.00  0.00     0.016 A 
ENDBRANCH   8  11
ENDBRANCH   4   7
BRANCH   1  23
HETATM   23  N   UNL     1     -45.085  61.957 -53.365  1.00  0.00    -0.335 N 
HETATM   24  C   UNL     1     -46.285  62.581 -53.374  1.00  0.00     0.171 A 
HETATM   25  N   UNL     1     -47.450  62.120 -52.978  1.00  0.00    -0.223 NA
HETATM   26  S   UNL     1     -46.337  64.204 -53.981  1.00  0.00    -0.061 SA
HETATM   27  C   UNL     1     -48.443  63.079 -53.123  1.00  0.00     0.076 A 
HETATM   28  C   UNL     1     -48.014  64.275 -53.660  1.00  0.00     0.085 A 
HETATM   29  H   UNL     1     -44.308  62.506 -53.710  1.00  0.00     0.168 HD
BRANCH  27  30
HETATM   30  C   UNL     1     -49.829  62.798 -52.765  1.00  0.00    -0.007 A 
HETATM   31  C   UNL     1     -50.454  63.423 -51.674  1.00  0.00     0.014 A 
HETATM   32  C   UNL     1     -51.790  63.149 -51.366  1.00  0.00     0.001 A 
HETATM   33  C   UNL     1     -52.514  62.246 -52.142  1.00  0.00     0.000 A 
HETATM   34  C   UNL     1     -51.903  61.611 -53.221  1.00  0.00     0.001 A 
HETATM   35  C   UNL     1     -50.566  61.882 -53.528  1.00  0.00     0.014 A 
ENDBRANCH  27  30
ENDBRANCH   1  23
TORSDOF 4
ENDMDL
MODEL 10
REMARK VINA RESULT:      -8.3      6.603      8.497
REMARK  4 active torsions:
REMARK  status: ('A' for Active; 'I' for Inactive)
REMARK    1  A    between atoms: C_4  and  C_5 
REMARK    2  A    between atoms: N_8  and  C_9 
REMARK    3  A    between atoms: C_12  and  C_13 
REMARK       I    between atoms: C_13  and  N_14 
REMARK    4  A    between atoms: N_14  and  N_15 
ROOT
HETATM    1  C   UNL     1     -46.639  59.035 -60.055  1.00  0.00     0.034 A 
HETATM    2  C   UNL     1     -46.877  57.659 -60.154  1.00  0.00     0.030 A 
HETATM    3  C   UNL     1     -45.952  56.718 -59.667  1.00  0.00     0.019 A 
HETATM    4  C   UNL     1     -44.760  57.147 -59.075  1.00  0.00     0.033 A 
HETATM    5  C   UNL     1     -44.503  58.518 -58.987  1.00  0.00     0.019 A 
HETATM    6  C   UNL     1     -45.426  59.444 -59.479  1.00  0.00     0.030 A 
ENDROOT
BRANCH   4   7
HETATM    7  C   UNL     1     -43.760  56.219 -58.472  1.00  0.00     0.271 C 
HETATM    8  N   UNL     1     -43.615  56.268 -57.095  1.00  0.00    -0.242 N 
HETATM    9  H   UNL     1     -44.222  56.840 -56.507  1.00  0.00     0.192 HD
HETATM   10  O   UNL     1     -43.142  55.456 -59.212  1.00  0.00    -0.266 OA
BRANCH   8  11
HETATM   11  N   UNL     1     -42.707  55.437 -56.499  1.00  0.00    -0.166 NA
HETATM   12  C   UNL     1     -42.819  55.247 -55.225  1.00  0.00     0.157 A 
HETATM   13  C   UNL     1     -43.849  55.825 -54.255  1.00  0.00     0.277 A 
HETATM   14  C   UNL     1     -41.946  54.397 -54.423  1.00  0.00     0.027 A 
HETATM   15  O   UNL     1     -44.740  56.589 -54.566  1.00  0.00    -0.266 OA
HETATM   16  N   UNL     1     -43.533  55.298 -53.020  1.00  0.00    -0.321 N 
HETATM   17  C   UNL     1     -42.420  54.464 -53.114  1.00  0.00     0.048 A 
HETATM   18  H   UNL     1     -44.048  55.504 -52.178  1.00  0.00     0.169 HD
HETATM   19  C   UNL     1     -41.807  53.762 -52.098  1.00  0.00     0.030 A 
HETATM   20  C   UNL     1     -40.692  52.985 -52.437  1.00  0.00     0.002 A 
HETATM   21  C   UNL     1     -40.217  52.923 -53.765  1.00  0.00     0.001 A 
HETATM   22  C   UNL     1     -40.851  53.640 -54.782  1.00  0.00     0.016 A 
ENDBRANCH   8  11
ENDBRANCH   4   7
BRANCH   1  23
HETATM   23  N   UNL     1     -47.527  60.034 -60.491  1.00  0.00    -0.335 N 
HETATM   24  C   UNL     1     -48.552  60.634 -59.843  1.00  0.00     0.171 A 
HETATM   25  N   UNL     1     -49.095  60.307 -58.691  1.00  0.00    -0.223 NA
HETATM   26  S   UNL     1     -49.276  62.016 -60.597  1.00  0.00    -0.061 SA
HETATM   27  C   UNL     1     -50.113  61.187 -58.350  1.00  0.00     0.076 A 
HETATM   28  C   UNL     1     -50.350  62.180 -59.278  1.00  0.00     0.085 A 
HETATM   29  H   UNL     1     -47.261  60.461 -61.369  1.00  0.00     0.168 HD
BRANCH  27  30
HETATM   30  C   UNL     1     -50.879  61.023 -57.119  1.00  0.00    -0.007 A 
HETATM   31  C   UNL     1     -50.593  61.768 -55.964  1.00  0.00     0.014 A 
HETATM   32  C   UNL     1     -51.357  61.604 -54.804  1.00  0.00     0.001 A 
HETATM   33  C   UNL     1     -52.411  60.692 -54.786  1.00  0.00     0.000 A 
HETATM   34  C   UNL     1     -52.698  59.939 -55.923  1.00  0.00     0.001 A 
HETATM   35  C   UNL     1     -51.933  60.101 -57.081  1.00  0.00     0.014 A 
ENDBRANCH  27  30
ENDBRANCH   1  23
TORSDOF 4
ENDMDL
