MODEL 1
REMARK VINA RESULT:      -6.9      0.000      0.000
REMARK  5 active torsions:
REMARK  status: ('A' for Active; 'I' for Inactive)
REMARK    1  A    between atoms: C_7  and  O_8 
REMARK    2  A    between atoms: O_8  and  C_9 
REMARK    3  A    between atoms: C_12  and  N_13 
REMARK    4  A    between atoms: N_13  and  C_16 
REMARK    5  A    between atoms: C_16  and  C_17 
ROOT
HETATM    1  C   UNL     1     -40.825  52.634 -53.908  1.00  0.00     0.028 A 
HETATM    2  C   UNL     1     -40.061  51.603 -53.369  1.00  0.00     0.062 A 
HETATM    3  C   UNL     1     -39.796  50.407 -54.102  1.00  0.00     0.101 C 
HETATM    4  N   UNL     1     -39.566  49.428 -54.678  1.00  0.00    -0.191 NA
HETATM    5  C   UNL     1     -39.555  51.768 -52.084  1.00  0.00     0.142 A 
HETATM    6  N   UNL     1     -39.753  52.872 -51.312  1.00  0.00    -0.236 NA
HETATM    7  C   UNL     1     -40.501  53.851 -51.872  1.00  0.00     0.164 A 
HETATM    8  C   UNL     1     -41.048  53.778 -53.146  1.00  0.00     0.059 A 
ENDROOT
BRANCH   7   9
HETATM    9  O   UNL     1     -40.767  55.013 -51.188  1.00  0.00    -0.329 OA
BRANCH   9  10
HETATM   10  C   UNL     1     -41.746  55.925 -51.677  1.00  0.00     0.130 C 
HETATM   11  C   UNL     1     -41.181  57.299 -52.062  1.00  0.00     0.034 C 
HETATM   12  C   UNL     1     -42.258  58.190 -52.679  1.00  0.00     0.035 C 
HETATM   13  C   UNL     1     -43.522  58.293 -51.820  1.00  0.00     0.186 C 
HETATM   14  C   UNL     1     -44.065  56.908 -51.448  1.00  0.00     0.035 C 
HETATM   15  C   UNL     1     -43.012  56.000 -50.813  1.00  0.00     0.034 C 
BRANCH  13  16
HETATM   16  N   UNL     1     -43.256  59.062 -50.558  1.00  0.00    -0.067 N 
HETATM   17  H   UNL     1     -43.986  58.829 -49.871  1.00  0.00     0.278 HD
HETATM   18  H   UNL     1     -42.374  58.762 -50.114  1.00  0.00     0.278 HD
BRANCH  16  19
HETATM   19  C   UNL     1     -43.239  60.554 -50.695  1.00  0.00     0.280 C 
BRANCH  19  20
HETATM   20  C   UNL     1     -44.328  61.190 -49.915  1.00  0.00     0.027 A 
HETATM   21  S   UNL     1     -44.333  62.876 -49.589  1.00  0.00    -0.084 SA
HETATM   22  C   UNL     1     -45.810  62.691 -48.732  1.00  0.00     0.166 A 
HETATM   23  N   UNL     1     -46.278  61.465 -48.667  1.00  0.00    -0.265 NA
HETATM   24  C   UNL     1     -45.448  60.608 -49.356  1.00  0.00     0.133 A 
ENDBRANCH  19  20
ENDBRANCH  16  19
ENDBRANCH  13  16
ENDBRANCH   9  10
ENDBRANCH   7   9
TORSDOF 5
ENDMDL
MODEL 2
REMARK VINA RESULT:      -6.9      3.303      4.716
REMARK  5 active torsions:
REMARK  status: ('A' for Active; 'I' for Inactive)
REMARK    1  A    between atoms: C_7  and  O_8 
REMARK    2  A    between atoms: O_8  and  C_9 
REMARK    3  A    between atoms: C_12  and  N_13 
REMARK    4  A    between atoms: N_13  and  C_16 
REMARK    5  A    between atoms: C_16  and  C_17 
ROOT
HETATM    1  C   UNL     1     -40.271  52.724 -53.673  1.00  0.00     0.028 A 
HETATM    2  C   UNL     1     -39.912  51.465 -53.201  1.00  0.00     0.062 A 
HETATM    3  C   UNL     1     -39.784  50.346 -54.078  1.00  0.00     0.101 C 
HETATM    4  N   UNL     1     -39.672  49.423 -54.771  1.00  0.00    -0.191 NA
HETATM    5  C   UNL     1     -39.676  51.322 -51.838  1.00  0.00     0.142 A 
HETATM    6  N   UNL     1     -39.771  52.330 -50.928  1.00  0.00    -0.236 NA
HETATM    7  C   UNL     1     -40.123  53.537 -51.427  1.00  0.00     0.164 A 
HETATM    8  C   UNL     1     -40.379  53.778 -52.771  1.00  0.00     0.059 A 
ENDROOT
BRANCH   7   9
HETATM    9  O   UNL     1     -40.249  54.631 -50.603  1.00  0.00    -0.329 OA
BRANCH   9  10
HETATM   10  C   UNL     1     -41.479  55.347 -50.545  1.00  0.00     0.130 C 
HETATM   11  C   UNL     1     -42.725  54.456 -50.658  1.00  0.00     0.034 C 
HETATM   12  C   UNL     1     -44.006  55.268 -50.480  1.00  0.00     0.035 C 
HETATM   13  C   UNL     1     -44.076  56.496 -51.394  1.00  0.00     0.186 C 
HETATM   14  C   UNL     1     -42.820  57.367 -51.263  1.00  0.00     0.035 C 
HETATM   15  C   UNL     1     -41.522  56.583 -51.453  1.00  0.00     0.034 C 
BRANCH  13  16
HETATM   16  N   UNL     1     -44.235  56.091 -52.831  1.00  0.00    -0.067 N 
HETATM   17  H   UNL     1     -43.400  55.562 -53.117  1.00  0.00     0.278 HD
HETATM   18  H   UNL     1     -45.018  55.429 -52.951  1.00  0.00     0.278 HD
BRANCH  16  19
HETATM   19  C   UNL     1     -44.404  57.213 -53.810  1.00  0.00     0.280 C 
BRANCH  19  20
HETATM   20  C   UNL     1     -43.754  56.911 -55.109  1.00  0.00     0.027 A 
HETATM   21  S   UNL     1     -43.701  58.068 -56.377  1.00  0.00    -0.084 SA
HETATM   22  C   UNL     1     -42.852  56.938 -57.352  1.00  0.00     0.166 A 
HETATM   23  N   UNL     1     -42.626  55.768 -56.799  1.00  0.00    -0.265 NA
HETATM   24  C   UNL     1     -43.120  55.753 -55.513  1.00  0.00     0.133 A 
ENDBRANCH  19  20
ENDBRANCH  16  19
ENDBRANCH  13  16
ENDBRANCH   9  10
ENDBRANCH   7   9
TORSDOF 5
ENDMDL
MODEL 3
REMARK VINA RESULT:      -6.7     16.950     19.350
REMARK  5 active torsions:
REMARK  status: ('A' for Active; 'I' for Inactive)
REMARK    1  A    between atoms: C_7  and  O_8 
REMARK    2  A    between atoms: O_8  and  C_9 
REMARK    3  A    between atoms: C_12  and  N_13 
REMARK    4  A    between atoms: N_13  and  C_16 
REMARK    5  A    between atoms: C_16  and  C_17 
ROOT
HETATM    1  C   UNL     1     -35.368  42.287 -56.963  1.00  0.00     0.028 A 
HETATM    2  C   UNL     1     -36.623  41.851 -57.377  1.00  0.00     0.062 A 
HETATM    3  C   UNL     1     -36.917  41.619 -58.754  1.00  0.00     0.101 C 
HETATM    4  N   UNL     1     -37.179  41.423 -59.867  1.00  0.00    -0.191 NA
HETATM    5  C   UNL     1     -37.596  41.643 -56.405  1.00  0.00     0.142 A 
HETATM    6  N   UNL     1     -37.407  41.834 -55.070  1.00  0.00    -0.236 NA
HETATM    7  C   UNL     1     -36.174  42.258 -54.708  1.00  0.00     0.164 A 
HETATM    8  C   UNL     1     -35.140  42.494 -55.605  1.00  0.00     0.059 A 
ENDROOT
BRANCH   7   9
HETATM    9  O   UNL     1     -35.866  42.484 -53.388  1.00  0.00    -0.329 OA
BRANCH   9  10
HETATM   10  C   UNL     1     -35.437  41.410 -52.557  1.00  0.00     0.130 C 
HETATM   11  C   UNL     1     -34.388  41.810 -51.511  1.00  0.00     0.034 C 
HETATM   12  C   UNL     1     -34.053  40.642 -50.585  1.00  0.00     0.035 C 
HETATM   13  C   UNL     1     -33.675  39.362 -51.338  1.00  0.00     0.186 C 
HETATM   14  C   UNL     1     -34.738  38.986 -52.377  1.00  0.00     0.035 C 
HETATM   15  C   UNL     1     -35.082  40.132 -53.329  1.00  0.00     0.034 C 
BRANCH  13  16
HETATM   16  N   UNL     1     -32.353  39.516 -52.034  1.00  0.00    -0.067 N 
HETATM   17  H   UNL     1     -32.388  40.360 -52.622  1.00  0.00     0.278 HD
HETATM   18  H   UNL     1     -31.592  39.696 -51.361  1.00  0.00     0.278 HD
BRANCH  16  19
HETATM   19  C   UNL     1     -31.947  38.378 -52.921  1.00  0.00     0.280 C 
BRANCH  19  20
HETATM   20  C   UNL     1     -31.507  38.852 -54.256  1.00  0.00     0.027 A 
HETATM   21  S   UNL     1     -30.440  37.925 -55.232  1.00  0.00    -0.084 SA
HETATM   22  C   UNL     1     -30.507  39.144 -56.438  1.00  0.00     0.166 A 
HETATM   23  N   UNL     1     -31.253  40.187 -56.150  1.00  0.00    -0.265 NA
HETATM   24  C   UNL     1     -31.842  40.017 -54.917  1.00  0.00     0.133 A 
ENDBRANCH  19  20
ENDBRANCH  16  19
ENDBRANCH  13  16
ENDBRANCH   9  10
ENDBRANCH   7   9
TORSDOF 5
ENDMDL
MODEL 4
REMARK VINA RESULT:      -6.6      4.309      6.112
REMARK  5 active torsions:
REMARK  status: ('A' for Active; 'I' for Inactive)
REMARK    1  A    between atoms: C_7  and  O_8 
REMARK    2  A    between atoms: O_8  and  C_9 
REMARK    3  A    between atoms: C_12  and  N_13 
REMARK    4  A    between atoms: N_13  and  C_16 
REMARK    5  A    between atoms: C_16  and  C_17 
ROOT
HETATM    1  C   UNL     1     -40.084  51.803 -51.921  1.00  0.00     0.028 A 
HETATM    2  C   UNL     1     -39.966  51.679 -53.302  1.00  0.00     0.062 A 
HETATM    3  C   UNL     1     -39.621  50.437 -53.915  1.00  0.00     0.101 C 
HETATM    4  N   UNL     1     -39.344  49.439 -54.435  1.00  0.00    -0.191 NA
HETATM    5  C   UNL     1     -40.197  52.809 -54.080  1.00  0.00     0.142 A 
HETATM    6  N   UNL     1     -40.533  54.031 -53.586  1.00  0.00    -0.236 NA
HETATM    7  C   UNL     1     -40.637  54.110 -52.240  1.00  0.00     0.164 A 
HETATM    8  C   UNL     1     -40.425  53.040 -51.380  1.00  0.00     0.059 A 
ENDROOT
BRANCH   7   9
HETATM    9  O   UNL     1     -40.972  55.295 -51.626  1.00  0.00    -0.329 OA
BRANCH   9  10
HETATM   10  C   UNL     1     -41.796  56.242 -52.298  1.00  0.00     0.130 C 
HETATM   11  C   UNL     1     -42.949  55.613 -53.094  1.00  0.00     0.034 C 
HETATM   12  C   UNL     1     -43.855  56.684 -53.698  1.00  0.00     0.035 C 
HETATM   13  C   UNL     1     -43.090  57.739 -54.504  1.00  0.00     0.186 C 
HETATM   14  C   UNL     1     -41.945  58.349 -53.689  1.00  0.00     0.035 C 
HETATM   15  C   UNL     1     -41.011  57.301 -53.085  1.00  0.00     0.034 C 
BRANCH  13  16
HETATM   16  N   UNL     1     -42.525  57.149 -55.765  1.00  0.00    -0.067 N 
HETATM   17  H   UNL     1     -41.854  57.818 -56.168  1.00  0.00     0.278 HD
HETATM   18  H   UNL     1     -41.967  56.304 -55.567  1.00  0.00     0.278 HD
BRANCH  16  19
HETATM   19  C   UNL     1     -43.521  56.824 -56.836  1.00  0.00     0.280 C 
BRANCH  19  20
HETATM   20  C   UNL     1     -42.930  56.946 -58.191  1.00  0.00     0.027 A 
HETATM   21  S   UNL     1     -42.085  58.360 -58.680  1.00  0.00    -0.084 SA
HETATM   22  C   UNL     1     -41.807  57.645 -60.216  1.00  0.00     0.166 A 
HETATM   23  N   UNL     1     -42.313  56.443 -60.382  1.00  0.00    -0.265 NA
HETATM   24  C   UNL     1     -42.936  56.031 -59.225  1.00  0.00     0.133 A 
ENDBRANCH  19  20
ENDBRANCH  16  19
ENDBRANCH  13  16
ENDBRANCH   9  10
ENDBRANCH   7   9
TORSDOF 5
ENDMDL
MODEL 5
REMARK VINA RESULT:      -6.4      2.038      2.483
REMARK  5 active torsions:
REMARK  status: ('A' for Active; 'I' for Inactive)
REMARK    1  A    between atoms: C_7  and  O_8 
REMARK    2  A    between atoms: O_8  and  C_9 
REMARK    3  A    between atoms: C_12  and  N_13 
REMARK    4  A    between atoms: N_13  and  C_16 
REMARK    5  A    between atoms: C_16  and  C_17 
ROOT
HETATM    1  C   UNL     1     -41.220  52.444 -54.386  1.00  0.00     0.028 A 
HETATM    2  C   UNL     1     -40.323  51.783 -53.552  1.00  0.00     0.062 A 
HETATM    3  C   UNL     1     -39.666  50.583 -53.962  1.00  0.00     0.101 C 
HETATM    4  N   UNL     1     -39.119  49.609 -54.272  1.00  0.00    -0.191 NA
HETATM    5  C   UNL     1     -40.078  52.326 -52.295  1.00  0.00     0.142 A 
HETATM    6  N   UNL     1     -40.654  53.464 -51.821  1.00  0.00    -0.236 NA
HETATM    7  C   UNL     1     -41.520  54.077 -52.661  1.00  0.00     0.164 A 
HETATM    8  C   UNL     1     -41.829  53.611 -53.932  1.00  0.00     0.059 A 
ENDROOT
BRANCH   7   9
HETATM    9  O   UNL     1     -42.162  55.235 -52.291  1.00  0.00    -0.329 OA
BRANCH   9  10
HETATM   10  C   UNL     1     -41.417  56.429 -52.072  1.00  0.00     0.130 C 
HETATM   11  C   UNL     1     -41.831  57.199 -50.810  1.00  0.00     0.034 C 
HETATM   12  C   UNL     1     -40.925  58.406 -50.575  1.00  0.00     0.035 C 
HETATM   13  C   UNL     1     -40.795  59.314 -51.802  1.00  0.00     0.186 C 
HETATM   14  C   UNL     1     -40.383  58.520 -53.048  1.00  0.00     0.035 C 
HETATM   15  C   UNL     1     -41.283  57.315 -53.318  1.00  0.00     0.034 C 
BRANCH  13  16
HETATM   16  N   UNL     1     -42.088  60.023 -52.088  1.00  0.00    -0.067 N 
HETATM   17  H   UNL     1     -41.913  60.753 -52.793  1.00  0.00     0.278 HD
HETATM   18  H   UNL     1     -42.774  59.392 -52.529  1.00  0.00     0.278 HD
BRANCH  16  19
HETATM   19  C   UNL     1     -42.738  60.691 -50.914  1.00  0.00     0.280 C 
BRANCH  19  20
HETATM   20  C   UNL     1     -42.882  62.153 -51.124  1.00  0.00     0.027 A 
HETATM   21  S   UNL     1     -43.419  62.796 -52.623  1.00  0.00    -0.084 SA
HETATM   22  C   UNL     1     -43.282  64.380 -51.975  1.00  0.00     0.166 A 
HETATM   23  N   UNL     1     -42.854  64.451 -50.735  1.00  0.00    -0.265 NA
HETATM   24  C   UNL     1     -42.643  63.184 -50.238  1.00  0.00     0.133 A 
ENDBRANCH  19  20
ENDBRANCH  16  19
ENDBRANCH  13  16
ENDBRANCH   9  10
ENDBRANCH   7   9
TORSDOF 5
ENDMDL
MODEL 6
REMARK VINA RESULT:      -6.3      5.797      9.092
REMARK  5 active torsions:
REMARK  status: ('A' for Active; 'I' for Inactive)
REMARK    1  A    between atoms: C_7  and  O_8 
REMARK    2  A    between atoms: O_8  and  C_9 
REMARK    3  A    between atoms: C_12  and  N_13 
REMARK    4  A    between atoms: N_13  and  C_16 
REMARK    5  A    between atoms: C_16  and  C_17 
ROOT
HETATM    1  C   UNL     1     -42.634  57.044 -60.156  1.00  0.00     0.028 A 
HETATM    2  C   UNL     1     -43.322  58.217 -59.863  1.00  0.00     0.062 A 
HETATM    3  C   UNL     1     -43.393  59.295 -60.797  1.00  0.00     0.101 C 
HETATM    4  N   UNL     1     -43.465  60.183 -61.539  1.00  0.00    -0.191 NA
HETATM    5  C   UNL     1     -43.949  58.316 -58.625  1.00  0.00     0.142 A 
HETATM    6  N   UNL     1     -43.938  57.341 -57.675  1.00  0.00    -0.236 NA
HETATM    7  C   UNL     1     -43.259  56.216 -57.997  1.00  0.00     0.164 A 
HETATM    8  C   UNL     1     -42.602  56.026 -59.206  1.00  0.00     0.059 A 
ENDROOT
BRANCH   7   9
HETATM    9  O   UNL     1     -43.180  55.163 -57.117  1.00  0.00    -0.329 OA
BRANCH   9  10
HETATM   10  C   UNL     1     -42.944  55.402 -55.733  1.00  0.00     0.130 C 
HETATM   11  C   UNL     1     -41.647  56.172 -55.445  1.00  0.00     0.034 C 
HETATM   12  C   UNL     1     -41.507  56.490 -53.958  1.00  0.00     0.035 C 
HETATM   13  C   UNL     1     -41.674  55.261 -53.059  1.00  0.00     0.186 C 
HETATM   14  C   UNL     1     -42.976  54.510 -53.367  1.00  0.00     0.035 C 
HETATM   15  C   UNL     1     -43.134  54.164 -54.847  1.00  0.00     0.034 C 
BRANCH  13  16
HETATM   16  N   UNL     1     -40.521  54.313 -53.220  1.00  0.00    -0.067 N 
HETATM   17  H   UNL     1     -40.640  53.798 -54.103  1.00  0.00     0.278 HD
HETATM   18  H   UNL     1     -39.629  54.821 -53.332  1.00  0.00     0.278 HD
BRANCH  16  19
HETATM   19  C   UNL     1     -40.357  53.294 -52.134  1.00  0.00     0.280 C 
BRANCH  19  20
HETATM   20  C   UNL     1     -40.113  51.938 -52.684  1.00  0.00     0.027 A 
HETATM   21  S   UNL     1     -39.569  50.649 -51.688  1.00  0.00    -0.084 SA
HETATM   22  C   UNL     1     -39.578  49.610 -53.055  1.00  0.00     0.166 A 
HETATM   23  N   UNL     1     -39.943  50.166 -54.188  1.00  0.00    -0.265 NA
HETATM   24  C   UNL     1     -40.268  51.488 -53.980  1.00  0.00     0.133 A 
ENDBRANCH  19  20
ENDBRANCH  16  19
ENDBRANCH  13  16
ENDBRANCH   9  10
ENDBRANCH   7   9
TORSDOF 5
ENDMDL
MODEL 7
REMARK VINA RESULT:      -6.2     17.381     19.459
REMARK  5 active torsions:
REMARK  status: ('A' for Active; 'I' for Inactive)
REMARK    1  A    between atoms: C_7  and  O_8 
REMARK    2  A    between atoms: O_8  and  C_9 
REMARK    3  A    between atoms: C_12  and  N_13 
REMARK    4  A    between atoms: N_13  and  C_16 
REMARK    5  A    between atoms: C_16  and  C_17 
ROOT
HETATM    1  C   UNL     1     -33.937  41.180 -50.890  1.00  0.00     0.028 A 
HETATM    2  C   UNL     1     -33.164  40.024 -50.834  1.00  0.00     0.062 A 
HETATM    3  C   UNL     1     -32.059  39.906 -49.937  1.00  0.00     0.101 C 
HETATM    4  N   UNL     1     -31.159  39.786 -49.216  1.00  0.00    -0.191 NA
HETATM    5  C   UNL     1     -33.497  38.974 -51.683  1.00  0.00     0.142 A 
HETATM    6  N   UNL     1     -34.532  38.995 -52.567  1.00  0.00    -0.236 NA
HETATM    7  C   UNL     1     -35.259  40.135 -52.591  1.00  0.00     0.164 A 
HETATM    8  C   UNL     1     -35.003  41.236 -51.783  1.00  0.00     0.059 A 
ENDROOT
BRANCH   7   9
HETATM    9  O   UNL     1     -36.329  40.271 -53.443  1.00  0.00    -0.329 OA
BRANCH   9  10
HETATM   10  C   UNL     1     -36.249  41.152 -54.560  1.00  0.00     0.130 C 
HETATM   11  C   UNL     1     -37.511  41.169 -55.433  1.00  0.00     0.034 C 
HETATM   12  C   UNL     1     -37.402  42.209 -56.546  1.00  0.00     0.035 C 
HETATM   13  C   UNL     1     -36.118  42.080 -57.371  1.00  0.00     0.186 C 
HETATM   14  C   UNL     1     -34.873  42.064 -56.476  1.00  0.00     0.035 C 
HETATM   15  C   UNL     1     -34.947  41.020 -55.362  1.00  0.00     0.034 C 
BRANCH  13  16
HETATM   16  N   UNL     1     -36.132  40.829 -58.200  1.00  0.00    -0.067 N 
HETATM   17  H   UNL     1     -35.241  40.763 -58.710  1.00  0.00     0.278 HD
HETATM   18  H   UNL     1     -36.158  39.984 -57.607  1.00  0.00     0.278 HD
BRANCH  16  19
HETATM   19  C   UNL     1     -37.230  40.732 -59.216  1.00  0.00     0.280 C 
BRANCH  19  20
HETATM   20  C   UNL     1     -36.952  39.683 -60.228  1.00  0.00     0.027 A 
HETATM   21  S   UNL     1     -35.764  38.471 -59.962  1.00  0.00    -0.084 SA
HETATM   22  C   UNL     1     -36.126  37.801 -61.501  1.00  0.00     0.166 A 
HETATM   23  N   UNL     1     -37.053  38.428 -62.189  1.00  0.00    -0.265 NA
HETATM   24  C   UNL     1     -37.542  39.490 -61.461  1.00  0.00     0.133 A 
ENDBRANCH  19  20
ENDBRANCH  16  19
ENDBRANCH  13  16
ENDBRANCH   9  10
ENDBRANCH   7   9
TORSDOF 5
ENDMDL
MODEL 8
REMARK VINA RESULT:      -6.1      3.745      4.825
REMARK  5 active torsions:
REMARK  status: ('A' for Active; 'I' for Inactive)
REMARK    1  A    between atoms: C_7  and  O_8 
REMARK    2  A    between atoms: O_8  and  C_9 
REMARK    3  A    between atoms: C_12  and  N_13 
REMARK    4  A    between atoms: N_13  and  C_16 
REMARK    5  A    between atoms: C_16  and  C_17 
ROOT
HETATM    1  C   UNL     1     -40.720  54.462 -51.487  1.00  0.00     0.028 A 
HETATM    2  C   UNL     1     -41.608  54.412 -50.417  1.00  0.00     0.062 A 
HETATM    3  C   UNL     1     -41.160  54.531 -49.067  1.00  0.00     0.101 C 
HETATM    4  N   UNL     1     -40.819  54.627 -47.963  1.00  0.00    -0.191 NA
HETATM    5  C   UNL     1     -42.960  54.242 -50.698  1.00  0.00     0.142 A 
HETATM    6  N   UNL     1     -43.479  54.123 -51.950  1.00  0.00    -0.236 NA
HETATM    7  C   UNL     1     -42.584  54.176 -52.963  1.00  0.00     0.164 A 
HETATM    8  C   UNL     1     -41.216  54.342 -52.783  1.00  0.00     0.059 A 
ENDROOT
BRANCH   7   9
HETATM    9  O   UNL     1     -42.991  54.067 -54.271  1.00  0.00    -0.329 OA
BRANCH   9  10
HETATM   10  C   UNL     1     -43.359  55.231 -55.007  1.00  0.00     0.130 C 
HETATM   11  C   UNL     1     -42.377  55.595 -56.129  1.00  0.00     0.034 C 
HETATM   12  C   UNL     1     -42.883  56.782 -56.946  1.00  0.00     0.035 C 
HETATM   13  C   UNL     1     -43.266  57.990 -56.084  1.00  0.00     0.186 C 
HETATM   14  C   UNL     1     -44.245  57.599 -54.970  1.00  0.00     0.035 C 
HETATM   15  C   UNL     1     -43.757  56.423 -54.126  1.00  0.00     0.034 C 
BRANCH  13  16
HETATM   16  N   UNL     1     -42.051  58.615 -55.461  1.00  0.00    -0.067 N 
HETATM   17  H   UNL     1     -41.552  57.896 -54.921  1.00  0.00     0.278 HD
HETATM   18  H   UNL     1     -41.375  58.920 -56.179  1.00  0.00     0.278 HD
BRANCH  16  19
HETATM   19  C   UNL     1     -42.312  59.762 -54.533  1.00  0.00     0.280 C 
BRANCH  19  20
HETATM   20  C   UNL     1     -41.642  59.573 -53.223  1.00  0.00     0.027 A 
HETATM   21  S   UNL     1     -42.295  60.227 -51.776  1.00  0.00    -0.084 SA
HETATM   22  C   UNL     1     -40.978  59.562 -50.898  1.00  0.00     0.166 A 
HETATM   23  N   UNL     1     -40.092  58.906 -51.614  1.00  0.00    -0.265 NA
HETATM   24  C   UNL     1     -40.475  58.892 -52.937  1.00  0.00     0.133 A 
ENDBRANCH  19  20
ENDBRANCH  16  19
ENDBRANCH  13  16
ENDBRANCH   9  10
ENDBRANCH   7   9
TORSDOF 5
ENDMDL
MODEL 9
REMARK VINA RESULT:      -6.0     17.271     20.104
REMARK  5 active torsions:
REMARK  status: ('A' for Active; 'I' for Inactive)
REMARK    1  A    between atoms: C_7  and  O_8 
REMARK    2  A    between atoms: O_8  and  C_9 
REMARK    3  A    between atoms: C_12  and  N_13 
REMARK    4  A    between atoms: N_13  and  C_16 
REMARK    5  A    between atoms: C_16  and  C_17 
ROOT
HETATM    1  C   UNL     1     -31.079  39.016 -45.181  1.00  0.00     0.028 A 
HETATM    2  C   UNL     1     -29.935  39.804 -45.258  1.00  0.00     0.062 A 
HETATM    3  C   UNL     1     -29.228  40.211 -44.086  1.00  0.00     0.101 C 
HETATM    4  N   UNL     1     -28.637  40.553 -43.150  1.00  0.00    -0.191 NA
HETATM    5  C   UNL     1     -29.489  40.188 -46.518  1.00  0.00     0.142 A 
HETATM    6  N   UNL     1     -30.095  39.846 -47.688  1.00  0.00    -0.236 NA
HETATM    7  C   UNL     1     -31.204  39.080 -47.571  1.00  0.00     0.164 A 
HETATM    8  C   UNL     1     -31.725  38.647 -46.359  1.00  0.00     0.059 A 
ENDROOT
BRANCH   7   9
HETATM    9  O   UNL     1     -31.900  38.671 -48.685  1.00  0.00    -0.329 OA
BRANCH   9  10
HETATM   10  C   UNL     1     -32.399  39.632 -49.611  1.00  0.00     0.130 C 
HETATM   11  C   UNL     1     -33.923  39.593 -49.790  1.00  0.00     0.034 C 
HETATM   12  C   UNL     1     -34.403  40.714 -50.708  1.00  0.00     0.035 C 
HETATM   13  C   UNL     1     -33.655  40.764 -52.044  1.00  0.00     0.186 C 
HETATM   14  C   UNL     1     -32.136  40.801 -51.838  1.00  0.00     0.035 C 
HETATM   15  C   UNL     1     -31.624  39.679 -50.935  1.00  0.00     0.034 C 
BRANCH  13  16
HETATM   16  N   UNL     1     -33.997  39.578 -52.899  1.00  0.00    -0.067 N 
HETATM   17  H   UNL     1     -33.310  39.514 -53.662  1.00  0.00     0.278 HD
HETATM   18  H   UNL     1     -33.892  38.695 -52.376  1.00  0.00     0.278 HD
BRANCH  16  19
HETATM   19  C   UNL     1     -35.356  39.600 -53.531  1.00  0.00     0.280 C 
BRANCH  19  20
HETATM   20  C   UNL     1     -35.466  40.662 -54.561  1.00  0.00     0.027 A 
HETATM   21  S   UNL     1     -34.178  40.999 -55.645  1.00  0.00    -0.084 SA
HETATM   22  C   UNL     1     -35.129  42.231 -56.370  1.00  0.00     0.166 A 
HETATM   23  N   UNL     1     -36.322  42.407 -55.847  1.00  0.00    -0.265 NA
HETATM   24  C   UNL     1     -36.527  41.503 -54.829  1.00  0.00     0.133 A 
ENDBRANCH  19  20
ENDBRANCH  16  19
ENDBRANCH  13  16
ENDBRANCH   9  10
ENDBRANCH   7   9
TORSDOF 5
ENDMDL
MODEL 10
REMARK VINA RESULT:      -6.0     16.869     19.492
REMARK  5 active torsions:
REMARK  status: ('A' for Active; 'I' for Inactive)
REMARK    1  A    between atoms: C_7  and  O_8 
REMARK    2  A    between atoms: O_8  and  C_9 
REMARK    3  A    between atoms: C_12  and  N_13 
REMARK    4  A    between atoms: N_13  and  C_16 
REMARK    5  A    between atoms: C_16  and  C_17 
ROOT
HETATM    1  C   UNL     1     -32.559  38.116 -47.185  1.00  0.00     0.028 A 
HETATM    2  C   UNL     1     -31.534  38.501 -46.326  1.00  0.00     0.062 A 
HETATM    3  C   UNL     1     -31.431  37.976 -45.003  1.00  0.00     0.101 C 
HETATM    4  N   UNL     1     -31.325  37.562 -43.926  1.00  0.00    -0.191 NA
HETATM    5  C   UNL     1     -30.602  39.421 -46.794  1.00  0.00     0.142 A 
HETATM    6  N   UNL     1     -30.619  39.973 -48.038  1.00  0.00    -0.236 NA
HETATM    7  C   UNL     1     -31.630  39.573 -48.843  1.00  0.00     0.164 A 
HETATM    8  C   UNL     1     -32.608  38.661 -48.466  1.00  0.00     0.059 A 
ENDROOT
BRANCH   7   9
HETATM    9  O   UNL     1     -31.749  40.062 -50.122  1.00  0.00    -0.329 OA
BRANCH   9  10
HETATM   10  C   UNL     1     -32.963  39.888 -50.846  1.00  0.00     0.130 C 
HETATM   11  C   UNL     1     -32.765  39.410 -52.291  1.00  0.00     0.034 C 
HETATM   12  C   UNL     1     -34.104  39.139 -52.975  1.00  0.00     0.035 C 
HETATM   13  C   UNL     1     -35.084  40.312 -52.872  1.00  0.00     0.186 C 
HETATM   14  C   UNL     1     -35.263  40.770 -51.420  1.00  0.00     0.035 C 
HETATM   15  C   UNL     1     -33.939  41.065 -50.715  1.00  0.00     0.034 C 
BRANCH  13  16
HETATM   16  N   UNL     1     -34.617  41.479 -53.693  1.00  0.00    -0.067 N 
HETATM   17  H   UNL     1     -33.975  42.046 -53.122  1.00  0.00     0.278 HD
HETATM   18  H   UNL     1     -34.049  41.170 -54.497  1.00  0.00     0.278 HD
BRANCH  16  19
HETATM   19  C   UNL     1     -35.691  42.398 -54.191  1.00  0.00     0.280 C 
BRANCH  19  20
HETATM   20  C   UNL     1     -36.043  42.116 -55.604  1.00  0.00     0.027 A 
HETATM   21  S   UNL     1     -34.856  41.630 -56.747  1.00  0.00    -0.084 SA
HETATM   22  C   UNL     1     -36.073  41.548 -57.955  1.00  0.00     0.166 A 
HETATM   23  N   UNL     1     -37.285  41.871 -57.562  1.00  0.00    -0.265 NA
HETATM   24  C   UNL     1     -37.278  42.176 -56.218  1.00  0.00     0.133 A 
ENDBRANCH  19  20
ENDBRANCH  16  19
ENDBRANCH  13  16
ENDBRANCH   9  10
ENDBRANCH   7   9
TORSDOF 5
ENDMDL
