MODEL 1
REMARK VINA RESULT:      -8.0      0.000      0.000
REMARK  8 active torsions:
REMARK  status: ('A' for Active; 'I' for Inactive)
REMARK    1  A    between atoms: C_2  and  C_3 
REMARK    2  A    between atoms: C_3  and  O_4 
REMARK    3  A    between atoms: O_4  and  C_5 
REMARK    4  A    between atoms: C_6  and  O_7 
REMARK    5  A    between atoms: C_11  and  C_12 
REMARK    6  A    between atoms: C_12  and  N_13 
REMARK    7  A    between atoms: N_13  and  C_14 
REMARK    8  A    between atoms: C_21  and  C_22 
REMARK       I    between atoms: C_22  and  N_23 
ROOT
HETATM    1  C   UNL     1     -42.497  55.599 -56.376  1.00  0.00     0.009 A 
HETATM    2  C   UNL     1     -43.159  55.171 -57.539  1.00  0.00     0.039 A 
HETATM    3  C   UNL     1     -43.648  56.112 -58.470  1.00  0.00     0.030 A 
HETATM    4  C   UNL     1     -43.487  57.464 -58.203  1.00  0.00     0.063 A 
HETATM    5  N   UNL     1     -44.057  58.113 -59.263  1.00  0.00    -0.277 N 
HETATM    6  H   UNL     1     -44.125  59.115 -59.404  1.00  0.00     0.189 HD
HETATM    7  N   UNL     1     -44.587  57.301 -60.194  1.00  0.00    -0.168 NA
HETATM    8  C   UNL     1     -44.343  56.060 -59.715  1.00  0.00     0.156 A 
HETATM    9  C   UNL     1     -42.868  57.940 -57.047  1.00  0.00     0.034 A 
HETATM   10  C   UNL     1     -42.397  56.979 -56.139  1.00  0.00     0.026 A 
ENDROOT
BRANCH   1  11
HETATM   11  N   UNL     1     -42.067  54.719 -55.374  1.00  0.00    -0.289 NA
HETATM   12  H   UNL     1     -42.467  54.942 -54.466  1.00  0.00     0.128 HD
BRANCH  11  13
HETATM   13  C   UNL     1     -40.657  54.370 -55.288  1.00  0.00     0.131 C 
BRANCH  13  14
HETATM   14  C   UNL     1     -40.440  53.486 -54.081  1.00  0.00    -0.042 A 
HETATM   15  C   UNL     1     -39.914  52.198 -54.239  1.00  0.00     0.011 A 
HETATM   16  C   UNL     1     -39.696  51.376 -53.130  1.00  0.00     0.040 A 
HETATM   17  C   UNL     1     -40.013  51.825 -51.845  1.00  0.00     0.101 A 
HETATM   18  C   UNL     1     -40.592  53.096 -51.683  1.00  0.00     0.102 A 
HETATM   19  C   UNL     1     -40.787  53.925 -52.795  1.00  0.00     0.048 A 
BRANCH  17  20
HETATM   20  O   UNL     1     -39.836  51.085 -50.702  1.00  0.00    -0.353 OA
HETATM   21  C   UNL     1     -39.610  49.692 -50.865  1.00  0.00     0.210 C 
ENDBRANCH  17  20
BRANCH  18  22
HETATM   22  O   UNL     1     -40.885  53.485 -50.399  1.00  0.00    -0.348 OA
BRANCH  22  23
HETATM   23  C   UNL     1     -40.211  54.657 -49.940  1.00  0.00     0.175 C 
BRANCH  23  24
HETATM   24  C   UNL     1     -41.275  55.670 -49.524  1.00  0.00     0.022 C 
HETATM   25  C   UNL     1     -41.301  56.876 -50.445  1.00  0.00     0.007 C 
ENDBRANCH  23  24
ENDBRANCH  22  23
ENDBRANCH  18  22
ENDBRANCH  13  14
ENDBRANCH  11  13
ENDBRANCH   1  11
BRANCH   8  26
HETATM   26  C   UNL     1     -44.777  54.858 -60.441  1.00  0.00     0.270 C 
HETATM   27  N   UNL     1     -45.090  53.799 -59.635  1.00  0.00    -0.365 N 
HETATM   28  H   UNL     1     -44.999  53.910 -58.632  1.00  0.00     0.159 HD
HETATM   29  H   UNL     1     -45.385  52.928 -60.043  1.00  0.00     0.159 HD
HETATM   30  O   UNL     1     -44.859  54.776 -61.664  1.00  0.00    -0.266 OA
ENDBRANCH   8  26
TORSDOF 8
ENDMDL
MODEL 2
REMARK VINA RESULT:      -7.9      1.269      3.092
REMARK  8 active torsions:
REMARK  status: ('A' for Active; 'I' for Inactive)
REMARK    1  A    between atoms: C_2  and  C_3 
REMARK    2  A    between atoms: C_3  and  O_4 
REMARK    3  A    between atoms: O_4  and  C_5 
REMARK    4  A    between atoms: C_6  and  O_7 
REMARK    5  A    between atoms: C_11  and  C_12 
REMARK    6  A    between atoms: C_12  and  N_13 
REMARK    7  A    between atoms: N_13  and  C_14 
REMARK    8  A    between atoms: C_21  and  C_22 
REMARK       I    between atoms: C_22  and  N_23 
ROOT
HETATM    1  C   UNL     1     -42.825  55.347 -56.311  1.00  0.00     0.009 A 
HETATM    2  C   UNL     1     -43.443  54.991 -57.521  1.00  0.00     0.039 A 
HETATM    3  C   UNL     1     -43.469  55.896 -58.604  1.00  0.00     0.030 A 
HETATM    4  C   UNL     1     -42.895  57.149 -58.444  1.00  0.00     0.063 A 
HETATM    5  N   UNL     1     -43.078  57.786 -59.639  1.00  0.00    -0.277 N 
HETATM    6  H   UNL     1     -42.786  58.726 -59.884  1.00  0.00     0.189 HD
HETATM    7  N   UNL     1     -43.731  57.060 -60.564  1.00  0.00    -0.168 NA
HETATM    8  C   UNL     1     -43.982  55.889 -59.936  1.00  0.00     0.156 A 
HETATM    9  C   UNL     1     -42.299  57.562 -57.252  1.00  0.00     0.034 A 
HETATM   10  C   UNL     1     -42.296  56.643 -56.193  1.00  0.00     0.026 A 
ENDROOT
BRANCH   1  11
HETATM   11  N   UNL     1     -42.844  54.531 -55.174  1.00  0.00    -0.289 NA
HETATM   12  H   UNL     1     -43.150  53.584 -55.382  1.00  0.00     0.128 HD
BRANCH  11  13
HETATM   13  C   UNL     1     -43.423  55.041 -53.939  1.00  0.00     0.131 C 
BRANCH  13  14
HETATM   14  C   UNL     1     -42.588  54.570 -52.770  1.00  0.00    -0.042 A 
HETATM   15  C   UNL     1     -42.827  55.076 -51.487  1.00  0.00     0.011 A 
HETATM   16  C   UNL     1     -42.072  54.638 -50.395  1.00  0.00     0.040 A 
HETATM   17  C   UNL     1     -41.054  53.698 -50.573  1.00  0.00     0.101 A 
HETATM   18  C   UNL     1     -40.771  53.225 -51.867  1.00  0.00     0.102 A 
HETATM   19  C   UNL     1     -41.546  53.648 -52.954  1.00  0.00     0.048 A 
BRANCH  17  20
HETATM   20  O   UNL     1     -40.261  53.215 -49.560  1.00  0.00    -0.353 OA
HETATM   21  C   UNL     1     -40.542  53.678 -48.247  1.00  0.00     0.210 C 
ENDBRANCH  17  20
BRANCH  18  22
HETATM   22  O   UNL     1     -39.760  52.303 -51.983  1.00  0.00    -0.348 OA
BRANCH  22  23
HETATM   23  C   UNL     1     -39.506  51.828 -53.306  1.00  0.00     0.175 C 
BRANCH  23  24
HETATM   24  C   UNL     1     -39.703  50.315 -53.300  1.00  0.00     0.022 C 
HETATM   25  C   UNL     1     -39.760  49.745 -54.705  1.00  0.00     0.007 C 
ENDBRANCH  23  24
ENDBRANCH  22  23
ENDBRANCH  18  22
ENDBRANCH  13  14
ENDBRANCH  11  13
ENDBRANCH   1  11
BRANCH   8  26
HETATM   26  C   UNL     1     -44.702  54.798 -60.606  1.00  0.00     0.270 C 
HETATM   27  N   UNL     1     -45.158  53.825 -59.759  1.00  0.00    -0.365 N 
HETATM   28  H   UNL     1     -44.969  53.918 -58.768  1.00  0.00     0.159 HD
HETATM   29  H   UNL     1     -45.652  53.030 -60.129  1.00  0.00     0.159 HD
HETATM   30  O   UNL     1     -44.893  54.730 -61.817  1.00  0.00    -0.266 OA
ENDBRANCH   8  26
TORSDOF 8
ENDMDL
MODEL 3
REMARK VINA RESULT:      -7.7      2.559      9.309
REMARK  8 active torsions:
REMARK  status: ('A' for Active; 'I' for Inactive)
REMARK    1  A    between atoms: C_2  and  C_3 
REMARK    2  A    between atoms: C_3  and  O_4 
REMARK    3  A    between atoms: O_4  and  C_5 
REMARK    4  A    between atoms: C_6  and  O_7 
REMARK    5  A    between atoms: C_11  and  C_12 
REMARK    6  A    between atoms: C_12  and  N_13 
REMARK    7  A    between atoms: N_13  and  C_14 
REMARK    8  A    between atoms: C_21  and  C_22 
REMARK       I    between atoms: C_22  and  N_23 
ROOT
HETATM    1  C   UNL     1     -40.781  54.171 -54.448  1.00  0.00     0.009 A 
HETATM    2  C   UNL     1     -41.136  54.463 -53.121  1.00  0.00     0.039 A 
HETATM    3  C   UNL     1     -40.791  53.578 -52.077  1.00  0.00     0.030 A 
HETATM    4  C   UNL     1     -40.119  52.405 -52.389  1.00  0.00     0.063 A 
HETATM    5  N   UNL     1     -39.933  51.766 -51.195  1.00  0.00    -0.277 N 
HETATM    6  H   UNL     1     -39.476  50.874 -51.041  1.00  0.00     0.189 HD
HETATM    7  N   UNL     1     -40.435  52.417 -50.130  1.00  0.00    -0.168 NA
HETATM    8  C   UNL     1     -40.972  53.538 -50.662  1.00  0.00     0.156 A 
HETATM    9  C   UNL     1     -39.775  52.053 -53.695  1.00  0.00     0.034 A 
HETATM   10  C   UNL     1     -40.138  52.951 -54.709  1.00  0.00     0.026 A 
ENDROOT
BRANCH   1  11
HETATM   11  N   UNL     1     -41.171  54.963 -55.535  1.00  0.00    -0.289 NA
HETATM   12  H   UNL     1     -40.606  55.803 -55.625  1.00  0.00     0.128 HD
BRANCH  11  13
HETATM   13  C   UNL     1     -42.586  55.222 -55.758  1.00  0.00     0.131 C 
BRANCH  13  14
HETATM   14  C   UNL     1     -42.749  56.013 -57.036  1.00  0.00    -0.042 A 
HETATM   15  C   UNL     1     -42.439  57.379 -57.062  1.00  0.00     0.011 A 
HETATM   16  C   UNL     1     -42.572  58.117 -58.241  1.00  0.00     0.040 A 
HETATM   17  C   UNL     1     -43.030  57.505 -59.410  1.00  0.00     0.101 A 
HETATM   18  C   UNL     1     -43.395  56.147 -59.379  1.00  0.00     0.102 A 
HETATM   19  C   UNL     1     -43.238  55.405 -58.202  1.00  0.00     0.048 A 
BRANCH  17  20
HETATM   20  O   UNL     1     -43.194  58.154 -60.609  1.00  0.00    -0.353 OA
HETATM   21  C   UNL     1     -44.095  59.252 -60.631  1.00  0.00     0.210 C 
ENDBRANCH  17  20
BRANCH  18  22
HETATM   22  O   UNL     1     -43.840  55.598 -60.557  1.00  0.00    -0.348 OA
BRANCH  22  23
HETATM   23  C   UNL     1     -45.120  54.968 -60.500  1.00  0.00     0.175 C 
BRANCH  23  24
HETATM   24  C   UNL     1     -46.159  55.989 -60.956  1.00  0.00     0.022 C 
HETATM   25  C   UNL     1     -46.944  56.560 -59.790  1.00  0.00     0.007 C 
ENDBRANCH  23  24
ENDBRANCH  22  23
ENDBRANCH  18  22
ENDBRANCH  13  14
ENDBRANCH  11  13
ENDBRANCH   1  11
BRANCH   8  26
HETATM   26  C   UNL     1     -41.644  54.540 -49.823  1.00  0.00     0.270 C 
HETATM   27  N   UNL     1     -41.017  54.784 -48.632  1.00  0.00    -0.365 N 
HETATM   28  H   UNL     1     -40.169  54.272 -48.418  1.00  0.00     0.159 HD
HETATM   29  H   UNL     1     -41.411  55.445 -47.984  1.00  0.00     0.159 HD
HETATM   30  O   UNL     1     -42.679  55.124 -50.130  1.00  0.00    -0.266 OA
ENDBRANCH   8  26
TORSDOF 8
ENDMDL
MODEL 4
REMARK VINA RESULT:      -7.7      4.071      5.337
REMARK  8 active torsions:
REMARK  status: ('A' for Active; 'I' for Inactive)
REMARK    1  A    between atoms: C_2  and  C_3 
REMARK    2  A    between atoms: C_3  and  O_4 
REMARK    3  A    between atoms: O_4  and  C_5 
REMARK    4  A    between atoms: C_6  and  O_7 
REMARK    5  A    between atoms: C_11  and  C_12 
REMARK    6  A    between atoms: C_12  and  N_13 
REMARK    7  A    between atoms: N_13  and  C_14 
REMARK    8  A    between atoms: C_21  and  C_22 
REMARK       I    between atoms: C_22  and  N_23 
ROOT
HETATM    1  C   UNL     1     -42.176  56.621 -53.653  1.00  0.00     0.009 A 
HETATM    2  C   UNL     1     -43.246  57.159 -52.919  1.00  0.00     0.039 A 
HETATM    3  C   UNL     1     -43.116  58.409 -52.278  1.00  0.00     0.030 A 
HETATM    4  C   UNL     1     -41.906  59.084 -52.366  1.00  0.00     0.063 A 
HETATM    5  N   UNL     1     -42.084  60.238 -51.654  1.00  0.00    -0.277 N 
HETATM    6  H   UNL     1     -41.404  60.975 -51.502  1.00  0.00     0.189 HD
HETATM    7  N   UNL     1     -43.302  60.370 -51.101  1.00  0.00    -0.168 NA
HETATM    8  C   UNL     1     -43.950  59.244 -51.477  1.00  0.00     0.156 A 
HETATM    9  C   UNL     1     -40.804  58.577 -53.053  1.00  0.00     0.034 A 
HETATM   10  C   UNL     1     -40.964  57.329 -53.674  1.00  0.00     0.026 A 
ENDROOT
BRANCH   1  11
HETATM   11  N   UNL     1     -42.212  55.348 -54.235  1.00  0.00    -0.289 NA
HETATM   12  H   UNL     1     -42.750  54.684 -53.684  1.00  0.00     0.128 HD
BRANCH  11  13
HETATM   13  C   UNL     1     -40.984  54.766 -54.757  1.00  0.00     0.131 C 
BRANCH  13  14
HETATM   14  C   UNL     1     -40.524  53.667 -53.827  1.00  0.00    -0.042 A 
HETATM   15  C   UNL     1     -40.071  52.448 -54.350  1.00  0.00     0.011 A 
HETATM   16  C   UNL     1     -39.630  51.429 -53.502  1.00  0.00     0.040 A 
HETATM   17  C   UNL     1     -39.648  51.606 -52.116  1.00  0.00     0.101 A 
HETATM   18  C   UNL     1     -40.152  52.805 -51.581  1.00  0.00     0.102 A 
HETATM   19  C   UNL     1     -40.571  53.833 -52.436  1.00  0.00     0.048 A 
BRANCH  17  20
HETATM   20  O   UNL     1     -39.238  50.659 -51.210  1.00  0.00    -0.353 OA
HETATM   21  C   UNL     1     -39.851  49.381 -51.291  1.00  0.00     0.210 C 
ENDBRANCH  17  20
BRANCH  18  22
HETATM   22  O   UNL     1     -40.148  52.925 -50.213  1.00  0.00    -0.348 OA
BRANCH  22  23
HETATM   23  C   UNL     1     -39.751  54.199 -49.705  1.00  0.00     0.175 C 
BRANCH  23  24
HETATM   24  C   UNL     1     -40.982  54.855 -49.086  1.00  0.00     0.022 C 
HETATM   25  C   UNL     1     -41.356  56.143 -49.795  1.00  0.00     0.007 C 
ENDBRANCH  23  24
ENDBRANCH  22  23
ENDBRANCH  18  22
ENDBRANCH  13  14
ENDBRANCH  11  13
ENDBRANCH   1  11
BRANCH   8  26
HETATM   26  C   UNL     1     -45.337  58.984 -51.066  1.00  0.00     0.270 C 
HETATM   27  N   UNL     1     -46.194  60.024 -51.298  1.00  0.00    -0.365 N 
HETATM   28  H   UNL     1     -45.826  60.871 -51.715  1.00  0.00     0.159 HD
HETATM   29  H   UNL     1     -47.163  59.943 -51.037  1.00  0.00     0.159 HD
HETATM   30  O   UNL     1     -45.727  57.938 -50.553  1.00  0.00    -0.266 OA
ENDBRANCH   8  26
TORSDOF 8
ENDMDL
MODEL 5
REMARK VINA RESULT:      -7.5      3.707      7.815
REMARK  8 active torsions:
REMARK  status: ('A' for Active; 'I' for Inactive)
REMARK    1  A    between atoms: C_2  and  C_3 
REMARK    2  A    between atoms: C_3  and  O_4 
REMARK    3  A    between atoms: O_4  and  C_5 
REMARK    4  A    between atoms: C_6  and  O_7 
REMARK    5  A    between atoms: C_11  and  C_12 
REMARK    6  A    between atoms: C_12  and  N_13 
REMARK    7  A    between atoms: N_13  and  C_14 
REMARK    8  A    between atoms: C_21  and  C_22 
REMARK       I    between atoms: C_22  and  N_23 
ROOT
HETATM    1  C   UNL     1     -40.367  53.795 -54.313  1.00  0.00     0.009 A 
HETATM    2  C   UNL     1     -40.573  54.012 -52.940  1.00  0.00     0.039 A 
HETATM    3  C   UNL     1     -40.378  52.965 -52.014  1.00  0.00     0.030 A 
HETATM    4  C   UNL     1     -40.004  51.715 -52.485  1.00  0.00     0.063 A 
HETATM    5  N   UNL     1     -39.899  50.926 -51.374  1.00  0.00    -0.277 N 
HETATM    6  H   UNL     1     -39.646  49.944 -51.340  1.00  0.00     0.189 HD
HETATM    7  N   UNL     1     -40.182  51.551 -50.217  1.00  0.00    -0.168 NA
HETATM    8  C   UNL     1     -40.483  52.813 -50.599  1.00  0.00     0.156 A 
HETATM    9  C   UNL     1     -39.821  51.440 -53.841  1.00  0.00     0.034 A 
HETATM   10  C   UNL     1     -40.029  52.500 -54.735  1.00  0.00     0.026 A 
ENDROOT
BRANCH   1  11
HETATM   11  N   UNL     1     -40.630  54.766 -55.287  1.00  0.00    -0.289 NA
HETATM   12  H   UNL     1     -40.119  55.629 -55.122  1.00  0.00     0.128 HD
BRANCH  11  13
HETATM   13  C   UNL     1     -42.004  55.007 -55.702  1.00  0.00     0.131 C 
BRANCH  13  14
HETATM   14  C   UNL     1     -42.582  56.130 -54.872  1.00  0.00    -0.042 A 
HETATM   15  C   UNL     1     -43.939  56.122 -54.526  1.00  0.00     0.011 A 
HETATM   16  C   UNL     1     -44.482  57.147 -53.747  1.00  0.00     0.040 A 
HETATM   17  C   UNL     1     -43.679  58.205 -53.314  1.00  0.00     0.101 A 
HETATM   18  C   UNL     1     -42.328  58.250 -53.703  1.00  0.00     0.102 A 
HETATM   19  C   UNL     1     -41.783  57.208 -54.463  1.00  0.00     0.048 A 
BRANCH  17  20
HETATM   20  O   UNL     1     -44.129  59.255 -52.550  1.00  0.00    -0.353 OA
HETATM   21  C   UNL     1     -44.486  58.966 -51.206  1.00  0.00     0.210 C 
ENDBRANCH  17  20
BRANCH  18  22
HETATM   22  O   UNL     1     -41.587  59.313 -53.250  1.00  0.00    -0.348 OA
BRANCH  22  23
HETATM   23  C   UNL     1     -40.359  58.979 -52.603  1.00  0.00     0.175 C 
BRANCH  23  24
HETATM   24  C   UNL     1     -40.623  58.938 -51.100  1.00  0.00     0.022 C 
HETATM   25  C   UNL     1     -40.898  57.529 -50.610  1.00  0.00     0.007 C 
ENDBRANCH  23  24
ENDBRANCH  22  23
ENDBRANCH  18  22
ENDBRANCH  13  14
ENDBRANCH  11  13
ENDBRANCH   1  11
BRANCH   8  26
HETATM   26  C   UNL     1     -40.866  53.839 -49.620  1.00  0.00     0.270 C 
HETATM   27  N   UNL     1     -39.808  54.434 -48.990  1.00  0.00    -0.365 N 
HETATM   28  H   UNL     1     -38.870  54.132 -49.228  1.00  0.00     0.159 HD
HETATM   29  H   UNL     1     -39.972  55.141 -48.292  1.00  0.00     0.159 HD
HETATM   30  O   UNL     1     -42.023  54.159 -49.362  1.00  0.00    -0.266 OA
ENDBRANCH   8  26
TORSDOF 8
ENDMDL
MODEL 6
REMARK VINA RESULT:      -7.5      3.314      4.391
REMARK  8 active torsions:
REMARK  status: ('A' for Active; 'I' for Inactive)
REMARK    1  A    between atoms: C_2  and  C_3 
REMARK    2  A    between atoms: C_3  and  O_4 
REMARK    3  A    between atoms: O_4  and  C_5 
REMARK    4  A    between atoms: C_6  and  O_7 
REMARK    5  A    between atoms: C_11  and  C_12 
REMARK    6  A    between atoms: C_12  and  N_13 
REMARK    7  A    between atoms: N_13  and  C_14 
REMARK    8  A    between atoms: C_21  and  C_22 
REMARK       I    between atoms: C_22  and  N_23 
ROOT
HETATM    1  C   UNL     1     -41.860  56.314 -55.007  1.00  0.00     0.009 A 
HETATM    2  C   UNL     1     -42.488  56.724 -53.819  1.00  0.00     0.039 A 
HETATM    3  C   UNL     1     -43.640  57.538 -53.863  1.00  0.00     0.030 A 
HETATM    4  C   UNL     1     -44.125  57.945 -55.098  1.00  0.00     0.063 A 
HETATM    5  N   UNL     1     -45.223  58.711 -54.821  1.00  0.00    -0.277 N 
HETATM    6  H   UNL     1     -45.829  59.178 -55.486  1.00  0.00     0.189 HD
HETATM    7  N   UNL     1     -45.491  58.847 -53.510  1.00  0.00    -0.168 NA
HETATM    8  C   UNL     1     -44.518  58.128 -52.906  1.00  0.00     0.156 A 
HETATM    9  C   UNL     1     -43.518  57.594 -56.304  1.00  0.00     0.034 A 
HETATM   10  C   UNL     1     -42.371  56.789 -56.225  1.00  0.00     0.026 A 
ENDROOT
BRANCH   1  11
HETATM   11  N   UNL     1     -40.666  55.582 -55.027  1.00  0.00    -0.289 NA
HETATM   12  H   UNL     1     -39.909  56.088 -55.479  1.00  0.00     0.128 HD
BRANCH  11  13
HETATM   13  C   UNL     1     -40.697  54.177 -55.405  1.00  0.00     0.131 C 
BRANCH  13  14
HETATM   14  C   UNL     1     -40.449  53.329 -54.179  1.00  0.00    -0.042 A 
HETATM   15  C   UNL     1     -40.078  51.985 -54.318  1.00  0.00     0.011 A 
HETATM   16  C   UNL     1     -39.833  51.194 -53.192  1.00  0.00     0.040 A 
HETATM   17  C   UNL     1     -39.969  51.730 -51.909  1.00  0.00     0.101 A 
HETATM   18  C   UNL     1     -40.394  53.062 -51.760  1.00  0.00     0.102 A 
HETATM   19  C   UNL     1     -40.616  53.858 -52.891  1.00  0.00     0.048 A 
BRANCH  17  20
HETATM   20  O   UNL     1     -39.752  51.026 -50.750  1.00  0.00    -0.353 OA
HETATM   21  C   UNL     1     -39.562  49.624 -50.874  1.00  0.00     0.210 C 
ENDBRANCH  17  20
BRANCH  18  22
HETATM   22  O   UNL     1     -40.512  53.536 -50.477  1.00  0.00    -0.348 OA
BRANCH  22  23
HETATM   23  C   UNL     1     -41.678  54.316 -50.211  1.00  0.00     0.175 C 
BRANCH  23  24
HETATM   24  C   UNL     1     -41.232  55.589 -49.498  1.00  0.00     0.022 C 
HETATM   25  C   UNL     1     -40.989  56.729 -50.470  1.00  0.00     0.007 C 
ENDBRANCH  23  24
ENDBRANCH  22  23
ENDBRANCH  18  22
ENDBRANCH  13  14
ENDBRANCH  11  13
ENDBRANCH   1  11
BRANCH   8  26
HETATM   26  C   UNL     1     -44.439  58.022 -51.443  1.00  0.00     0.270 C 
HETATM   27  N   UNL     1     -43.659  58.979 -50.853  1.00  0.00    -0.365 N 
HETATM   28  H   UNL     1     -43.202  59.664 -51.445  1.00  0.00     0.159 HD
HETATM   29  H   UNL     1     -43.534  58.979 -49.855  1.00  0.00     0.159 HD
HETATM   30  O   UNL     1     -45.007  57.163 -50.775  1.00  0.00    -0.266 OA
ENDBRANCH   8  26
TORSDOF 8
ENDMDL
MODEL 7
REMARK VINA RESULT:      -7.4      4.149      6.287
REMARK  8 active torsions:
REMARK  status: ('A' for Active; 'I' for Inactive)
REMARK    1  A    between atoms: C_2  and  C_3 
REMARK    2  A    between atoms: C_3  and  O_4 
REMARK    3  A    between atoms: O_4  and  C_5 
REMARK    4  A    between atoms: C_6  and  O_7 
REMARK    5  A    between atoms: C_11  and  C_12 
REMARK    6  A    between atoms: C_12  and  N_13 
REMARK    7  A    between atoms: N_13  and  C_14 
REMARK    8  A    between atoms: C_21  and  C_22 
REMARK       I    between atoms: C_22  and  N_23 
ROOT
HETATM    1  C   UNL     1     -42.781  57.063 -53.636  1.00  0.00     0.009 A 
HETATM    2  C   UNL     1     -43.824  57.690 -52.935  1.00  0.00     0.039 A 
HETATM    3  C   UNL     1     -43.564  58.809 -52.116  1.00  0.00     0.030 A 
HETATM    4  C   UNL     1     -42.258  59.263 -51.996  1.00  0.00     0.063 A 
HETATM    5  N   UNL     1     -42.323  60.334 -51.149  1.00  0.00    -0.277 N 
HETATM    6  H   UNL     1     -41.553  60.913 -50.833  1.00  0.00     0.189 HD
HETATM    7  N   UNL     1     -43.558  60.613 -50.697  1.00  0.00    -0.168 NA
HETATM    8  C   UNL     1     -44.336  59.675 -51.285  1.00  0.00     0.156 A 
HETATM    9  C   UNL     1     -41.183  58.654 -52.644  1.00  0.00     0.034 A 
HETATM   10  C   UNL     1     -41.474  57.541 -53.445  1.00  0.00     0.026 A 
ENDROOT
BRANCH   1  11
HETATM   11  N   UNL     1     -42.960  55.898 -54.392  1.00  0.00    -0.289 NA
HETATM   12  H   UNL     1     -43.372  56.087 -55.302  1.00  0.00     0.128 HD
BRANCH  11  13
HETATM   13  C   UNL     1     -43.530  54.718 -53.760  1.00  0.00     0.131 C 
BRANCH  13  14
HETATM   14  C   UNL     1     -42.676  54.330 -52.575  1.00  0.00    -0.042 A 
HETATM   15  C   UNL     1     -43.082  54.666 -51.277  1.00  0.00     0.011 A 
HETATM   16  C   UNL     1     -42.309  54.301 -50.171  1.00  0.00     0.040 A 
HETATM   17  C   UNL     1     -41.108  53.607 -50.347  1.00  0.00     0.101 A 
HETATM   18  C   UNL     1     -40.666  53.315 -51.650  1.00  0.00     0.102 A 
HETATM   19  C   UNL     1     -41.457  53.661 -52.753  1.00  0.00     0.048 A 
BRANCH  17  20
HETATM   20  O   UNL     1     -40.285  53.213 -49.321  1.00  0.00    -0.353 OA
HETATM   21  C   UNL     1     -40.429  53.894 -48.083  1.00  0.00     0.210 C 
ENDBRANCH  17  20
BRANCH  18  22
HETATM   22  O   UNL     1     -39.480  52.633 -51.764  1.00  0.00    -0.348 OA
BRANCH  22  23
HETATM   23  C   UNL     1     -39.587  51.271 -52.177  1.00  0.00     0.175 C 
BRANCH  23  24
HETATM   24  C   UNL     1     -39.307  51.218 -53.677  1.00  0.00     0.022 C 
HETATM   25  C   UNL     1     -39.897  49.977 -54.321  1.00  0.00     0.007 C 
ENDBRANCH  23  24
ENDBRANCH  22  23
ENDBRANCH  18  22
ENDBRANCH  13  14
ENDBRANCH  11  13
ENDBRANCH   1  11
BRANCH   8  26
HETATM   26  C   UNL     1     -45.784  59.619 -51.044  1.00  0.00     0.270 C 
HETATM   27  N   UNL     1     -46.498  60.586 -51.696  1.00  0.00    -0.365 N 
HETATM   28  H   UNL     1     -45.997  61.252 -52.272  1.00  0.00     0.159 HD
HETATM   29  H   UNL     1     -47.497  60.635 -51.581  1.00  0.00     0.159 HD
HETATM   30  O   UNL     1     -46.338  58.793 -50.324  1.00  0.00    -0.266 OA
ENDBRANCH   8  26
TORSDOF 8
ENDMDL
MODEL 8
REMARK VINA RESULT:      -7.4      2.515      4.388
REMARK  8 active torsions:
REMARK  status: ('A' for Active; 'I' for Inactive)
REMARK    1  A    between atoms: C_2  and  C_3 
REMARK    2  A    between atoms: C_3  and  O_4 
REMARK    3  A    between atoms: O_4  and  C_5 
REMARK    4  A    between atoms: C_6  and  O_7 
REMARK    5  A    between atoms: C_11  and  C_12 
REMARK    6  A    between atoms: C_12  and  N_13 
REMARK    7  A    between atoms: N_13  and  C_14 
REMARK    8  A    between atoms: C_21  and  C_22 
REMARK       I    between atoms: C_22  and  N_23 
ROOT
HETATM    1  C   UNL     1     -43.177  56.312 -57.166  1.00  0.00     0.009 A 
HETATM    2  C   UNL     1     -42.787  57.658 -57.265  1.00  0.00     0.039 A 
HETATM    3  C   UNL     1     -42.403  58.201 -58.510  1.00  0.00     0.030 A 
HETATM    4  C   UNL     1     -42.392  57.376 -59.625  1.00  0.00     0.063 A 
HETATM    5  N   UNL     1     -41.979  58.170 -60.658  1.00  0.00    -0.277 N 
HETATM    6  H   UNL     1     -41.852  57.900 -61.627  1.00  0.00     0.189 HD
HETATM    7  N   UNL     1     -41.709  59.441 -60.311  1.00  0.00    -0.168 NA
HETATM    8  C   UNL     1     -41.964  59.473 -58.983  1.00  0.00     0.156 A 
HETATM    9  C   UNL     1     -42.737  56.025 -59.572  1.00  0.00     0.034 A 
HETATM   10  C   UNL     1     -43.109  55.515 -58.320  1.00  0.00     0.026 A 
ENDROOT
BRANCH   1  11
HETATM   11  N   UNL     1     -43.483  55.693 -55.948  1.00  0.00    -0.289 NA
HETATM   12  H   UNL     1     -43.330  56.307 -55.152  1.00  0.00     0.128 HD
BRANCH  11  13
HETATM   13  C   UNL     1     -43.016  54.337 -55.699  1.00  0.00     0.131 C 
BRANCH  13  14
HETATM   14  C   UNL     1     -42.568  54.225 -54.259  1.00  0.00    -0.042 A 
HETATM   15  C   UNL     1     -43.114  55.072 -53.286  1.00  0.00     0.011 A 
HETATM   16  C   UNL     1     -42.719  54.969 -51.949  1.00  0.00     0.040 A 
HETATM   17  C   UNL     1     -41.760  54.027 -51.567  1.00  0.00     0.101 A 
HETATM   18  C   UNL     1     -41.167  53.210 -52.547  1.00  0.00     0.102 A 
HETATM   19  C   UNL     1     -41.583  53.301 -53.881  1.00  0.00     0.048 A 
BRANCH  17  20
HETATM   20  O   UNL     1     -41.311  53.860 -50.280  1.00  0.00    -0.353 OA
HETATM   21  C   UNL     1     -40.508  54.899 -49.737  1.00  0.00     0.210 C 
ENDBRANCH  17  20
BRANCH  18  22
HETATM   22  O   UNL     1     -40.230  52.304 -52.115  1.00  0.00    -0.348 OA
BRANCH  22  23
HETATM   23  C   UNL     1     -39.364  51.783 -53.123  1.00  0.00     0.175 C 
BRANCH  23  24
HETATM   24  C   UNL     1     -39.628  50.284 -53.231  1.00  0.00     0.022 C 
HETATM   25  C   UNL     1     -40.141  49.895 -54.606  1.00  0.00     0.007 C 
ENDBRANCH  23  24
ENDBRANCH  22  23
ENDBRANCH  18  22
ENDBRANCH  13  14
ENDBRANCH  11  13
ENDBRANCH   1  11
BRANCH   8  26
HETATM   26  C   UNL     1     -41.782  60.701 -58.197  1.00  0.00     0.270 C 
HETATM   27  N   UNL     1     -42.952  61.299 -57.816  1.00  0.00    -0.365 N 
HETATM   28  H   UNL     1     -43.828  60.874 -58.097  1.00  0.00     0.159 HD
HETATM   29  H   UNL     1     -42.928  62.154 -57.284  1.00  0.00     0.159 HD
HETATM   30  O   UNL     1     -40.693  61.178 -57.893  1.00  0.00    -0.266 OA
ENDBRANCH   8  26
TORSDOF 8
ENDMDL
MODEL 9
REMARK VINA RESULT:      -7.3      2.686      9.078
REMARK  8 active torsions:
REMARK  status: ('A' for Active; 'I' for Inactive)
REMARK    1  A    between atoms: C_2  and  C_3 
REMARK    2  A    between atoms: C_3  and  O_4 
REMARK    3  A    between atoms: O_4  and  C_5 
REMARK    4  A    between atoms: C_6  and  O_7 
REMARK    5  A    between atoms: C_11  and  C_12 
REMARK    6  A    between atoms: C_12  and  N_13 
REMARK    7  A    between atoms: N_13  and  C_14 
REMARK    8  A    between atoms: C_21  and  C_22 
REMARK       I    between atoms: C_22  and  N_23 
ROOT
HETATM    1  C   UNL     1     -40.698  54.590 -54.333  1.00  0.00     0.009 A 
HETATM    2  C   UNL     1     -40.760  54.613 -52.930  1.00  0.00     0.039 A 
HETATM    3  C   UNL     1     -40.459  53.455 -52.182  1.00  0.00     0.030 A 
HETATM    4  C   UNL     1     -40.127  52.289 -52.858  1.00  0.00     0.063 A 
HETATM    5  N   UNL     1     -39.900  51.358 -51.883  1.00  0.00    -0.277 N 
HETATM    6  H   UNL     1     -39.636  50.387 -52.012  1.00  0.00     0.189 HD
HETATM    7  N   UNL     1     -40.064  51.813 -50.628  1.00  0.00    -0.168 NA
HETATM    8  C   UNL     1     -40.413  53.109 -50.799  1.00  0.00     0.156 A 
HETATM    9  C   UNL     1     -40.086  52.206 -54.250  1.00  0.00     0.034 A 
HETATM   10  C   UNL     1     -40.396  53.373 -54.964  1.00  0.00     0.026 A 
ENDROOT
BRANCH   1  11
HETATM   11  N   UNL     1     -41.070  55.679 -55.132  1.00  0.00    -0.289 NA
HETATM   12  H   UNL     1     -40.283  56.074 -55.640  1.00  0.00     0.128 HD
BRANCH  11  13
HETATM   13  C   UNL     1     -41.943  56.704 -54.580  1.00  0.00     0.131 C 
BRANCH  13  14
HETATM   14  C   UNL     1     -42.933  57.134 -55.638  1.00  0.00    -0.042 A 
HETATM   15  C   UNL     1     -44.184  57.641 -55.265  1.00  0.00     0.011 A 
HETATM   16  C   UNL     1     -45.103  58.054 -56.234  1.00  0.00     0.040 A 
HETATM   17  C   UNL     1     -44.791  57.953 -57.592  1.00  0.00     0.101 A 
HETATM   18  C   UNL     1     -43.559  57.395 -57.976  1.00  0.00     0.102 A 
HETATM   19  C   UNL     1     -42.632  57.004 -57.002  1.00  0.00     0.048 A 
BRANCH  17  20
HETATM   20  O   UNL     1     -45.633  58.331 -58.609  1.00  0.00    -0.353 OA
HETATM   21  C   UNL     1     -46.827  57.579 -58.771  1.00  0.00     0.210 C 
ENDBRANCH  17  20
BRANCH  18  22
HETATM   22  O   UNL     1     -43.305  57.319 -59.324  1.00  0.00    -0.348 OA
BRANCH  22  23
HETATM   23  C   UNL     1     -42.997  56.017 -59.822  1.00  0.00     0.175 C 
BRANCH  23  24
HETATM   24  C   UNL     1     -44.284  55.421 -60.388  1.00  0.00     0.022 C 
HETATM   25  C   UNL     1     -44.685  54.148 -59.667  1.00  0.00     0.007 C 
ENDBRANCH  23  24
ENDBRANCH  22  23
ENDBRANCH  18  22
ENDBRANCH  13  14
ENDBRANCH  11  13
ENDBRANCH   1  11
BRANCH   8  26
HETATM   26  C   UNL     1     -40.699  53.983 -49.653  1.00  0.00     0.270 C 
HETATM   27  N   UNL     1     -41.983  54.451 -49.613  1.00  0.00    -0.365 N 
HETATM   28  H   UNL     1     -42.622  54.178 -50.351  1.00  0.00     0.159 HD
HETATM   29  H   UNL     1     -42.269  55.069 -48.871  1.00  0.00     0.159 HD
HETATM   30  O   UNL     1     -39.881  54.290 -48.791  1.00  0.00    -0.266 OA
ENDBRANCH   8  26
TORSDOF 8
ENDMDL
MODEL 10
REMARK VINA RESULT:      -7.2      3.852      5.449
REMARK  8 active torsions:
REMARK  status: ('A' for Active; 'I' for Inactive)
REMARK    1  A    between atoms: C_2  and  C_3 
REMARK    2  A    between atoms: C_3  and  O_4 
REMARK    3  A    between atoms: O_4  and  C_5 
REMARK    4  A    between atoms: C_6  and  O_7 
REMARK    5  A    between atoms: C_11  and  C_12 
REMARK    6  A    between atoms: C_12  and  N_13 
REMARK    7  A    between atoms: N_13  and  C_14 
REMARK    8  A    between atoms: C_21  and  C_22 
REMARK       I    between atoms: C_22  and  N_23 
ROOT
HETATM    1  C   UNL     1     -41.125  55.626 -54.819  1.00  0.00     0.009 A 
HETATM    2  C   UNL     1     -40.613  56.491 -53.837  1.00  0.00     0.039 A 
HETATM    3  C   UNL     1     -41.065  57.825 -53.755  1.00  0.00     0.030 A 
HETATM    4  C   UNL     1     -42.003  58.273 -54.674  1.00  0.00     0.063 A 
HETATM    5  N   UNL     1     -42.233  59.581 -54.348  1.00  0.00    -0.277 N 
HETATM    6  H   UNL     1     -42.863  60.226 -54.811  1.00  0.00     0.189 HD
HETATM    7  N   UNL     1     -41.519  60.028 -53.300  1.00  0.00    -0.168 NA
HETATM    8  C   UNL     1     -40.789  58.953 -52.925  1.00  0.00     0.156 A 
HETATM    9  C   UNL     1     -42.515  57.464 -55.688  1.00  0.00     0.034 A 
HETATM   10  C   UNL     1     -42.042  56.145 -55.747  1.00  0.00     0.026 A 
ENDROOT
BRANCH   1  11
HETATM   11  N   UNL     1     -40.654  54.321 -55.008  1.00  0.00    -0.289 NA
HETATM   12  H   UNL     1     -40.429  54.128 -55.981  1.00  0.00     0.128 HD
BRANCH  11  13
HETATM   13  C   UNL     1     -41.349  53.212 -54.370  1.00  0.00     0.131 C 
BRANCH  13  14
HETATM   14  C   UNL     1     -41.369  53.436 -52.876  1.00  0.00    -0.042 A 
HETATM   15  C   UNL     1     -40.253  53.097 -52.100  1.00  0.00     0.011 A 
HETATM   16  C   UNL     1     -40.254  53.312 -50.719  1.00  0.00     0.040 A 
HETATM   17  C   UNL     1     -41.377  53.855 -50.089  1.00  0.00     0.101 A 
HETATM   18  C   UNL     1     -42.521  54.147 -50.853  1.00  0.00     0.102 A 
HETATM   19  C   UNL     1     -42.507  53.952 -52.240  1.00  0.00     0.048 A 
BRANCH  17  20
HETATM   20  O   UNL     1     -41.466  54.096 -48.740  1.00  0.00    -0.353 OA
HETATM   21  C   UNL     1     -40.272  53.966 -47.982  1.00  0.00     0.210 C 
ENDBRANCH  17  20
BRANCH  18  22
HETATM   22  O   UNL     1     -43.596  54.677 -50.183  1.00  0.00    -0.348 OA
BRANCH  22  23
HETATM   23  C   UNL     1     -44.291  55.724 -50.860  1.00  0.00     0.175 C 
BRANCH  23  24
HETATM   24  C   UNL     1     -43.343  56.915 -50.970  1.00  0.00     0.022 C 
HETATM   25  C   UNL     1     -44.053  58.163 -51.460  1.00  0.00     0.007 C 
ENDBRANCH  23  24
ENDBRANCH  22  23
ENDBRANCH  18  22
ENDBRANCH  13  14
ENDBRANCH  11  13
ENDBRANCH   1  11
BRANCH   8  26
HETATM   26  C   UNL     1     -39.849  59.019 -51.798  1.00  0.00     0.270 C 
HETATM   27  N   UNL     1     -38.564  59.319 -52.157  1.00  0.00    -0.365 N 
HETATM   28  H   UNL     1     -38.357  59.462 -53.139  1.00  0.00     0.159 HD
HETATM   29  H   UNL     1     -37.846  59.373 -51.454  1.00  0.00     0.159 HD
HETATM   30  O   UNL     1     -40.155  58.826 -50.624  1.00  0.00    -0.266 OA
ENDBRANCH   8  26
TORSDOF 8
ENDMDL
