MODEL 1
REMARK VINA RESULT:      -8.0      0.000      0.000
REMARK  8 active torsions:
REMARK  status: ('A' for Active; 'I' for Inactive)
REMARK    1  A    between atoms: C_4  and  N_5 
REMARK       I    between atoms: N_5  and  C_6 
REMARK    2  A    between atoms: C_6  and  C_7 
REMARK    3  A    between atoms: C_7  and  N_8 
REMARK    4  A    between atoms: N_8  and  C_10 
REMARK    5  A    between atoms: N_8  and  C_13 
REMARK    6  A    between atoms: C_13  and  C_14 
REMARK    7  A    between atoms: C_16  and  C_17 
REMARK    8  A    between atoms: C_27  and  O_28 
ROOT
HETATM    1  N   UNL     1     -41.938  57.256 -50.585  1.00  0.00    -0.055 N 
HETATM    2  H   UNL     1     -42.330  57.291 -49.632  1.00  0.00     0.281 HD
ENDROOT
BRANCH   1   3
HETATM    3  C   UNL     1     -41.923  58.742 -51.013  1.00  0.00     0.338 C 
BRANCH   3   4
HETATM    4  C   UNL     1     -40.621  59.128 -51.719  1.00  0.00     0.248 C 
HETATM    5  N   UNL     1     -40.499  58.919 -53.059  1.00  0.00    -0.323 N 
HETATM    6  H   UNL     1     -39.805  59.502 -53.525  1.00  0.00     0.169 HD
HETATM    7  O   UNL     1     -39.741  59.727 -51.093  1.00  0.00    -0.271 OA
BRANCH   5   8
HETATM    8  C   UNL     1     -41.211  58.059 -53.918  1.00  0.00     0.069 A 
HETATM    9  C   UNL     1     -40.848  56.721 -54.113  1.00  0.00     0.039 A 
HETATM   10  C   UNL     1     -41.550  55.920 -55.022  1.00  0.00    -0.060 A 
HETATM   11  C   UNL     1     -41.110  54.512 -55.304  1.00  0.00     0.048 C 
HETATM   12  C   UNL     1     -42.608  56.478 -55.747  1.00  0.00     0.009 A 
HETATM   13  C   UNL     1     -42.965  57.819 -55.572  1.00  0.00     0.039 A 
HETATM   14  C   UNL     1     -42.266  58.618 -54.668  1.00  0.00     0.095 A 
BRANCH  14  15
HETATM   15  O   UNL     1     -42.530  59.943 -54.416  1.00  0.00    -0.354 OA
HETATM   16  C   UNL     1     -43.900  60.317 -54.306  1.00  0.00     0.210 C 
ENDBRANCH  14  15
ENDBRANCH   5   8
ENDBRANCH   3   4
ENDBRANCH   1   3
BRANCH   1  17
HETATM   17  C   UNL     1     -42.945  56.447 -51.362  1.00  0.00     0.189 A 
HETATM   18  C   UNL     1     -44.179  55.977 -50.642  1.00  0.00     0.035 A 
HETATM   19  C   UNL     1     -44.292  56.997 -51.736  1.00  0.00     0.035 A 
ENDBRANCH   1  17
BRANCH   1  20
HETATM   20  C   UNL     1     -40.564  56.657 -50.464  1.00  0.00     0.274 C 
BRANCH  20  21
HETATM   21  C   UNL     1     -40.550  55.200 -50.083  1.00  0.00    -0.032 A 
HETATM   22  C   UNL     1     -40.322  54.209 -51.054  1.00  0.00     0.021 A 
HETATM   23  C   UNL     1     -40.302  52.842 -50.720  1.00  0.00    -0.024 A 
HETATM   24  C   UNL     1     -40.526  52.490 -49.381  1.00  0.00     0.012 A 
HETATM   25  C   UNL     1     -40.755  53.462 -48.406  1.00  0.00     0.001 A 
HETATM   26  C   UNL     1     -40.765  54.811 -48.754  1.00  0.00     0.009 A 
BRANCH  23  27
HETATM   27  C   UNL     1     -40.044  51.817 -51.743  1.00  0.00    -0.008 A 
HETATM   28  C   UNL     1     -39.734  50.498 -51.404  1.00  0.00     0.128 A 
HETATM   29  N   UNL     1     -39.462  49.513 -52.292  1.00  0.00    -0.272 NA
HETATM   30  C   UNL     1     -39.522  49.840 -53.598  1.00  0.00     0.116 A 
HETATM   31  C   UNL     1     -39.832  51.110 -54.054  1.00  0.00     0.020 A 
HETATM   32  C   UNL     1     -40.093  52.105 -53.113  1.00  0.00     0.015 A 
ENDBRANCH  23  27
ENDBRANCH  20  21
ENDBRANCH   1  20
TORSDOF 8
ENDMDL
MODEL 2
REMARK VINA RESULT:      -7.9      2.210      3.838
REMARK  8 active torsions:
REMARK  status: ('A' for Active; 'I' for Inactive)
REMARK    1  A    between atoms: C_4  and  N_5 
REMARK       I    between atoms: N_5  and  C_6 
REMARK    2  A    between atoms: C_6  and  C_7 
REMARK    3  A    between atoms: C_7  and  N_8 
REMARK    4  A    between atoms: N_8  and  C_10 
REMARK    5  A    between atoms: N_8  and  C_13 
REMARK    6  A    between atoms: C_13  and  C_14 
REMARK    7  A    between atoms: C_16  and  C_17 
REMARK    8  A    between atoms: C_27  and  O_28 
ROOT
HETATM    1  N   UNL     1     -41.896  57.821 -51.440  1.00  0.00    -0.055 N 
HETATM    2  H   UNL     1     -41.384  58.034 -52.310  1.00  0.00     0.281 HD
ENDROOT
BRANCH   1   3
HETATM    3  C   UNL     1     -43.252  58.533 -51.646  1.00  0.00     0.338 C 
BRANCH   3   4
HETATM    4  C   UNL     1     -44.415  57.544 -51.754  1.00  0.00     0.248 C 
HETATM    5  N   UNL     1     -44.707  56.984 -52.961  1.00  0.00    -0.323 N 
HETATM    6  H   UNL     1     -45.213  56.100 -52.915  1.00  0.00     0.169 HD
HETATM    7  O   UNL     1     -45.001  57.177 -50.732  1.00  0.00    -0.271 OA
BRANCH   5   8
HETATM    8  C   UNL     1     -44.382  57.403 -54.266  1.00  0.00     0.069 A 
HETATM    9  C   UNL     1     -44.539  58.728 -54.691  1.00  0.00     0.039 A 
HETATM   10  C   UNL     1     -44.259  59.086 -56.016  1.00  0.00    -0.060 A 
HETATM   11  C   UNL     1     -44.512  60.484 -56.503  1.00  0.00     0.048 C 
HETATM   12  C   UNL     1     -43.837  58.100 -56.914  1.00  0.00     0.009 A 
HETATM   13  C   UNL     1     -43.695  56.772 -56.501  1.00  0.00     0.039 A 
HETATM   14  C   UNL     1     -43.975  56.413 -55.183  1.00  0.00     0.095 A 
BRANCH  14  15
HETATM   15  O   UNL     1     -43.870  55.142 -54.671  1.00  0.00    -0.354 OA
HETATM   16  C   UNL     1     -43.477  54.113 -55.574  1.00  0.00     0.210 C 
ENDBRANCH  14  15
ENDBRANCH   5   8
ENDBRANCH   3   4
ENDBRANCH   1   3
BRANCH   1  17
HETATM   17  C   UNL     1     -41.065  58.471 -50.364  1.00  0.00     0.189 A 
HETATM   18  C   UNL     1     -39.783  59.144 -50.772  1.00  0.00     0.035 A 
HETATM   19  C   UNL     1     -40.928  59.963 -50.254  1.00  0.00     0.035 A 
ENDBRANCH   1  17
BRANCH   1  20
HETATM   20  C   UNL     1     -42.014  56.323 -51.366  1.00  0.00     0.274 C 
BRANCH  20  21
HETATM   21  C   UNL     1     -41.326  55.586 -52.484  1.00  0.00    -0.032 A 
HETATM   22  C   UNL     1     -41.036  54.215 -52.365  1.00  0.00     0.021 A 
HETATM   23  C   UNL     1     -40.396  53.506 -53.398  1.00  0.00    -0.024 A 
HETATM   24  C   UNL     1     -40.042  54.211 -54.558  1.00  0.00     0.012 A 
HETATM   25  C   UNL     1     -40.322  55.572 -54.690  1.00  0.00     0.001 A 
HETATM   26  C   UNL     1     -40.963  56.257 -53.660  1.00  0.00     0.009 A 
BRANCH  23  27
HETATM   27  C   UNL     1     -40.115  52.068 -53.267  1.00  0.00    -0.008 A 
HETATM   28  C   UNL     1     -39.773  51.491 -52.042  1.00  0.00     0.128 A 
HETATM   29  N   UNL     1     -39.479  50.183 -51.857  1.00  0.00    -0.272 NA
HETATM   30  C   UNL     1     -39.547  49.386 -52.942  1.00  0.00     0.116 A 
HETATM   31  C   UNL     1     -39.888  49.841 -54.203  1.00  0.00     0.020 A 
HETATM   32  C   UNL     1     -40.171  51.197 -54.364  1.00  0.00     0.015 A 
ENDBRANCH  23  27
ENDBRANCH  20  21
ENDBRANCH   1  20
TORSDOF 8
ENDMDL
MODEL 3
REMARK VINA RESULT:      -7.9      2.103      3.411
REMARK  8 active torsions:
REMARK  status: ('A' for Active; 'I' for Inactive)
REMARK    1  A    between atoms: C_4  and  N_5 
REMARK       I    between atoms: N_5  and  C_6 
REMARK    2  A    between atoms: C_6  and  C_7 
REMARK    3  A    between atoms: C_7  and  N_8 
REMARK    4  A    between atoms: N_8  and  C_10 
REMARK    5  A    between atoms: N_8  and  C_13 
REMARK    6  A    between atoms: C_13  and  C_14 
REMARK    7  A    between atoms: C_16  and  C_17 
REMARK    8  A    between atoms: C_27  and  O_28 
ROOT
HETATM    1  N   UNL     1     -41.822  57.777 -51.530  1.00  0.00    -0.055 N 
HETATM    2  H   UNL     1     -41.331  57.970 -52.416  1.00  0.00     0.281 HD
ENDROOT
BRANCH   1   3
HETATM    3  C   UNL     1     -43.131  58.589 -51.670  1.00  0.00     0.338 C 
BRANCH   3   4
HETATM    4  C   UNL     1     -44.371  57.691 -51.664  1.00  0.00     0.248 C 
HETATM    5  N   UNL     1     -44.846  57.199 -52.841  1.00  0.00    -0.323 N 
HETATM    6  H   UNL     1     -45.410  56.353 -52.759  1.00  0.00     0.169 HD
HETATM    7  O   UNL     1     -44.858  57.330 -50.588  1.00  0.00    -0.271 OA
BRANCH   5   8
HETATM    8  C   UNL     1     -44.647  57.642 -54.164  1.00  0.00     0.069 A 
HETATM    9  C   UNL     1     -43.957  56.882 -55.115  1.00  0.00     0.039 A 
HETATM   10  C   UNL     1     -43.732  57.389 -56.401  1.00  0.00    -0.060 A 
HETATM   11  C   UNL     1     -42.913  56.620 -57.398  1.00  0.00     0.048 C 
HETATM   12  C   UNL     1     -44.191  58.672 -56.718  1.00  0.00     0.009 A 
HETATM   13  C   UNL     1     -44.866  59.444 -55.767  1.00  0.00     0.039 A 
HETATM   14  C   UNL     1     -45.089  58.941 -54.486  1.00  0.00     0.095 A 
BRANCH  14  15
HETATM   15  O   UNL     1     -45.739  59.609 -53.476  1.00  0.00    -0.354 OA
HETATM   16  C   UNL     1     -45.640  61.031 -53.477  1.00  0.00     0.210 C 
ENDBRANCH  14  15
ENDBRANCH   5   8
ENDBRANCH   3   4
ENDBRANCH   1   3
BRANCH   1  17
HETATM   17  C   UNL     1     -40.906  58.347 -50.477  1.00  0.00     0.189 A 
HETATM   18  C   UNL     1     -39.681  59.089 -50.935  1.00  0.00     0.035 A 
HETATM   19  C   UNL     1     -40.787  59.825 -50.238  1.00  0.00     0.035 A 
ENDBRANCH   1  17
BRANCH   1  20
HETATM   20  C   UNL     1     -42.045  56.291 -51.475  1.00  0.00     0.274 C 
BRANCH  20  21
HETATM   21  C   UNL     1     -41.378  55.519 -52.583  1.00  0.00    -0.032 A 
HETATM   22  C   UNL     1     -41.056  54.160 -52.414  1.00  0.00     0.021 A 
HETATM   23  C   UNL     1     -40.435  53.419 -53.436  1.00  0.00    -0.024 A 
HETATM   24  C   UNL     1     -40.135  54.078 -54.637  1.00  0.00     0.012 A 
HETATM   25  C   UNL     1     -40.447  55.427 -54.818  1.00  0.00     0.001 A 
HETATM   26  C   UNL     1     -41.067  56.144 -53.798  1.00  0.00     0.009 A 
BRANCH  23  27
HETATM   27  C   UNL     1     -40.121  51.993 -53.252  1.00  0.00    -0.008 A 
HETATM   28  C   UNL     1     -39.769  51.469 -52.006  1.00  0.00     0.128 A 
HETATM   29  N   UNL     1     -39.445  50.176 -51.772  1.00  0.00    -0.272 NA
HETATM   30  C   UNL     1     -39.491  49.339 -52.828  1.00  0.00     0.116 A 
HETATM   31  C   UNL     1     -39.839  49.740 -54.106  1.00  0.00     0.020 A 
HETATM   32  C   UNL     1     -40.153  51.082 -54.316  1.00  0.00     0.015 A 
ENDBRANCH  23  27
ENDBRANCH  20  21
ENDBRANCH   1  20
TORSDOF 8
ENDMDL
MODEL 4
REMARK VINA RESULT:      -7.9      1.545      4.478
REMARK  8 active torsions:
REMARK  status: ('A' for Active; 'I' for Inactive)
REMARK    1  A    between atoms: C_4  and  N_5 
REMARK       I    between atoms: N_5  and  C_6 
REMARK    2  A    between atoms: C_6  and  C_7 
REMARK    3  A    between atoms: C_7  and  N_8 
REMARK    4  A    between atoms: N_8  and  C_10 
REMARK    5  A    between atoms: N_8  and  C_13 
REMARK    6  A    between atoms: C_13  and  C_14 
REMARK    7  A    between atoms: C_16  and  C_17 
REMARK    8  A    between atoms: C_27  and  O_28 
ROOT
HETATM    1  N   UNL     1     -41.960  58.661 -54.534  1.00  0.00    -0.055 N 
HETATM    2  H   UNL     1     -42.885  58.245 -54.348  1.00  0.00     0.281 HD
ENDROOT
BRANCH   1   3
HETATM    3  C   UNL     1     -41.860  59.784 -53.476  1.00  0.00     0.338 C 
BRANCH   3   4
HETATM    4  C   UNL     1     -43.145  59.921 -52.655  1.00  0.00     0.248 C 
HETATM    5  N   UNL     1     -43.344  59.103 -51.584  1.00  0.00    -0.323 N 
HETATM    6  H   UNL     1     -43.994  59.460 -50.884  1.00  0.00     0.169 HD
HETATM    7  O   UNL     1     -43.930  60.841 -52.899  1.00  0.00    -0.271 OA
BRANCH   5   8
HETATM    8  C   UNL     1     -42.762  57.861 -51.261  1.00  0.00     0.069 A 
HETATM    9  C   UNL     1     -43.400  56.642 -51.519  1.00  0.00     0.039 A 
HETATM   10  C   UNL     1     -42.809  55.435 -51.126  1.00  0.00    -0.060 A 
HETATM   11  C   UNL     1     -43.528  54.130 -51.316  1.00  0.00     0.048 C 
HETATM   12  C   UNL     1     -41.581  55.463 -50.458  1.00  0.00     0.009 A 
HETATM   13  C   UNL     1     -40.946  56.678 -50.180  1.00  0.00     0.039 A 
HETATM   14  C   UNL     1     -41.534  57.881 -50.570  1.00  0.00     0.095 A 
BRANCH  14  15
HETATM   15  O   UNL     1     -41.001  59.129 -50.351  1.00  0.00    -0.354 OA
HETATM   16  C   UNL     1     -39.624  59.307 -50.672  1.00  0.00     0.210 C 
ENDBRANCH  14  15
ENDBRANCH   5   8
ENDBRANCH   3   4
ENDBRANCH   1   3
BRANCH   1  17
HETATM   17  C   UNL     1     -42.083  59.204 -55.936  1.00  0.00     0.189 A 
HETATM   18  C   UNL     1     -43.463  59.435 -56.484  1.00  0.00     0.035 A 
HETATM   19  C   UNL     1     -42.561  60.602 -56.210  1.00  0.00     0.035 A 
ENDBRANCH   1  17
BRANCH   1  20
HETATM   20  C   UNL     1     -40.948  57.566 -54.339  1.00  0.00     0.274 C 
BRANCH  20  21
HETATM   21  C   UNL     1     -41.483  56.175 -54.558  1.00  0.00    -0.032 A 
HETATM   22  C   UNL     1     -40.831  55.062 -53.999  1.00  0.00     0.021 A 
HETATM   23  C   UNL     1     -41.314  53.754 -54.189  1.00  0.00    -0.024 A 
HETATM   24  C   UNL     1     -42.471  53.587 -54.965  1.00  0.00     0.012 A 
HETATM   25  C   UNL     1     -43.129  54.683 -55.526  1.00  0.00     0.001 A 
HETATM   26  C   UNL     1     -42.640  55.971 -55.323  1.00  0.00     0.009 A 
BRANCH  23  27
HETATM   27  C   UNL     1     -40.631  52.600 -53.584  1.00  0.00    -0.008 A 
HETATM   28  C   UNL     1     -40.392  51.425 -54.300  1.00  0.00     0.128 A 
HETATM   29  N   UNL     1     -39.793  50.319 -53.799  1.00  0.00    -0.272 NA
HETATM   30  C   UNL     1     -39.382  50.381 -52.517  1.00  0.00     0.116 A 
HETATM   31  C   UNL     1     -39.551  51.495 -51.714  1.00  0.00     0.020 A 
HETATM   32  C   UNL     1     -40.185  52.613 -52.256  1.00  0.00     0.015 A 
ENDBRANCH  23  27
ENDBRANCH  20  21
ENDBRANCH   1  20
TORSDOF 8
ENDMDL
MODEL 5
REMARK VINA RESULT:      -7.7      1.374      2.161
REMARK  8 active torsions:
REMARK  status: ('A' for Active; 'I' for Inactive)
REMARK    1  A    between atoms: C_4  and  N_5 
REMARK       I    between atoms: N_5  and  C_6 
REMARK    2  A    between atoms: C_6  and  C_7 
REMARK    3  A    between atoms: C_7  and  N_8 
REMARK    4  A    between atoms: N_8  and  C_10 
REMARK    5  A    between atoms: N_8  and  C_13 
REMARK    6  A    between atoms: C_13  and  C_14 
REMARK    7  A    between atoms: C_16  and  C_17 
REMARK    8  A    between atoms: C_27  and  O_28 
ROOT
HETATM    1  N   UNL     1     -41.993  57.602 -51.348  1.00  0.00    -0.055 N 
HETATM    2  H   UNL     1     -41.461  57.392 -52.207  1.00  0.00     0.281 HD
ENDROOT
BRANCH   1   3
HETATM    3  C   UNL     1     -42.952  58.728 -51.797  1.00  0.00     0.338 C 
BRANCH   3   4
HETATM    4  C   UNL     1     -42.513  59.372 -53.114  1.00  0.00     0.248 C 
HETATM    5  N   UNL     1     -42.506  58.627 -54.254  1.00  0.00    -0.323 N 
HETATM    6  H   UNL     1     -42.567  59.162 -55.119  1.00  0.00     0.169 HD
HETATM    7  O   UNL     1     -42.280  60.584 -53.153  1.00  0.00    -0.271 OA
BRANCH   5   8
HETATM    8  C   UNL     1     -42.475  57.230 -54.432  1.00  0.00     0.069 A 
HETATM    9  C   UNL     1     -41.282  56.521 -54.616  1.00  0.00     0.039 A 
HETATM   10  C   UNL     1     -41.305  55.140 -54.849  1.00  0.00    -0.060 A 
HETATM   11  C   UNL     1     -40.037  54.389 -55.138  1.00  0.00     0.048 C 
HETATM   12  C   UNL     1     -42.537  54.481 -54.913  1.00  0.00     0.009 A 
HETATM   13  C   UNL     1     -43.734  55.185 -54.749  1.00  0.00     0.039 A 
HETATM   14  C   UNL     1     -43.712  56.560 -54.518  1.00  0.00     0.095 A 
BRANCH  14  15
HETATM   15  O   UNL     1     -44.824  57.349 -54.342  1.00  0.00    -0.354 OA
HETATM   16  C   UNL     1     -45.489  57.797 -55.519  1.00  0.00     0.210 C 
ENDBRANCH  14  15
ENDBRANCH   5   8
ENDBRANCH   3   4
ENDBRANCH   1   3
BRANCH   1  17
HETATM   17  C   UNL     1     -40.943  58.094 -50.385  1.00  0.00     0.189 A 
HETATM   18  C   UNL     1     -39.737  58.793 -50.951  1.00  0.00     0.035 A 
HETATM   19  C   UNL     1     -40.726  59.558 -50.121  1.00  0.00     0.035 A 
ENDBRANCH   1  17
BRANCH   1  20
HETATM   20  C   UNL     1     -42.701  56.334 -50.959  1.00  0.00     0.274 C 
BRANCH  20  21
HETATM   21  C   UNL     1     -41.799  55.256 -50.418  1.00  0.00    -0.032 A 
HETATM   22  C   UNL     1     -41.449  54.150 -51.214  1.00  0.00     0.021 A 
HETATM   23  C   UNL     1     -40.607  53.133 -50.730  1.00  0.00    -0.024 A 
HETATM   24  C   UNL     1     -40.126  53.246 -49.417  1.00  0.00     0.012 A 
HETATM   25  C   UNL     1     -40.466  54.337 -48.615  1.00  0.00     0.001 A 
HETATM   26  C   UNL     1     -41.296  55.339 -49.113  1.00  0.00     0.009 A 
BRANCH  23  27
HETATM   27  C   UNL     1     -40.235  51.990 -51.579  1.00  0.00    -0.008 A 
HETATM   28  C   UNL     1     -39.858  50.759 -51.038  1.00  0.00     0.128 A 
HETATM   29  N   UNL     1     -39.481  49.678 -51.759  1.00  0.00    -0.272 NA
HETATM   30  C   UNL     1     -39.497  49.808 -53.101  1.00  0.00     0.116 A 
HETATM   31  C   UNL     1     -39.865  50.973 -53.750  1.00  0.00     0.020 A 
HETATM   32  C   UNL     1     -40.234  52.074 -52.978  1.00  0.00     0.015 A 
ENDBRANCH  23  27
ENDBRANCH  20  21
ENDBRANCH   1  20
TORSDOF 8
ENDMDL
MODEL 6
REMARK VINA RESULT:      -7.7      1.901      4.148
REMARK  8 active torsions:
REMARK  status: ('A' for Active; 'I' for Inactive)
REMARK    1  A    between atoms: C_4  and  N_5 
REMARK       I    between atoms: N_5  and  C_6 
REMARK    2  A    between atoms: C_6  and  C_7 
REMARK    3  A    between atoms: C_7  and  N_8 
REMARK    4  A    between atoms: N_8  and  C_10 
REMARK    5  A    between atoms: N_8  and  C_13 
REMARK    6  A    between atoms: C_13  and  C_14 
REMARK    7  A    between atoms: C_16  and  C_17 
REMARK    8  A    between atoms: C_27  and  O_28 
ROOT
HETATM    1  N   UNL     1     -41.050  56.771 -50.834  1.00  0.00    -0.055 N 
HETATM    2  H   UNL     1     -40.123  56.426 -51.126  1.00  0.00     0.281 HD
ENDROOT
BRANCH   1   3
HETATM    3  C   UNL     1     -40.807  58.280 -50.602  1.00  0.00     0.338 C 
BRANCH   3   4
HETATM    4  C   UNL     1     -40.774  59.068 -51.914  1.00  0.00     0.248 C 
HETATM    5  N   UNL     1     -41.734  60.004 -52.157  1.00  0.00    -0.323 N 
HETATM    6  H   UNL     1     -41.474  60.725 -52.828  1.00  0.00     0.169 HD
HETATM    7  O   UNL     1     -39.819  58.933 -52.684  1.00  0.00    -0.271 OA
BRANCH   5   8
HETATM    8  C   UNL     1     -43.017  60.164 -51.595  1.00  0.00     0.069 A 
HETATM    9  C   UNL     1     -43.221  60.771 -50.350  1.00  0.00     0.039 A 
HETATM   10  C   UNL     1     -44.509  60.855 -49.806  1.00  0.00    -0.060 A 
HETATM   11  C   UNL     1     -44.725  61.421 -48.431  1.00  0.00     0.048 C 
HETATM   12  C   UNL     1     -45.585  60.310 -50.513  1.00  0.00     0.009 A 
HETATM   13  C   UNL     1     -45.386  59.686 -51.748  1.00  0.00     0.039 A 
HETATM   14  C   UNL     1     -44.105  59.601 -52.292  1.00  0.00     0.095 A 
BRANCH  14  15
HETATM   15  O   UNL     1     -43.794  59.013 -53.494  1.00  0.00    -0.354 OA
HETATM   16  C   UNL     1     -44.755  58.113 -54.039  1.00  0.00     0.210 C 
ENDBRANCH  14  15
ENDBRANCH   5   8
ENDBRANCH   3   4
ENDBRANCH   1   3
BRANCH   1  17
HETATM   17  C   UNL     1     -41.322  56.031 -49.549  1.00  0.00     0.189 A 
HETATM   18  C   UNL     1     -41.968  54.676 -49.638  1.00  0.00     0.035 A 
HETATM   19  C   UNL     1     -40.552  54.802 -49.158  1.00  0.00     0.035 A 
ENDBRANCH   1  17
BRANCH   1  20
HETATM   20  C   UNL     1     -41.993  56.486 -51.970  1.00  0.00     0.274 C 
BRANCH  20  21
HETATM   21  C   UNL     1     -41.430  55.585 -53.037  1.00  0.00    -0.032 A 
HETATM   22  C   UNL     1     -41.056  54.263 -52.733  1.00  0.00     0.021 A 
HETATM   23  C   UNL     1     -40.531  53.403 -53.715  1.00  0.00    -0.024 A 
HETATM   24  C   UNL     1     -40.380  53.905 -55.016  1.00  0.00     0.012 A 
HETATM   25  C   UNL     1     -40.746  55.215 -55.332  1.00  0.00     0.001 A 
HETATM   26  C   UNL     1     -41.270  56.051 -54.349  1.00  0.00     0.009 A 
BRANCH  23  27
HETATM   27  C   UNL     1     -40.160  52.017 -53.387  1.00  0.00    -0.008 A 
HETATM   28  C   UNL     1     -39.802  51.636 -52.092  1.00  0.00     0.128 A 
HETATM   29  N   UNL     1     -39.427  50.387 -51.728  1.00  0.00    -0.272 NA
HETATM   30  C   UNL     1     -39.428  49.447 -52.694  1.00  0.00     0.116 A 
HETATM   31  C   UNL     1     -39.777  49.704 -54.008  1.00  0.00     0.020 A 
HETATM   32  C   UNL     1     -40.144  51.004 -54.355  1.00  0.00     0.015 A 
ENDBRANCH  23  27
ENDBRANCH  20  21
ENDBRANCH   1  20
TORSDOF 8
ENDMDL
MODEL 7
REMARK VINA RESULT:      -7.6      2.972      4.304
REMARK  8 active torsions:
REMARK  status: ('A' for Active; 'I' for Inactive)
REMARK    1  A    between atoms: C_4  and  N_5 
REMARK       I    between atoms: N_5  and  C_6 
REMARK    2  A    between atoms: C_6  and  C_7 
REMARK    3  A    between atoms: C_7  and  N_8 
REMARK    4  A    between atoms: N_8  and  C_10 
REMARK    5  A    between atoms: N_8  and  C_13 
REMARK    6  A    between atoms: C_13  and  C_14 
REMARK    7  A    between atoms: C_16  and  C_17 
REMARK    8  A    between atoms: C_27  and  O_28 
ROOT
HETATM    1  N   UNL     1     -42.569  56.911 -53.863  1.00  0.00    -0.055 N 
HETATM    2  H   UNL     1     -41.647  56.515 -54.100  1.00  0.00     0.281 HD
ENDROOT
BRANCH   1   3
HETATM    3  C   UNL     1     -43.381  56.718 -55.164  1.00  0.00     0.338 C 
BRANCH   3   4
HETATM    4  C   UNL     1     -42.881  55.528 -55.986  1.00  0.00     0.248 C 
HETATM    5  N   UNL     1     -42.464  55.728 -57.268  1.00  0.00    -0.323 N 
HETATM    6  H   UNL     1     -41.824  55.021 -57.629  1.00  0.00     0.169 HD
HETATM    7  O   UNL     1     -42.750  54.425 -55.447  1.00  0.00    -0.271 OA
BRANCH   5   8
HETATM    8  C   UNL     1     -42.738  56.780 -58.164  1.00  0.00     0.069 A 
HETATM    9  C   UNL     1     -42.166  58.051 -58.029  1.00  0.00     0.039 A 
HETATM   10  C   UNL     1     -42.514  59.082 -58.910  1.00  0.00    -0.060 A 
HETATM   11  C   UNL     1     -41.975  60.471 -58.716  1.00  0.00     0.048 C 
HETATM   12  C   UNL     1     -43.453  58.833 -59.915  1.00  0.00     0.009 A 
HETATM   13  C   UNL     1     -44.043  57.572 -60.045  1.00  0.00     0.039 A 
HETATM   14  C   UNL     1     -43.698  56.543 -59.168  1.00  0.00     0.095 A 
BRANCH  14  15
HETATM   15  O   UNL     1     -44.212  55.269 -59.204  1.00  0.00    -0.354 OA
HETATM   16  C   UNL     1     -45.030  54.935 -60.321  1.00  0.00     0.210 C 
ENDBRANCH  14  15
ENDBRANCH   5   8
ENDBRANCH   3   4
ENDBRANCH   1   3
BRANCH   1  17
HETATM   17  C   UNL     1     -42.277  58.363 -53.580  1.00  0.00     0.189 A 
HETATM   18  C   UNL     1     -40.838  58.791 -53.503  1.00  0.00     0.035 A 
HETATM   19  C   UNL     1     -41.706  59.279 -54.625  1.00  0.00     0.035 A 
ENDBRANCH   1  17
BRANCH   1  20
HETATM   20  C   UNL     1     -43.097  56.108 -52.705  1.00  0.00     0.274 C 
BRANCH  20  21
HETATM   21  C   UNL     1     -42.044  55.360 -51.932  1.00  0.00    -0.032 A 
HETATM   22  C   UNL     1     -41.626  54.082 -52.346  1.00  0.00     0.021 A 
HETATM   23  C   UNL     1     -40.642  53.366 -51.641  1.00  0.00    -0.024 A 
HETATM   24  C   UNL     1     -40.088  53.961 -50.497  1.00  0.00     0.012 A 
HETATM   25  C   UNL     1     -40.493  55.229 -50.075  1.00  0.00     0.001 A 
HETATM   26  C   UNL     1     -41.465  55.926 -50.789  1.00  0.00     0.009 A 
BRANCH  23  27
HETATM   27  C   UNL     1     -40.202  52.037 -52.094  1.00  0.00    -0.008 A 
HETATM   28  C   UNL     1     -39.844  51.031 -51.195  1.00  0.00     0.128 A 
HETATM   29  N   UNL     1     -39.408  49.798 -51.544  1.00  0.00    -0.272 NA
HETATM   30  C   UNL     1     -39.341  49.529 -52.863  1.00  0.00     0.116 A 
HETATM   31  C   UNL     1     -39.682  50.441 -53.846  1.00  0.00     0.020 A 
HETATM   32  C   UNL     1     -40.114  51.708 -53.454  1.00  0.00     0.015 A 
ENDBRANCH  23  27
ENDBRANCH  20  21
ENDBRANCH   1  20
TORSDOF 8
ENDMDL
MODEL 8
REMARK VINA RESULT:      -7.6      1.891      3.474
REMARK  8 active torsions:
REMARK  status: ('A' for Active; 'I' for Inactive)
REMARK    1  A    between atoms: C_4  and  N_5 
REMARK       I    between atoms: N_5  and  C_6 
REMARK    2  A    between atoms: C_6  and  C_7 
REMARK    3  A    between atoms: C_7  and  N_8 
REMARK    4  A    between atoms: N_8  and  C_10 
REMARK    5  A    between atoms: N_8  and  C_13 
REMARK    6  A    between atoms: C_13  and  C_14 
REMARK    7  A    between atoms: C_16  and  C_17 
REMARK    8  A    between atoms: C_27  and  O_28 
ROOT
HETATM    1  N   UNL     1     -42.265  57.357 -52.677  1.00  0.00    -0.055 N 
HETATM    2  H   UNL     1     -41.285  57.358 -53.000  1.00  0.00     0.281 HD
ENDROOT
BRANCH   1   3
HETATM    3  C   UNL     1     -42.905  58.504 -53.491  1.00  0.00     0.338 C 
BRANCH   3   4
HETATM    4  C   UNL     1     -41.886  59.218 -54.384  1.00  0.00     0.248 C 
HETATM    5  N   UNL     1     -42.168  59.406 -55.703  1.00  0.00    -0.323 N 
HETATM    6  H   UNL     1     -41.662  60.171 -56.148  1.00  0.00     0.169 HD
HETATM    7  O   UNL     1     -40.875  59.715 -53.880  1.00  0.00    -0.271 OA
BRANCH   5   8
HETATM    8  C   UNL     1     -43.083  58.743 -56.545  1.00  0.00     0.069 A 
HETATM    9  C   UNL     1     -42.755  57.571 -57.237  1.00  0.00     0.039 A 
HETATM   10  C   UNL     1     -43.678  56.981 -58.110  1.00  0.00    -0.060 A 
HETATM   11  C   UNL     1     -43.302  55.776 -58.924  1.00  0.00     0.048 C 
HETATM   12  C   UNL     1     -44.925  57.586 -58.295  1.00  0.00     0.009 A 
HETATM   13  C   UNL     1     -45.253  58.767 -57.622  1.00  0.00     0.039 A 
HETATM   14  C   UNL     1     -44.335  59.357 -56.753  1.00  0.00     0.095 A 
BRANCH  14  15
HETATM   15  O   UNL     1     -44.550  60.513 -56.041  1.00  0.00    -0.354 OA
HETATM   16  C   UNL     1     -45.309  61.533 -56.684  1.00  0.00     0.210 C 
ENDBRANCH  14  15
ENDBRANCH   5   8
ENDBRANCH   3   4
ENDBRANCH   1   3
BRANCH   1  17
HETATM   17  C   UNL     1     -42.161  57.685 -51.209  1.00  0.00     0.189 A 
HETATM   18  C   UNL     1     -40.992  57.130 -50.442  1.00  0.00     0.035 A 
HETATM   19  C   UNL     1     -41.105  58.608 -50.671  1.00  0.00     0.035 A 
ENDBRANCH   1  17
BRANCH   1  20
HETATM   20  C   UNL     1     -42.827  56.003 -53.010  1.00  0.00     0.274 C 
BRANCH  20  21
HETATM   21  C   UNL     1     -41.852  55.068 -53.676  1.00  0.00    -0.032 A 
HETATM   22  C   UNL     1     -41.456  53.877 -53.042  1.00  0.00     0.021 A 
HETATM   23  C   UNL     1     -40.548  52.988 -53.647  1.00  0.00    -0.024 A 
HETATM   24  C   UNL     1     -40.037  53.328 -54.908  1.00  0.00     0.012 A 
HETATM   25  C   UNL     1     -40.420  54.508 -55.549  1.00  0.00     0.001 A 
HETATM   26  C   UNL     1     -41.325  55.373 -54.938  1.00  0.00     0.009 A 
BRANCH  23  27
HETATM   27  C   UNL     1     -40.156  51.737 -52.980  1.00  0.00    -0.008 A 
HETATM   28  C   UNL     1     -39.996  50.543 -53.686  1.00  0.00     0.128 A 
HETATM   29  N   UNL     1     -39.662  49.354 -53.132  1.00  0.00    -0.272 NA
HETATM   30  C   UNL     1     -39.448  49.343 -51.801  1.00  0.00     0.116 A 
HETATM   31  C   UNL     1     -39.563  50.465 -51.001  1.00  0.00     0.020 A 
HETATM   32  C   UNL     1     -39.923  51.672 -51.599  1.00  0.00     0.015 A 
ENDBRANCH  23  27
ENDBRANCH  20  21
ENDBRANCH   1  20
TORSDOF 8
ENDMDL
MODEL 9
REMARK VINA RESULT:      -7.5      2.923      4.143
REMARK  8 active torsions:
REMARK  status: ('A' for Active; 'I' for Inactive)
REMARK    1  A    between atoms: C_4  and  N_5 
REMARK       I    between atoms: N_5  and  C_6 
REMARK    2  A    between atoms: C_6  and  C_7 
REMARK    3  A    between atoms: C_7  and  N_8 
REMARK    4  A    between atoms: N_8  and  C_10 
REMARK    5  A    between atoms: N_8  and  C_13 
REMARK    6  A    between atoms: C_13  and  C_14 
REMARK    7  A    between atoms: C_16  and  C_17 
REMARK    8  A    between atoms: C_27  and  O_28 
ROOT
HETATM    1  N   UNL     1     -42.601  56.824 -54.001  1.00  0.00    -0.055 N 
HETATM    2  H   UNL     1     -41.631  56.513 -54.163  1.00  0.00     0.281 HD
ENDROOT
BRANCH   1   3
HETATM    3  C   UNL     1     -43.293  56.532 -55.351  1.00  0.00     0.338 C 
BRANCH   3   4
HETATM    4  C   UNL     1     -42.406  55.712 -56.291  1.00  0.00     0.248 C 
HETATM    5  N   UNL     1     -42.399  55.997 -57.623  1.00  0.00    -0.323 N 
HETATM    6  H   UNL     1     -41.563  55.697 -58.124  1.00  0.00     0.169 HD
HETATM    7  O   UNL     1     -41.623  54.881 -55.821  1.00  0.00    -0.271 OA
BRANCH   5   8
HETATM    8  C   UNL     1     -43.341  56.682 -58.416  1.00  0.00     0.069 A 
HETATM    9  C   UNL     1     -44.483  56.059 -58.933  1.00  0.00     0.039 A 
HETATM   10  C   UNL     1     -45.360  56.766 -59.766  1.00  0.00    -0.060 A 
HETATM   11  C   UNL     1     -46.538  56.080 -60.398  1.00  0.00     0.048 C 
HETATM   12  C   UNL     1     -45.072  58.095 -60.089  1.00  0.00     0.009 A 
HETATM   13  C   UNL     1     -43.923  58.718 -59.592  1.00  0.00     0.039 A 
HETATM   14  C   UNL     1     -43.048  58.016 -58.763  1.00  0.00     0.095 A 
BRANCH  14  15
HETATM   15  O   UNL     1     -41.894  58.527 -58.219  1.00  0.00    -0.354 OA
HETATM   16  C   UNL     1     -41.686  59.930 -58.349  1.00  0.00     0.210 C 
ENDBRANCH  14  15
ENDBRANCH   5   8
ENDBRANCH   3   4
ENDBRANCH   1   3
BRANCH   1  17
HETATM   17  C   UNL     1     -42.467  58.302 -53.733  1.00  0.00     0.189 A 
HETATM   18  C   UNL     1     -41.092  58.849 -53.468  1.00  0.00     0.035 A 
HETATM   19  C   UNL     1     -41.825  59.236 -54.718  1.00  0.00     0.035 A 
ENDBRANCH   1  17
BRANCH   1  20
HETATM   20  C   UNL     1     -43.134  55.994 -52.865  1.00  0.00     0.274 C 
BRANCH  20  21
HETATM   21  C   UNL     1     -42.079  55.268 -52.073  1.00  0.00    -0.032 A 
HETATM   22  C   UNL     1     -41.644  53.990 -52.465  1.00  0.00     0.021 A 
HETATM   23  C   UNL     1     -40.658  53.294 -51.742  1.00  0.00    -0.024 A 
HETATM   24  C   UNL     1     -40.121  53.912 -50.602  1.00  0.00     0.012 A 
HETATM   25  C   UNL     1     -40.544  55.180 -50.200  1.00  0.00     0.001 A 
HETATM   26  C   UNL     1     -41.517  55.857 -50.932  1.00  0.00     0.009 A 
BRANCH  23  27
HETATM   27  C   UNL     1     -40.199  51.965 -52.174  1.00  0.00    -0.008 A 
HETATM   28  C   UNL     1     -39.850  50.971 -51.257  1.00  0.00     0.128 A 
HETATM   29  N   UNL     1     -39.397  49.738 -51.585  1.00  0.00    -0.272 NA
HETATM   30  C   UNL     1     -39.304  49.456 -52.900  1.00  0.00     0.116 A 
HETATM   31  C   UNL     1     -39.635  50.355 -53.899  1.00  0.00     0.020 A 
HETATM   32  C   UNL     1     -40.084  51.622 -53.527  1.00  0.00     0.015 A 
ENDBRANCH  23  27
ENDBRANCH  20  21
ENDBRANCH   1  20
TORSDOF 8
ENDMDL
MODEL 10
REMARK VINA RESULT:      -7.5      3.006      7.279
REMARK  8 active torsions:
REMARK  status: ('A' for Active; 'I' for Inactive)
REMARK    1  A    between atoms: C_4  and  N_5 
REMARK       I    between atoms: N_5  and  C_6 
REMARK    2  A    between atoms: C_6  and  C_7 
REMARK    3  A    between atoms: C_7  and  N_8 
REMARK    4  A    between atoms: N_8  and  C_10 
REMARK    5  A    between atoms: N_8  and  C_13 
REMARK    6  A    between atoms: C_13  and  C_14 
REMARK    7  A    between atoms: C_16  and  C_17 
REMARK    8  A    between atoms: C_27  and  O_28 
ROOT
HETATM    1  N   UNL     1     -42.868  57.766 -52.661  1.00  0.00    -0.055 N 
HETATM    2  H   UNL     1     -43.207  58.700 -52.386  1.00  0.00     0.281 HD
ENDROOT
BRANCH   1   3
HETATM    3  C   UNL     1     -42.513  57.109 -51.307  1.00  0.00     0.338 C 
BRANCH   3   4
HETATM    4  C   UNL     1     -43.565  56.089 -50.865  1.00  0.00     0.248 C 
HETATM    5  N   UNL     1     -43.191  54.800 -50.633  1.00  0.00    -0.323 N 
HETATM    6  H   UNL     1     -43.809  54.276 -50.014  1.00  0.00     0.169 HD
HETATM    7  O   UNL     1     -44.713  56.467 -50.612  1.00  0.00    -0.271 OA
BRANCH   5   8
HETATM    8  C   UNL     1     -42.061  54.083 -51.074  1.00  0.00     0.069 A 
HETATM    9  C   UNL     1     -41.887  53.699 -52.408  1.00  0.00     0.039 A 
HETATM   10  C   UNL     1     -40.776  52.936 -52.788  1.00  0.00    -0.060 A 
HETATM   11  C   UNL     1     -40.629  52.443 -54.200  1.00  0.00     0.048 C 
HETATM   12  C   UNL     1     -39.852  52.546 -51.814  1.00  0.00     0.009 A 
HETATM   13  C   UNL     1     -40.029  52.909 -50.475  1.00  0.00     0.039 A 
HETATM   14  C   UNL     1     -41.135  53.669 -50.095  1.00  0.00     0.095 A 
BRANCH  14  15
HETATM   15  O   UNL     1     -41.407  54.081 -48.813  1.00  0.00    -0.354 OA
HETATM   16  C   UNL     1     -40.332  54.038 -47.880  1.00  0.00     0.210 C 
ENDBRANCH  14  15
ENDBRANCH   5   8
ENDBRANCH   3   4
ENDBRANCH   1   3
BRANCH   1  17
HETATM   17  C   UNL     1     -41.646  58.055 -53.495  1.00  0.00     0.189 A 
HETATM   18  C   UNL     1     -41.375  59.484 -53.877  1.00  0.00     0.035 A 
HETATM   19  C   UNL     1     -40.449  58.771 -52.935  1.00  0.00     0.035 A 
ENDBRANCH   1  17
BRANCH   1  20
HETATM   20  C   UNL     1     -44.006  57.087 -53.372  1.00  0.00     0.274 C 
BRANCH  20  21
HETATM   21  C   UNL     1     -43.645  56.507 -54.715  1.00  0.00    -0.032 A 
HETATM   22  C   UNL     1     -43.676  57.307 -55.871  1.00  0.00     0.021 A 
HETATM   23  C   UNL     1     -43.341  56.787 -57.134  1.00  0.00    -0.024 A 
HETATM   24  C   UNL     1     -42.981  55.434 -57.214  1.00  0.00     0.012 A 
HETATM   25  C   UNL     1     -42.947  54.627 -56.075  1.00  0.00     0.001 A 
HETATM   26  C   UNL     1     -43.276  55.161 -54.830  1.00  0.00     0.009 A 
BRANCH  23  27
HETATM   27  C   UNL     1     -43.360  57.640 -58.333  1.00  0.00    -0.008 A 
HETATM   28  C   UNL     1     -44.550  57.970 -58.986  1.00  0.00     0.128 A 
HETATM   29  N   UNL     1     -44.636  58.727 -60.105  1.00  0.00    -0.272 NA
HETATM   30  C   UNL     1     -43.480  59.211 -60.600  1.00  0.00     0.116 A 
HETATM   31  C   UNL     1     -42.243  58.963 -60.032  1.00  0.00     0.020 A 
HETATM   32  C   UNL     1     -42.186  58.167 -58.888  1.00  0.00     0.015 A 
ENDBRANCH  23  27
ENDBRANCH  20  21
ENDBRANCH   1  20
TORSDOF 8
ENDMDL
