MODEL 1
REMARK VINA RESULT:      -8.3      0.000      0.000
REMARK  7 active torsions:
REMARK  status: ('A' for Active; 'I' for Inactive)
REMARK    1  A    between atoms: N_3  and  C_4 
REMARK    2  A    between atoms: C_12  and  C_13 
REMARK       I    between atoms: C_13  and  N_14 
REMARK    3  A    between atoms: N_14  and  C_15 
REMARK    4  A    between atoms: C_15  and  C_16 
REMARK    5  A    between atoms: C_17  and  C_18 
REMARK    6  A    between atoms: C_18  and  O_19 
REMARK    7  A    between atoms: O_19  and  C_20 
ROOT
HETATM    1  C   UNL     1     -42.472  59.053 -53.404  1.00  0.00     0.255 C 
HETATM    2  N   UNL     1     -41.240  58.566 -53.042  1.00  0.00    -0.346 N 
HETATM    3  O   UNL     1     -43.237  59.589 -52.610  1.00  0.00    -0.268 OA
HETATM    4  H   UNL     1     -40.798  57.886 -53.636  1.00  0.00     0.163 HD
ENDROOT
BRANCH   2   5
HETATM    5  C   UNL     1     -40.745  58.701 -51.696  1.00  0.00     0.217 C 
BRANCH   5   6
HETATM    6  C   UNL     1     -41.043  57.507 -50.902  1.00  0.00    -0.085 C 
HETATM    7  C   UNL     1     -41.209  56.510 -50.251  1.00  0.00    -0.078 C 
BRANCH   7   8
HETATM    8  C   UNL     1     -41.320  55.280 -49.452  1.00  0.00     0.269 C 
BRANCH   8   9
HETATM    9  O   UNL     1     -42.065  54.322 -50.207  1.00  0.00    -0.337 OA
BRANCH   9  10
HETATM   10  C   UNL     1     -41.261  53.561 -51.004  1.00  0.00     0.103 A 
HETATM   11  C   UNL     1     -41.360  53.650 -52.380  1.00  0.00     0.109 A 
HETATM   12  C   UNL     1     -40.639  52.808 -53.210  1.00  0.00    -0.019 A 
HETATM   13  O   UNL     1     -42.161  54.534 -53.054  1.00  0.00    -0.337 OA
HETATM   14  C   UNL     1     -40.997  53.065 -54.623  1.00  0.00     0.079 C 
HETATM   15  C   UNL     1     -39.786  51.848 -52.688  1.00  0.00     0.010 A 
HETATM   16  C   UNL     1     -41.858  54.339 -54.464  1.00  0.00     0.065 C 
HETATM   17  C   UNL     1     -43.191  54.203 -55.204  1.00  0.00     0.046 C 
HETATM   18  C   UNL     1     -41.110  55.582 -54.959  1.00  0.00     0.046 C 
HETATM   19  C   UNL     1     -39.676  51.744 -51.299  1.00  0.00     0.003 A 
HETATM   20  C   UNL     1     -40.420  52.588 -50.458  1.00  0.00     0.040 A 
ENDBRANCH   9  10
ENDBRANCH   8   9
ENDBRANCH   7   8
ENDBRANCH   5   6
ENDBRANCH   2   5
BRANCH   1  21
HETATM   21  C   UNL     1     -42.827  58.913 -54.807  1.00  0.00     0.075 C 
HETATM   22  C   UNL     1     -43.835  58.178 -55.435  1.00  0.00     0.050 C 
HETATM   23  C   UNL     1     -45.006  57.455 -54.874  1.00  0.00     0.071 C 
HETATM   24  N   UNL     1     -43.508  58.192 -56.795  1.00  0.00    -0.238 N 
HETATM   25  N   UNL     1     -42.626  59.189 -57.064  1.00  0.00    -0.179 NA
HETATM   26  C   UNL     1     -42.127  59.512 -55.874  1.00  0.00     0.158 C 
BRANCH  24  27
HETATM   27  C   UNL     1     -43.897  57.311 -57.851  1.00  0.00     0.058 A 
HETATM   28  C   UNL     1     -45.083  57.572 -58.557  1.00  0.00     0.031 A 
HETATM   29  C   UNL     1     -45.467  56.756 -59.623  1.00  0.00     0.002 A 
HETATM   30  C   UNL     1     -44.665  55.683 -60.006  1.00  0.00     0.000 A 
HETATM   31  C   UNL     1     -43.474  55.431 -59.329  1.00  0.00     0.002 A 
HETATM   32  C   UNL     1     -43.085  56.244 -58.260  1.00  0.00     0.031 A 
ENDBRANCH  24  27
ENDBRANCH   1  21
TORSDOF 7
ENDMDL
MODEL 2
REMARK VINA RESULT:      -7.7      2.841      7.823
REMARK  7 active torsions:
REMARK  status: ('A' for Active; 'I' for Inactive)
REMARK    1  A    between atoms: N_3  and  C_4 
REMARK    2  A    between atoms: C_12  and  C_13 
REMARK       I    between atoms: C_13  and  N_14 
REMARK    3  A    between atoms: N_14  and  C_15 
REMARK    4  A    between atoms: C_15  and  C_16 
REMARK    5  A    between atoms: C_17  and  C_18 
REMARK    6  A    between atoms: C_18  and  O_19 
REMARK    7  A    between atoms: O_19  and  C_20 
ROOT
HETATM    1  C   UNL     1     -41.526  56.959 -53.139  1.00  0.00     0.255 C 
HETATM    2  N   UNL     1     -41.376  57.972 -54.054  1.00  0.00    -0.346 N 
HETATM    3  O   UNL     1     -41.939  57.145 -52.000  1.00  0.00    -0.268 OA
HETATM    4  H   UNL     1     -40.766  57.824 -54.840  1.00  0.00     0.163 HD
ENDROOT
BRANCH   2   5
HETATM    5  C   UNL     1     -41.745  59.329 -53.739  1.00  0.00     0.217 C 
BRANCH   5   6
HETATM    6  C   UNL     1     -42.135  60.064 -54.945  1.00  0.00    -0.085 C 
HETATM    7  C   UNL     1     -42.492  60.719 -55.887  1.00  0.00    -0.078 C 
BRANCH   7   8
HETATM    8  C   UNL     1     -42.965  61.582 -56.980  1.00  0.00     0.269 C 
BRANCH   8   9
HETATM    9  O   UNL     1     -43.866  60.824 -57.791  1.00  0.00    -0.337 OA
BRANCH   9  10
HETATM   10  C   UNL     1     -43.247  60.300 -58.889  1.00  0.00     0.103 A 
HETATM   11  C   UNL     1     -43.194  58.930 -59.069  1.00  0.00     0.109 A 
HETATM   12  C   UNL     1     -42.475  58.369 -60.111  1.00  0.00    -0.019 A 
HETATM   13  O   UNL     1     -43.806  58.007 -58.262  1.00  0.00    -0.337 OA
HETATM   14  C   UNL     1     -42.519  56.892 -60.016  1.00  0.00     0.079 C 
HETATM   15  C   UNL     1     -41.788  59.163 -61.015  1.00  0.00     0.010 A 
HETATM   16  C   UNL     1     -43.567  56.718 -58.892  1.00  0.00     0.065 C 
HETATM   17  C   UNL     1     -43.061  55.764 -57.807  1.00  0.00     0.046 C 
HETATM   18  C   UNL     1     -44.903  56.214 -59.450  1.00  0.00     0.046 C 
HETATM   19  C   UNL     1     -41.832  60.550 -60.846  1.00  0.00     0.003 A 
HETATM   20  C   UNL     1     -42.547  61.118 -59.780  1.00  0.00     0.040 A 
ENDBRANCH   9  10
ENDBRANCH   8   9
ENDBRANCH   7   8
ENDBRANCH   5   6
ENDBRANCH   2   5
BRANCH   1  21
HETATM   21  C   UNL     1     -41.179  55.624 -53.601  1.00  0.00     0.075 C 
HETATM   22  C   UNL     1     -41.507  54.362 -53.103  1.00  0.00     0.050 C 
HETATM   23  C   UNL     1     -42.483  53.950 -52.059  1.00  0.00     0.071 C 
HETATM   24  N   UNL     1     -40.659  53.471 -53.769  1.00  0.00    -0.238 N 
HETATM   25  N   UNL     1     -40.144  54.047 -54.886  1.00  0.00    -0.179 NA
HETATM   26  C   UNL     1     -40.342  55.350 -54.701  1.00  0.00     0.158 C 
BRANCH  24  27
HETATM   27  C   UNL     1     -40.237  52.153 -53.415  1.00  0.00     0.058 A 
HETATM   28  C   UNL     1     -39.821  51.899 -52.098  1.00  0.00     0.031 A 
HETATM   29  C   UNL     1     -39.446  50.611 -51.709  1.00  0.00     0.002 A 
HETATM   30  C   UNL     1     -39.497  49.562 -52.624  1.00  0.00     0.000 A 
HETATM   31  C   UNL     1     -39.933  49.798 -53.926  1.00  0.00     0.002 A 
HETATM   32  C   UNL     1     -40.308  51.086 -54.321  1.00  0.00     0.031 A 
ENDBRANCH  24  27
ENDBRANCH   1  21
TORSDOF 7
ENDMDL
MODEL 3
REMARK VINA RESULT:      -7.5      2.411      7.431
REMARK  7 active torsions:
REMARK  status: ('A' for Active; 'I' for Inactive)
REMARK    1  A    between atoms: N_3  and  C_4 
REMARK    2  A    between atoms: C_12  and  C_13 
REMARK       I    between atoms: C_13  and  N_14 
REMARK    3  A    between atoms: N_14  and  C_15 
REMARK    4  A    between atoms: C_15  and  C_16 
REMARK    5  A    between atoms: C_17  and  C_18 
REMARK    6  A    between atoms: C_18  and  O_19 
REMARK    7  A    between atoms: O_19  and  C_20 
ROOT
HETATM    1  C   UNL     1     -41.708  57.067 -53.101  1.00  0.00     0.255 C 
HETATM    2  N   UNL     1     -40.934  58.114 -53.538  1.00  0.00    -0.346 N 
HETATM    3  O   UNL     1     -42.677  57.215 -52.365  1.00  0.00    -0.268 OA
HETATM    4  H   UNL     1     -40.006  57.918 -53.871  1.00  0.00     0.163 HD
ENDROOT
BRANCH   2   5
HETATM    5  C   UNL     1     -41.249  59.476 -53.189  1.00  0.00     0.217 C 
BRANCH   5   6
HETATM    6  C   UNL     1     -42.186  60.064 -54.149  1.00  0.00    -0.085 C 
HETATM    7  C   UNL     1     -43.014  60.510 -54.896  1.00  0.00    -0.078 C 
BRANCH   7   8
HETATM    8  C   UNL     1     -44.093  61.018 -55.758  1.00  0.00     0.269 C 
BRANCH   8   9
HETATM    9  O   UNL     1     -43.872  60.534 -57.084  1.00  0.00    -0.337 OA
BRANCH   9  10
HETATM   10  C   UNL     1     -44.848  59.667 -57.481  1.00  0.00     0.103 A 
HETATM   11  C   UNL     1     -44.509  58.456 -58.057  1.00  0.00     0.109 A 
HETATM   12  C   UNL     1     -45.476  57.609 -58.573  1.00  0.00    -0.019 A 
HETATM   13  O   UNL     1     -43.232  57.980 -58.193  1.00  0.00    -0.337 OA
HETATM   14  C   UNL     1     -44.834  56.432 -59.198  1.00  0.00     0.079 C 
HETATM   15  C   UNL     1     -46.820  57.945 -58.524  1.00  0.00     0.010 A 
HETATM   16  C   UNL     1     -43.370  56.642 -58.746  1.00  0.00     0.065 C 
HETATM   17  C   UNL     1     -42.404  56.533 -59.929  1.00  0.00     0.046 C 
HETATM   18  C   UNL     1     -42.975  55.640 -57.655  1.00  0.00     0.046 C 
HETATM   19  C   UNL     1     -47.178  59.166 -57.946  1.00  0.00     0.003 A 
HETATM   20  C   UNL     1     -46.196  60.031 -57.438  1.00  0.00     0.040 A 
ENDBRANCH   9  10
ENDBRANCH   8   9
ENDBRANCH   7   8
ENDBRANCH   5   6
ENDBRANCH   2   5
BRANCH   1  21
HETATM   21  C   UNL     1     -41.324  55.746 -53.576  1.00  0.00     0.075 C 
HETATM   22  C   UNL     1     -41.689  54.470 -53.146  1.00  0.00     0.050 C 
HETATM   23  C   UNL     1     -42.745  54.026 -52.197  1.00  0.00     0.071 C 
HETATM   24  N   UNL     1     -40.790  53.599 -53.770  1.00  0.00    -0.238 N 
HETATM   25  N   UNL     1     -40.188  54.210 -54.823  1.00  0.00    -0.179 NA
HETATM   26  C   UNL     1     -40.402  55.506 -54.614  1.00  0.00     0.158 C 
BRANCH  24  27
HETATM   27  C   UNL     1     -40.396  52.269 -53.426  1.00  0.00     0.058 A 
HETATM   28  C   UNL     1     -40.487  51.257 -54.395  1.00  0.00     0.031 A 
HETATM   29  C   UNL     1     -40.067  49.957 -54.103  1.00  0.00     0.002 A 
HETATM   30  C   UNL     1     -39.538  49.658 -52.849  1.00  0.00     0.000 A 
HETATM   31  C   UNL     1     -39.419  50.661 -51.890  1.00  0.00     0.002 A 
HETATM   32  C   UNL     1     -39.839  51.964 -52.176  1.00  0.00     0.031 A 
ENDBRANCH  24  27
ENDBRANCH   1  21
TORSDOF 7
ENDMDL
MODEL 4
REMARK VINA RESULT:      -7.4      2.582      7.408
REMARK  7 active torsions:
REMARK  status: ('A' for Active; 'I' for Inactive)
REMARK    1  A    between atoms: N_3  and  C_4 
REMARK    2  A    between atoms: C_12  and  C_13 
REMARK       I    between atoms: C_13  and  N_14 
REMARK    3  A    between atoms: N_14  and  C_15 
REMARK    4  A    between atoms: C_15  and  C_16 
REMARK    5  A    between atoms: C_17  and  C_18 
REMARK    6  A    between atoms: C_18  and  O_19 
REMARK    7  A    between atoms: O_19  and  C_20 
ROOT
HETATM    1  C   UNL     1     -42.001  56.485 -51.134  1.00  0.00     0.255 C 
HETATM    2  N   UNL     1     -43.334  56.257 -51.373  1.00  0.00    -0.346 N 
HETATM    3  O   UNL     1     -41.550  57.596 -50.879  1.00  0.00    -0.268 OA
HETATM    4  H   UNL     1     -43.598  55.419 -51.863  1.00  0.00     0.163 HD
ENDROOT
BRANCH   2   5
HETATM    5  C   UNL     1     -44.304  57.319 -51.293  1.00  0.00     0.217 C 
BRANCH   5   6
HETATM    6  C   UNL     1     -44.674  57.799 -52.626  1.00  0.00    -0.085 C 
HETATM    7  C   UNL     1     -44.938  58.130 -53.751  1.00  0.00    -0.078 C 
BRANCH   7   8
HETATM    8  C   UNL     1     -45.220  58.459 -55.156  1.00  0.00     0.269 C 
BRANCH   8   9
HETATM    9  O   UNL     1     -43.974  58.669 -55.825  1.00  0.00    -0.337 OA
BRANCH   9  10
HETATM   10  C   UNL     1     -43.690  57.665 -56.704  1.00  0.00     0.103 A 
HETATM   11  C   UNL     1     -44.120  57.747 -58.016  1.00  0.00     0.109 A 
HETATM   12  C   UNL     1     -43.946  56.693 -58.897  1.00  0.00    -0.019 A 
HETATM   13  O   UNL     1     -44.754  58.828 -58.568  1.00  0.00    -0.337 OA
HETATM   14  C   UNL     1     -44.569  57.017 -60.200  1.00  0.00     0.079 C 
HETATM   15  C   UNL     1     -43.329  55.519 -58.495  1.00  0.00     0.010 A 
HETATM   16  C   UNL     1     -44.914  58.508 -59.979  1.00  0.00     0.065 C 
HETATM   17  C   UNL     1     -46.370  58.800 -60.352  1.00  0.00     0.046 C 
HETATM   18  C   UNL     1     -43.977  59.421 -60.777  1.00  0.00     0.046 C 
HETATM   19  C   UNL     1     -42.890  55.420 -57.172  1.00  0.00     0.003 A 
HETATM   20  C   UNL     1     -43.081  56.483 -56.274  1.00  0.00     0.040 A 
ENDBRANCH   9  10
ENDBRANCH   8   9
ENDBRANCH   7   8
ENDBRANCH   5   6
ENDBRANCH   2   5
BRANCH   1  21
HETATM   21  C   UNL     1     -41.135  55.317 -51.181  1.00  0.00     0.075 C 
HETATM   22  C   UNL     1     -40.792  54.466 -52.233  1.00  0.00     0.050 C 
HETATM   23  C   UNL     1     -41.030  54.580 -53.696  1.00  0.00     0.071 C 
HETATM   24  N   UNL     1     -40.175  53.365 -51.629  1.00  0.00    -0.238 N 
HETATM   25  N   UNL     1     -39.777  53.673 -50.368  1.00  0.00    -0.179 NA
HETATM   26  C   UNL     1     -40.469  54.769 -50.067  1.00  0.00     0.158 C 
BRANCH  24  27
HETATM   27  C   UNL     1     -39.986  52.031 -52.106  1.00  0.00     0.058 A 
HETATM   28  C   UNL     1     -39.925  51.803 -53.490  1.00  0.00     0.031 A 
HETATM   29  C   UNL     1     -39.697  50.518 -53.987  1.00  0.00     0.002 A 
HETATM   30  C   UNL     1     -39.510  49.452 -53.110  1.00  0.00     0.000 A 
HETATM   31  C   UNL     1     -39.543  49.673 -51.735  1.00  0.00     0.002 A 
HETATM   32  C   UNL     1     -39.772  50.957 -51.231  1.00  0.00     0.031 A 
ENDBRANCH  24  27
ENDBRANCH   1  21
TORSDOF 7
ENDMDL
MODEL 5
REMARK VINA RESULT:      -7.3      1.654      2.171
REMARK  7 active torsions:
REMARK  status: ('A' for Active; 'I' for Inactive)
REMARK    1  A    between atoms: N_3  and  C_4 
REMARK    2  A    between atoms: C_12  and  C_13 
REMARK       I    between atoms: C_13  and  N_14 
REMARK    3  A    between atoms: N_14  and  C_15 
REMARK    4  A    between atoms: C_15  and  C_16 
REMARK    5  A    between atoms: C_17  and  C_18 
REMARK    6  A    between atoms: C_18  and  O_19 
REMARK    7  A    between atoms: O_19  and  C_20 
ROOT
HETATM    1  C   UNL     1     -43.431  58.000 -52.307  1.00  0.00     0.255 C 
HETATM    2  N   UNL     1     -43.420  56.640 -52.115  1.00  0.00    -0.346 N 
HETATM    3  O   UNL     1     -43.754  58.794 -51.432  1.00  0.00    -0.268 OA
HETATM    4  H   UNL     1     -43.447  56.040 -52.922  1.00  0.00     0.163 HD
ENDROOT
BRANCH   2   5
HETATM    5  C   UNL     1     -43.747  56.059 -50.838  1.00  0.00     0.217 C 
BRANCH   5   6
HETATM    6  C   UNL     1     -42.752  55.060 -50.441  1.00  0.00    -0.085 C 
HETATM    7  C   UNL     1     -41.912  54.291 -50.059  1.00  0.00    -0.078 C 
BRANCH   7   8
HETATM    8  C   UNL     1     -40.864  53.409 -49.523  1.00  0.00     0.269 C 
BRANCH   8   9
HETATM    9  O   UNL     1     -39.731  53.480 -50.392  1.00  0.00    -0.337 OA
BRANCH   9  10
HETATM   10  C   UNL     1     -39.766  52.516 -51.357  1.00  0.00     0.103 A 
HETATM   11  C   UNL     1     -40.266  52.807 -52.612  1.00  0.00     0.109 A 
HETATM   12  C   UNL     1     -40.420  51.820 -53.572  1.00  0.00    -0.019 A 
HETATM   13  O   UNL     1     -40.668  54.048 -53.030  1.00  0.00    -0.337 OA
HETATM   14  C   UNL     1     -41.050  52.389 -54.784  1.00  0.00     0.079 C 
HETATM   15  C   UNL     1     -40.069  50.505 -53.308  1.00  0.00     0.010 A 
HETATM   16  C   UNL     1     -41.012  53.895 -54.435  1.00  0.00     0.065 C 
HETATM   17  C   UNL     1     -42.381  54.547 -54.645  1.00  0.00     0.046 C 
HETATM   18  C   UNL     1     -39.950  54.632 -55.261  1.00  0.00     0.046 C 
HETATM   19  C   UNL     1     -39.562  50.195 -52.043  1.00  0.00     0.003 A 
HETATM   20  C   UNL     1     -39.423  51.193 -51.065  1.00  0.00     0.040 A 
ENDBRANCH   9  10
ENDBRANCH   8   9
ENDBRANCH   7   8
ENDBRANCH   5   6
ENDBRANCH   2   5
BRANCH   1  21
HETATM   21  C   UNL     1     -43.018  58.463 -53.623  1.00  0.00     0.075 C 
HETATM   22  C   UNL     1     -43.611  58.322 -54.878  1.00  0.00     0.050 C 
HETATM   23  C   UNL     1     -44.960  57.833 -55.269  1.00  0.00     0.071 C 
HETATM   24  N   UNL     1     -42.627  58.704 -55.796  1.00  0.00    -0.238 N 
HETATM   25  N   UNL     1     -41.654  59.423 -55.180  1.00  0.00    -0.179 NA
HETATM   26  C   UNL     1     -41.819  59.155 -53.888  1.00  0.00     0.158 C 
BRANCH  24  27
HETATM   27  C   UNL     1     -42.485  58.397 -57.185  1.00  0.00     0.058 A 
HETATM   28  C   UNL     1     -42.678  57.074 -57.615  1.00  0.00     0.031 A 
HETATM   29  C   UNL     1     -42.591  56.751 -58.971  1.00  0.00     0.002 A 
HETATM   30  C   UNL     1     -42.327  57.744 -59.911  1.00  0.00     0.000 A 
HETATM   31  C   UNL     1     -42.160  59.064 -59.497  1.00  0.00     0.002 A 
HETATM   32  C   UNL     1     -42.245  59.394 -58.141  1.00  0.00     0.031 A 
ENDBRANCH  24  27
ENDBRANCH   1  21
TORSDOF 7
ENDMDL
MODEL 6
REMARK VINA RESULT:      -7.3      2.604      7.517
REMARK  7 active torsions:
REMARK  status: ('A' for Active; 'I' for Inactive)
REMARK    1  A    between atoms: N_3  and  C_4 
REMARK    2  A    between atoms: C_12  and  C_13 
REMARK       I    between atoms: C_13  and  N_14 
REMARK    3  A    between atoms: N_14  and  C_15 
REMARK    4  A    between atoms: C_15  and  C_16 
REMARK    5  A    between atoms: C_17  and  C_18 
REMARK    6  A    between atoms: C_18  and  O_19 
REMARK    7  A    between atoms: O_19  and  C_20 
ROOT
HETATM    1  C   UNL     1     -42.028  56.437 -50.958  1.00  0.00     0.255 C 
HETATM    2  N   UNL     1     -43.355  56.207 -51.228  1.00  0.00    -0.346 N 
HETATM    3  O   UNL     1     -41.592  57.539 -50.647  1.00  0.00    -0.268 OA
HETATM    4  H   UNL     1     -43.603  55.390 -51.759  1.00  0.00     0.163 HD
ENDROOT
BRANCH   2   5
HETATM    5  C   UNL     1     -44.337  57.255 -51.114  1.00  0.00     0.217 C 
BRANCH   5   6
HETATM    6  C   UNL     1     -44.594  57.882 -52.412  1.00  0.00    -0.085 C 
HETATM    7  C   UNL     1     -44.736  58.365 -53.503  1.00  0.00    -0.078 C 
BRANCH   7   8
HETATM    8  C   UNL     1     -44.833  58.912 -54.865  1.00  0.00     0.269 C 
BRANCH   8   9
HETATM    9  O   UNL     1     -44.579  57.855 -55.792  1.00  0.00    -0.337 OA
BRANCH   9  10
HETATM   10  C   UNL     1     -43.791  58.261 -56.829  1.00  0.00     0.103 A 
HETATM   11  C   UNL     1     -43.858  57.613 -58.049  1.00  0.00     0.109 A 
HETATM   12  C   UNL     1     -42.989  57.930 -59.080  1.00  0.00    -0.019 A 
HETATM   13  O   UNL     1     -44.742  56.614 -58.360  1.00  0.00    -0.337 OA
HETATM   14  C   UNL     1     -43.226  57.031 -60.232  1.00  0.00     0.079 C 
HETATM   15  C   UNL     1     -42.026  58.914 -58.926  1.00  0.00     0.010 A 
HETATM   16  C   UNL     1     -44.517  56.318 -59.767  1.00  0.00     0.065 C 
HETATM   17  C   UNL     1     -44.388  54.799 -59.900  1.00  0.00     0.046 C 
HETATM   18  C   UNL     1     -45.739  56.810 -60.551  1.00  0.00     0.046 C 
HETATM   19  C   UNL     1     -41.945  59.578 -57.699  1.00  0.00     0.003 A 
HETATM   20  C   UNL     1     -42.815  59.245 -56.648  1.00  0.00     0.040 A 
ENDBRANCH   9  10
ENDBRANCH   8   9
ENDBRANCH   7   8
ENDBRANCH   5   6
ENDBRANCH   2   5
BRANCH   1  21
HETATM   21  C   UNL     1     -41.149  55.281 -51.045  1.00  0.00     0.075 C 
HETATM   22  C   UNL     1     -40.743  54.513 -52.137  1.00  0.00     0.050 C 
HETATM   23  C   UNL     1     -40.905  54.734 -53.598  1.00  0.00     0.071 C 
HETATM   24  N   UNL     1     -40.147  53.373 -51.584  1.00  0.00    -0.238 N 
HETATM   25  N   UNL     1     -39.819  53.589 -50.284  1.00  0.00    -0.179 NA
HETATM   26  C   UNL     1     -40.537  54.656 -49.941  1.00  0.00     0.158 C 
BRANCH  24  27
HETATM   27  C   UNL     1     -39.921  52.080 -52.148  1.00  0.00     0.058 A 
HETATM   28  C   UNL     1     -39.706  50.989 -51.290  1.00  0.00     0.031 A 
HETATM   29  C   UNL     1     -39.526  49.705 -51.809  1.00  0.00     0.002 A 
HETATM   30  C   UNL     1     -39.576  49.493 -53.185  1.00  0.00     0.000 A 
HETATM   31  C   UNL     1     -39.815  50.564 -54.042  1.00  0.00     0.002 A 
HETATM   32  C   UNL     1     -39.994  51.853 -53.529  1.00  0.00     0.031 A 
ENDBRANCH  24  27
ENDBRANCH   1  21
TORSDOF 7
ENDMDL
MODEL 7
REMARK VINA RESULT:      -7.3      3.043      7.859
REMARK  7 active torsions:
REMARK  status: ('A' for Active; 'I' for Inactive)
REMARK    1  A    between atoms: N_3  and  C_4 
REMARK    2  A    between atoms: C_12  and  C_13 
REMARK       I    between atoms: C_13  and  N_14 
REMARK    3  A    between atoms: N_14  and  C_15 
REMARK    4  A    between atoms: C_15  and  C_16 
REMARK    5  A    between atoms: C_17  and  C_18 
REMARK    6  A    between atoms: C_18  and  O_19 
REMARK    7  A    between atoms: O_19  and  C_20 
ROOT
HETATM    1  C   UNL     1     -43.567  57.377 -55.337  1.00  0.00     0.255 C 
HETATM    2  N   UNL     1     -44.685  58.077 -54.957  1.00  0.00    -0.346 N 
HETATM    3  O   UNL     1     -42.897  57.672 -56.320  1.00  0.00    -0.268 OA
HETATM    4  H   UNL     1     -45.350  57.628 -54.350  1.00  0.00     0.163 HD
ENDROOT
BRANCH   2   5
HETATM    5  C   UNL     1     -45.119  59.247 -55.677  1.00  0.00     0.217 C 
BRANCH   5   6
HETATM    6  C   UNL     1     -45.820  58.880 -56.909  1.00  0.00    -0.085 C 
HETATM    7  C   UNL     1     -46.429  58.517 -57.880  1.00  0.00    -0.078 C 
BRANCH   7   8
HETATM    8  C   UNL     1     -47.212  58.009 -59.016  1.00  0.00     0.269 C 
BRANCH   8   9
HETATM    9  O   UNL     1     -46.369  57.990 -60.170  1.00  0.00    -0.337 OA
BRANCH   9  10
HETATM   10  C   UNL     1     -45.250  57.234 -59.973  1.00  0.00     0.103 A 
HETATM   11  C   UNL     1     -43.997  57.811 -60.061  1.00  0.00     0.109 A 
HETATM   12  C   UNL     1     -42.845  57.046 -59.980  1.00  0.00    -0.019 A 
HETATM   13  O   UNL     1     -43.759  59.147 -60.247  1.00  0.00    -0.337 OA
HETATM   14  C   UNL     1     -41.656  57.902 -60.188  1.00  0.00     0.079 C 
HETATM   15  C   UNL     1     -42.910  55.673 -59.801  1.00  0.00     0.010 A 
HETATM   16  C   UNL     1     -42.314  59.301 -60.168  1.00  0.00     0.065 C 
HETATM   17  C   UNL     1     -41.875  60.137 -61.372  1.00  0.00     0.046 C 
HETATM   18  C   UNL     1     -41.993  60.048 -58.868  1.00  0.00     0.046 C 
HETATM   19  C   UNL     1     -44.169  55.075 -59.711  1.00  0.00     0.003 A 
HETATM   20  C   UNL     1     -45.337  55.849 -59.809  1.00  0.00     0.040 A 
ENDBRANCH   9  10
ENDBRANCH   8   9
ENDBRANCH   7   8
ENDBRANCH   5   6
ENDBRANCH   2   5
BRANCH   1  21
HETATM   21  C   UNL     1     -43.197  56.254 -54.489  1.00  0.00     0.075 C 
HETATM   22  C   UNL     1     -41.979  55.901 -53.907  1.00  0.00     0.050 C 
HETATM   23  C   UNL     1     -40.702  56.653 -53.786  1.00  0.00     0.071 C 
HETATM   24  N   UNL     1     -42.152  54.587 -53.457  1.00  0.00    -0.238 N 
HETATM   25  N   UNL     1     -43.473  54.282 -53.373  1.00  0.00    -0.179 NA
HETATM   26  C   UNL     1     -44.069  55.214 -54.113  1.00  0.00     0.158 C 
BRANCH  24  27
HETATM   27  C   UNL     1     -41.190  53.573 -53.165  1.00  0.00     0.058 A 
HETATM   28  C   UNL     1     -40.791  53.372 -51.834  1.00  0.00     0.031 A 
HETATM   29  C   UNL     1     -39.886  52.359 -51.510  1.00  0.00     0.002 A 
HETATM   30  C   UNL     1     -39.383  51.526 -52.507  1.00  0.00     0.000 A 
HETATM   31  C   UNL     1     -39.792  51.700 -53.827  1.00  0.00     0.002 A 
HETATM   32  C   UNL     1     -40.697  52.713 -54.157  1.00  0.00     0.031 A 
ENDBRANCH  24  27
ENDBRANCH   1  21
TORSDOF 7
ENDMDL
MODEL 8
REMARK VINA RESULT:      -7.2      1.493      2.005
REMARK  7 active torsions:
REMARK  status: ('A' for Active; 'I' for Inactive)
REMARK    1  A    between atoms: N_3  and  C_4 
REMARK    2  A    between atoms: C_12  and  C_13 
REMARK       I    between atoms: C_13  and  N_14 
REMARK    3  A    between atoms: N_14  and  C_15 
REMARK    4  A    between atoms: C_15  and  C_16 
REMARK    5  A    between atoms: C_17  and  C_18 
REMARK    6  A    between atoms: C_18  and  O_19 
REMARK    7  A    between atoms: O_19  and  C_20 
ROOT
HETATM    1  C   UNL     1     -44.112  60.544 -54.893  1.00  0.00     0.255 C 
HETATM    2  N   UNL     1     -42.929  60.150 -54.316  1.00  0.00    -0.346 N 
HETATM    3  O   UNL     1     -44.835  61.406 -54.408  1.00  0.00    -0.268 OA
HETATM    4  H   UNL     1     -42.542  59.258 -54.575  1.00  0.00     0.163 HD
ENDROOT
BRANCH   2   5
HETATM    5  C   UNL     1     -42.438  60.769 -53.112  1.00  0.00     0.217 C 
BRANCH   5   6
HETATM    6  C   UNL     1     -41.807  59.785 -52.231  1.00  0.00    -0.085 C 
HETATM    7  C   UNL     1     -41.356  58.935 -51.510  1.00  0.00    -0.078 C 
BRANCH   7   8
HETATM    8  C   UNL     1     -40.884  57.848 -50.638  1.00  0.00     0.269 C 
BRANCH   8   9
HETATM    9  O   UNL     1     -41.825  56.775 -50.709  1.00  0.00    -0.337 OA
BRANCH   9  10
HETATM   10  C   UNL     1     -41.212  55.557 -50.731  1.00  0.00     0.103 A 
HETATM   11  C   UNL     1     -41.167  54.822 -51.902  1.00  0.00     0.109 A 
HETATM   12  C   UNL     1     -40.653  53.536 -51.925  1.00  0.00    -0.019 A 
HETATM   13  O   UNL     1     -41.621  55.256 -53.119  1.00  0.00    -0.337 OA
HETATM   14  C   UNL     1     -40.805  52.957 -53.279  1.00  0.00     0.079 C 
HETATM   15  C   UNL     1     -40.160  52.943 -50.774  1.00  0.00     0.010 A 
HETATM   16  C   UNL     1     -41.272  54.205 -54.063  1.00  0.00     0.065 C 
HETATM   17  C   UNL     1     -42.521  53.901 -54.893  1.00  0.00     0.046 C 
HETATM   18  C   UNL     1     -40.159  54.741 -54.971  1.00  0.00     0.046 C 
HETATM   19  C   UNL     1     -40.199  53.672 -49.582  1.00  0.00     0.003 A 
HETATM   20  C   UNL     1     -40.735  54.970 -49.556  1.00  0.00     0.040 A 
ENDBRANCH   9  10
ENDBRANCH   8   9
ENDBRANCH   7   8
ENDBRANCH   5   6
ENDBRANCH   2   5
BRANCH   1  21
HETATM   21  C   UNL     1     -44.464  59.887 -56.142  1.00  0.00     0.075 C 
HETATM   22  C   UNL     1     -44.970  58.613 -56.402  1.00  0.00     0.050 C 
HETATM   23  C   UNL     1     -45.511  57.573 -55.487  1.00  0.00     0.071 C 
HETATM   24  N   UNL     1     -44.829  58.435 -57.783  1.00  0.00    -0.238 N 
HETATM   25  N   UNL     1     -44.652  59.631 -58.402  1.00  0.00    -0.179 NA
HETATM   26  C   UNL     1     -44.298  60.456 -57.421  1.00  0.00     0.158 C 
BRANCH  24  27
HETATM   27  C   UNL     1     -44.779  57.239 -58.564  1.00  0.00     0.058 A 
HETATM   28  C   UNL     1     -45.858  56.928 -59.406  1.00  0.00     0.031 A 
HETATM   29  C   UNL     1     -45.820  55.790 -60.216  1.00  0.00     0.002 A 
HETATM   30  C   UNL     1     -44.699  54.962 -60.205  1.00  0.00     0.000 A 
HETATM   31  C   UNL     1     -43.613  55.277 -59.391  1.00  0.00     0.002 A 
HETATM   32  C   UNL     1     -43.646  56.414 -58.578  1.00  0.00     0.031 A 
ENDBRANCH  24  27
ENDBRANCH   1  21
TORSDOF 7
ENDMDL
MODEL 9
REMARK VINA RESULT:      -7.2      2.927      7.951
REMARK  7 active torsions:
REMARK  status: ('A' for Active; 'I' for Inactive)
REMARK    1  A    between atoms: N_3  and  C_4 
REMARK    2  A    between atoms: C_12  and  C_13 
REMARK       I    between atoms: C_13  and  N_14 
REMARK    3  A    between atoms: N_14  and  C_15 
REMARK    4  A    between atoms: C_15  and  C_16 
REMARK    5  A    between atoms: C_17  and  C_18 
REMARK    6  A    between atoms: C_18  and  O_19 
REMARK    7  A    between atoms: O_19  and  C_20 
ROOT
HETATM    1  C   UNL     1     -43.485  56.015 -54.404  1.00  0.00     0.255 C 
HETATM    2  N   UNL     1     -44.242  56.871 -53.642  1.00  0.00    -0.346 N 
HETATM    3  O   UNL     1     -43.439  56.076 -55.627  1.00  0.00    -0.268 OA
HETATM    4  H   UNL     1     -44.482  56.595 -52.705  1.00  0.00     0.163 HD
ENDROOT
BRANCH   2   5
HETATM    5  C   UNL     1     -45.001  57.938 -54.242  1.00  0.00     0.217 C 
BRANCH   5   6
HETATM    6  C   UNL     1     -44.123  59.007 -54.721  1.00  0.00    -0.085 C 
HETATM    7  C   UNL     1     -43.440  59.880 -55.186  1.00  0.00    -0.078 C 
BRANCH   7   8
HETATM    8  C   UNL     1     -42.655  60.944 -55.830  1.00  0.00     0.269 C 
BRANCH   8   9
HETATM    9  O   UNL     1     -41.570  60.336 -56.534  1.00  0.00    -0.337 OA
BRANCH   9  10
HETATM   10  C   UNL     1     -41.669  60.518 -57.883  1.00  0.00     0.103 A 
HETATM   11  C   UNL     1     -42.170  59.509 -58.685  1.00  0.00     0.109 A 
HETATM   12  C   UNL     1     -42.175  59.622 -60.065  1.00  0.00    -0.019 A 
HETATM   13  O   UNL     1     -42.683  58.323 -58.227  1.00  0.00    -0.337 OA
HETATM   14  C   UNL     1     -42.685  58.372 -60.671  1.00  0.00     0.079 C 
HETATM   15  C   UNL     1     -41.683  60.756 -60.691  1.00  0.00     0.010 A 
HETATM   16  C   UNL     1     -43.181  57.633 -59.407  1.00  0.00     0.065 C 
HETATM   17  C   UNL     1     -42.645  56.199 -59.359  1.00  0.00     0.046 C 
HETATM   18  C   UNL     1     -44.712  57.621 -59.333  1.00  0.00     0.046 C 
HETATM   19  C   UNL     1     -41.172  61.784 -59.895  1.00  0.00     0.003 A 
HETATM   20  C   UNL     1     -41.152  61.662 -58.496  1.00  0.00     0.040 A 
ENDBRANCH   9  10
ENDBRANCH   8   9
ENDBRANCH   7   8
ENDBRANCH   5   6
ENDBRANCH   2   5
BRANCH   1  21
HETATM   21  C   UNL     1     -42.713  55.022 -53.674  1.00  0.00     0.075 C 
HETATM   22  C   UNL     1     -41.513  54.379 -53.981  1.00  0.00     0.050 C 
HETATM   23  C   UNL     1     -40.517  54.636 -55.055  1.00  0.00     0.071 C 
HETATM   24  N   UNL     1     -41.413  53.327 -53.063  1.00  0.00    -0.238 N 
HETATM   25  N   UNL     1     -42.242  53.534 -52.008  1.00  0.00    -0.179 NA
HETATM   26  C   UNL     1     -43.099  54.454 -52.443  1.00  0.00     0.158 C 
BRANCH  24  27
HETATM   27  C   UNL     1     -40.660  52.114 -53.123  1.00  0.00     0.058 A 
HETATM   28  C   UNL     1     -39.958  51.689 -51.983  1.00  0.00     0.031 A 
HETATM   29  C   UNL     1     -39.250  50.485 -51.995  1.00  0.00     0.002 A 
HETATM   30  C   UNL     1     -39.249  49.686 -53.136  1.00  0.00     0.000 A 
HETATM   31  C   UNL     1     -39.963  50.086 -54.263  1.00  0.00     0.002 A 
HETATM   32  C   UNL     1     -40.673  51.291 -54.257  1.00  0.00     0.031 A 
ENDBRANCH  24  27
ENDBRANCH   1  21
TORSDOF 7
ENDMDL
MODEL 10
REMARK VINA RESULT:      -7.2      2.777      7.323
REMARK  7 active torsions:
REMARK  status: ('A' for Active; 'I' for Inactive)
REMARK    1  A    between atoms: N_3  and  C_4 
REMARK    2  A    between atoms: C_12  and  C_13 
REMARK       I    between atoms: C_13  and  N_14 
REMARK    3  A    between atoms: N_14  and  C_15 
REMARK    4  A    between atoms: C_15  and  C_16 
REMARK    5  A    between atoms: C_17  and  C_18 
REMARK    6  A    between atoms: C_18  and  O_19 
REMARK    7  A    between atoms: O_19  and  C_20 
ROOT
HETATM    1  C   UNL     1     -44.424  57.303 -51.327  1.00  0.00     0.255 C 
HETATM    2  N   UNL     1     -44.316  58.056 -52.470  1.00  0.00    -0.346 N 
HETATM    3  O   UNL     1     -45.176  57.595 -50.404  1.00  0.00    -0.268 OA
HETATM    4  H   UNL     1     -43.493  57.952 -53.038  1.00  0.00     0.163 HD
ENDROOT
BRANCH   2   5
HETATM    5  C   UNL     1     -45.128  59.228 -52.677  1.00  0.00     0.217 C 
BRANCH   5   6
HETATM    6  C   UNL     1     -45.211  59.570 -54.098  1.00  0.00    -0.085 C 
HETATM    7  C   UNL     1     -45.325  59.787 -55.275  1.00  0.00    -0.078 C 
BRANCH   7   8
HETATM    8  C   UNL     1     -45.525  59.982 -56.719  1.00  0.00     0.269 C 
BRANCH   8   9
HETATM    9  O   UNL     1     -45.445  58.707 -57.359  1.00  0.00    -0.337 OA
BRANCH   9  10
HETATM   10  C   UNL     1     -44.286  58.560 -58.065  1.00  0.00     0.103 A 
HETATM   11  C   UNL     1     -44.044  57.396 -58.769  1.00  0.00     0.109 A 
HETATM   12  C   UNL     1     -42.830  57.175 -59.398  1.00  0.00    -0.019 A 
HETATM   13  O   UNL     1     -44.933  56.362 -58.908  1.00  0.00    -0.337 OA
HETATM   14  C   UNL     1     -42.814  55.823 -60.001  1.00  0.00     0.079 C 
HETATM   15  C   UNL     1     -41.816  58.118 -59.348  1.00  0.00     0.010 A 
HETATM   16  C   UNL     1     -44.293  55.416 -59.809  1.00  0.00     0.065 C 
HETATM   17  C   UNL     1     -44.407  54.028 -59.172  1.00  0.00     0.046 C 
HETATM   18  C   UNL     1     -45.056  55.444 -61.138  1.00  0.00     0.046 C 
HETATM   19  C   UNL     1     -42.045  59.300 -58.638  1.00  0.00     0.003 A 
HETATM   20  C   UNL     1     -43.271  59.517 -57.987  1.00  0.00     0.040 A 
ENDBRANCH   9  10
ENDBRANCH   8   9
ENDBRANCH   7   8
ENDBRANCH   5   6
ENDBRANCH   2   5
BRANCH   1  21
HETATM   21  C   UNL     1     -43.596  56.108 -51.268  1.00  0.00     0.075 C 
HETATM   22  C   UNL     1     -42.335  55.833 -51.798  1.00  0.00     0.050 C 
HETATM   23  C   UNL     1     -41.325  56.728 -52.424  1.00  0.00     0.071 C 
HETATM   24  N   UNL     1     -42.179  54.448 -51.679  1.00  0.00    -0.238 N 
HETATM   25  N   UNL     1     -43.061  53.944 -50.778  1.00  0.00    -0.179 NA
HETATM   26  C   UNL     1     -43.977  54.900 -50.651  1.00  0.00     0.158 C 
BRANCH  24  27
HETATM   27  C   UNL     1     -41.323  53.548 -52.385  1.00  0.00     0.058 A 
HETATM   28  C   UNL     1     -40.361  52.817 -51.669  1.00  0.00     0.031 A 
HETATM   29  C   UNL     1     -39.539  51.896 -52.324  1.00  0.00     0.002 A 
HETATM   30  C   UNL     1     -39.680  51.683 -53.693  1.00  0.00     0.000 A 
HETATM   31  C   UNL     1     -40.649  52.384 -54.408  1.00  0.00     0.002 A 
HETATM   32  C   UNL     1     -41.474  53.308 -53.758  1.00  0.00     0.031 A 
ENDBRANCH  24  27
ENDBRANCH   1  21
TORSDOF 7
ENDMDL
