MODEL 1
REMARK VINA RESULT:      -8.4      0.000      0.000
REMARK  6 active torsions:
REMARK  status: ('A' for Active; 'I' for Inactive)
REMARK    1  A    between atoms: C_5  and  N_6 
REMARK       I    between atoms: N_6  and  C_7 
REMARK    2  A    between atoms: C_7  and  C_8 
REMARK    3  A    between atoms: C_8  and  N_9 
REMARK    4  A    between atoms: C_12  and  C_13 
REMARK       I    between atoms: C_13  and  N_14 
REMARK    5  A    between atoms: N_14  and  N_15 
REMARK       I    between atoms: N_15  and  C_16 
REMARK       I    between atoms: C_16  and  N_17 
REMARK    6  A    between atoms: N_17  and  C_18 
ROOT
HETATM    1  N   UNL     1     -42.605  57.221 -54.756  1.00  0.00    -0.358 N 
HETATM    2  C   UNL     1     -41.756  58.262 -54.590  1.00  0.00     0.092 A 
HETATM    3  C   UNL     1     -41.834  59.063 -53.460  1.00  0.00     0.034 A 
HETATM    4  C   UNL     1     -42.794  58.789 -52.486  1.00  0.00     0.036 A 
HETATM    5  C   UNL     1     -43.677  57.730 -52.682  1.00  0.00     0.034 A 
HETATM    6  C   UNL     1     -43.561  56.956 -53.832  1.00  0.00     0.092 A 
ENDROOT
BRANCH   4   7
HETATM    7  C   UNL     1     -42.749  59.571 -51.222  1.00  0.00     0.270 C 
HETATM    8  N   UNL     1     -43.951  60.008 -50.710  1.00  0.00    -0.262 N 
HETATM    9  H   UNL     1     -44.776  60.170 -51.288  1.00  0.00     0.190 HD
HETATM   10  O   UNL     1     -41.668  59.780 -50.679  1.00  0.00    -0.266 OA
BRANCH   8  11
HETATM   11  N   UNL     1     -43.908  60.790 -49.539  1.00  0.00    -0.249 N 
HETATM   12  C   UNL     1     -45.002  60.694 -48.702  1.00  0.00     0.335 C 
HETATM   13  N   UNL     1     -44.893  61.542 -47.632  1.00  0.00    -0.337 N 
HETATM   14  O   UNL     1     -45.926  59.917 -48.911  1.00  0.00    -0.246 OA
HETATM   15  H   UNL     1     -43.945  61.799 -47.390  1.00  0.00     0.164 HD
HETATM   16  H   UNL     1     -43.513  61.721 -49.668  1.00  0.00     0.192 HD
BRANCH  13  17
HETATM   17  C   UNL     1     -45.877  61.553 -46.554  1.00  0.00     0.086 C 
HETATM   18  C   UNL     1     -45.475  60.621 -45.401  1.00  0.00     0.025 C 
HETATM   19  C   UNL     1     -44.282  61.152 -44.607  1.00  0.00     0.002 C 
HETATM   20  C   UNL     1     -44.532  62.569 -44.102  1.00  0.00     0.000 C 
HETATM   21  C   UNL     1     -44.914  63.517 -45.235  1.00  0.00     0.002 C 
HETATM   22  C   UNL     1     -46.097  62.986 -46.048  1.00  0.00     0.025 C 
ENDBRANCH  13  17
ENDBRANCH   8  11
ENDBRANCH   4   7
BRANCH   1  23
HETATM   23  C   UNL     1     -42.401  56.282 -55.891  1.00  0.00     0.230 C 
BRANCH  23  24
HETATM   24  C   UNL     1     -42.173  54.900 -55.295  1.00  0.00     0.240 C 
HETATM   25  N   UNL     1     -40.923  54.719 -54.732  1.00  0.00    -0.326 N 
HETATM   26  H   UNL     1     -40.186  55.386 -54.931  1.00  0.00     0.169 HD
HETATM   27  O   UNL     1     -43.089  54.081 -55.317  1.00  0.00    -0.271 OA
BRANCH  25  28
HETATM   28  C   UNL     1     -40.516  53.629 -53.925  1.00  0.00     0.034 A 
HETATM   29  C   UNL     1     -40.115  52.390 -54.429  1.00  0.00     0.030 A 
HETATM   30  C   UNL     1     -39.767  51.348 -53.562  1.00  0.00     0.009 A 
HETATM   31  C   UNL     1     -39.804  51.530 -52.177  1.00  0.00    -0.062 A 
HETATM   32  C   UNL     1     -39.470  50.396 -51.254  1.00  0.00     0.048 C 
HETATM   33  C   UNL     1     -40.216  52.765 -51.671  1.00  0.00     0.009 A 
HETATM   34  C   UNL     1     -40.567  53.805 -52.537  1.00  0.00     0.030 A 
ENDBRANCH  25  28
ENDBRANCH  23  24
ENDBRANCH   1  23
TORSDOF 6
ENDMDL
MODEL 2
REMARK VINA RESULT:      -8.4      4.504      8.523
REMARK  6 active torsions:
REMARK  status: ('A' for Active; 'I' for Inactive)
REMARK    1  A    between atoms: C_5  and  N_6 
REMARK       I    between atoms: N_6  and  C_7 
REMARK    2  A    between atoms: C_7  and  C_8 
REMARK    3  A    between atoms: C_8  and  N_9 
REMARK    4  A    between atoms: C_12  and  C_13 
REMARK       I    between atoms: C_13  and  N_14 
REMARK    5  A    between atoms: N_14  and  N_15 
REMARK       I    between atoms: N_15  and  C_16 
REMARK       I    between atoms: C_16  and  N_17 
REMARK    6  A    between atoms: N_17  and  C_18 
ROOT
HETATM    1  N   UNL     1     -42.301  57.104 -51.028  1.00  0.00    -0.358 N 
HETATM    2  C   UNL     1     -43.604  56.746 -51.105  1.00  0.00     0.092 A 
HETATM    3  C   UNL     1     -44.408  57.229 -52.128  1.00  0.00     0.034 A 
HETATM    4  C   UNL     1     -43.866  58.087 -53.086  1.00  0.00     0.036 A 
HETATM    5  C   UNL     1     -42.529  58.465 -52.977  1.00  0.00     0.034 A 
HETATM    6  C   UNL     1     -41.764  57.957 -51.934  1.00  0.00     0.092 A 
ENDROOT
BRANCH   4   7
HETATM    7  C   UNL     1     -44.713  58.461 -54.248  1.00  0.00     0.270 C 
HETATM    8  N   UNL     1     -45.112  57.444 -55.088  1.00  0.00    -0.262 N 
HETATM    9  H   UNL     1     -44.590  56.575 -55.198  1.00  0.00     0.190 HD
HETATM   10  O   UNL     1     -45.037  59.634 -54.408  1.00  0.00    -0.266 OA
BRANCH   8  11
HETATM   11  N   UNL     1     -45.874  57.802 -56.217  1.00  0.00    -0.249 N 
HETATM   12  C   UNL     1     -45.215  57.775 -57.430  1.00  0.00     0.335 C 
HETATM   13  N   UNL     1     -46.021  58.204 -58.451  1.00  0.00    -0.337 N 
HETATM   14  O   UNL     1     -44.059  57.386 -57.544  1.00  0.00    -0.246 OA
HETATM   15  H   UNL     1     -47.013  58.101 -58.279  1.00  0.00     0.164 HD
HETATM   16  H   UNL     1     -46.516  58.579 -56.064  1.00  0.00     0.192 HD
BRANCH  13  17
HETATM   17  C   UNL     1     -45.585  58.174 -59.843  1.00  0.00     0.086 C 
HETATM   18  C   UNL     1     -45.767  56.783 -60.471  1.00  0.00     0.025 C 
HETATM   19  C   UNL     1     -47.237  56.433 -60.700  1.00  0.00     0.002 C 
HETATM   20  C   UNL     1     -47.946  57.502 -61.525  1.00  0.00     0.000 C 
HETATM   21  C   UNL     1     -47.793  58.889 -60.909  1.00  0.00     0.002 C 
HETATM   22  C   UNL     1     -46.326  59.243 -60.658  1.00  0.00     0.025 C 
ENDBRANCH  13  17
ENDBRANCH   8  11
ENDBRANCH   4   7
BRANCH   1  23
HETATM   23  C   UNL     1     -41.421  56.452 -50.021  1.00  0.00     0.230 C 
BRANCH  23  24
HETATM   24  C   UNL     1     -41.326  54.979 -50.395  1.00  0.00     0.240 C 
HETATM   25  N   UNL     1     -40.913  54.744 -51.694  1.00  0.00    -0.326 N 
HETATM   26  H   UNL     1     -40.915  55.507 -52.363  1.00  0.00     0.169 HD
HETATM   27  O   UNL     1     -41.573  54.129 -49.543  1.00  0.00    -0.271 OA
BRANCH  25  28
HETATM   28  C   UNL     1     -40.531  53.496 -52.240  1.00  0.00     0.034 A 
HETATM   29  C   UNL     1     -39.765  52.547 -51.560  1.00  0.00     0.030 A 
HETATM   30  C   UNL     1     -39.393  51.351 -52.186  1.00  0.00     0.009 A 
HETATM   31  C   UNL     1     -39.789  51.080 -53.498  1.00  0.00    -0.062 A 
HETATM   32  C   UNL     1     -39.352  49.815 -54.177  1.00  0.00     0.048 C 
HETATM   33  C   UNL     1     -40.545  52.033 -54.185  1.00  0.00     0.009 A 
HETATM   34  C   UNL     1     -40.914  53.229 -53.561  1.00  0.00     0.030 A 
ENDBRANCH  25  28
ENDBRANCH  23  24
ENDBRANCH   1  23
TORSDOF 6
ENDMDL
MODEL 3
REMARK VINA RESULT:      -8.0      4.594      8.573
REMARK  6 active torsions:
REMARK  status: ('A' for Active; 'I' for Inactive)
REMARK    1  A    between atoms: C_5  and  N_6 
REMARK       I    between atoms: N_6  and  C_7 
REMARK    2  A    between atoms: C_7  and  C_8 
REMARK    3  A    between atoms: C_8  and  N_9 
REMARK    4  A    between atoms: C_12  and  C_13 
REMARK       I    between atoms: C_13  and  N_14 
REMARK    5  A    between atoms: N_14  and  N_15 
REMARK       I    between atoms: N_15  and  C_16 
REMARK       I    between atoms: C_16  and  N_17 
REMARK    6  A    between atoms: N_17  and  C_18 
ROOT
HETATM    1  N   UNL     1     -41.615  57.334 -50.946  1.00  0.00    -0.358 N 
HETATM    2  C   UNL     1     -42.776  57.297 -51.641  1.00  0.00     0.092 A 
HETATM    3  C   UNL     1     -42.969  58.127 -52.737  1.00  0.00     0.034 A 
HETATM    4  C   UNL     1     -41.956  59.003 -53.125  1.00  0.00     0.036 A 
HETATM    5  C   UNL     1     -40.776  59.047 -52.384  1.00  0.00     0.034 A 
HETATM    6  C   UNL     1     -40.630  58.197 -51.293  1.00  0.00     0.092 A 
ENDROOT
BRANCH   4   7
HETATM    7  C   UNL     1     -42.137  59.765 -54.388  1.00  0.00     0.270 C 
HETATM    8  N   UNL     1     -41.935  59.083 -55.568  1.00  0.00    -0.262 N 
HETATM    9  H   UNL     1     -41.331  58.265 -55.642  1.00  0.00     0.190 HD
HETATM   10  O   UNL     1     -42.471  60.945 -54.340  1.00  0.00    -0.266 OA
BRANCH   8  11
HETATM   11  N   UNL     1     -42.059  59.814 -56.765  1.00  0.00    -0.249 N 
HETATM   12  C   UNL     1     -42.158  59.071 -57.925  1.00  0.00     0.335 C 
HETATM   13  N   UNL     1     -42.203  59.873 -59.035  1.00  0.00    -0.337 N 
HETATM   14  O   UNL     1     -42.219  57.848 -57.922  1.00  0.00    -0.246 OA
HETATM   15  H   UNL     1     -42.544  60.810 -58.865  1.00  0.00     0.164 HD
HETATM   16  H   UNL     1     -41.481  60.653 -56.809  1.00  0.00     0.192 HD
BRANCH  13  17
HETATM   17  C   UNL     1     -42.407  59.327 -60.373  1.00  0.00     0.086 C 
HETATM   18  C   UNL     1     -43.893  59.072 -60.668  1.00  0.00     0.025 C 
HETATM   19  C   UNL     1     -44.687  60.366 -60.842  1.00  0.00     0.002 C 
HETATM   20  C   UNL     1     -44.066  61.265 -61.906  1.00  0.00     0.000 C 
HETATM   21  C   UNL     1     -42.593  61.547 -61.622  1.00  0.00     0.002 C 
HETATM   22  C   UNL     1     -41.793  60.258 -61.427  1.00  0.00     0.025 C 
ENDBRANCH  13  17
ENDBRANCH   8  11
ENDBRANCH   4   7
BRANCH   1  23
HETATM   23  C   UNL     1     -41.367  56.327 -49.879  1.00  0.00     0.230 C 
BRANCH  23  24
HETATM   24  C   UNL     1     -41.499  54.952 -50.520  1.00  0.00     0.240 C 
HETATM   25  N   UNL     1     -40.651  54.737 -51.592  1.00  0.00    -0.326 N 
HETATM   26  H   UNL     1     -40.179  55.527 -52.019  1.00  0.00     0.169 HD
HETATM   27  O   UNL     1     -42.287  54.142 -50.039  1.00  0.00    -0.271 OA
BRANCH  25  28
HETATM   28  C   UNL     1     -40.403  53.498 -52.230  1.00  0.00     0.034 A 
HETATM   29  C   UNL     1     -39.740  52.428 -51.627  1.00  0.00     0.030 A 
HETATM   30  C   UNL     1     -39.497  51.248 -52.342  1.00  0.00     0.009 A 
HETATM   31  C   UNL     1     -39.922  51.116 -53.666  1.00  0.00    -0.062 A 
HETATM   32  C   UNL     1     -39.622  49.865 -54.438  1.00  0.00     0.048 C 
HETATM   33  C   UNL     1     -40.576  52.190 -54.275  1.00  0.00     0.009 A 
HETATM   34  C   UNL     1     -40.816  53.370 -53.562  1.00  0.00     0.030 A 
ENDBRANCH  25  28
ENDBRANCH  23  24
ENDBRANCH   1  23
TORSDOF 6
ENDMDL
MODEL 4
REMARK VINA RESULT:      -8.0      4.468      8.138
REMARK  6 active torsions:
REMARK  status: ('A' for Active; 'I' for Inactive)
REMARK    1  A    between atoms: C_5  and  N_6 
REMARK       I    between atoms: N_6  and  C_7 
REMARK    2  A    between atoms: C_7  and  C_8 
REMARK    3  A    between atoms: C_8  and  N_9 
REMARK    4  A    between atoms: C_12  and  C_13 
REMARK       I    between atoms: C_13  and  N_14 
REMARK    5  A    between atoms: N_14  and  N_15 
REMARK       I    between atoms: N_15  and  C_16 
REMARK       I    between atoms: C_16  and  N_17 
REMARK    6  A    between atoms: N_17  and  C_18 
ROOT
HETATM    1  N   UNL     1     -41.927  57.288 -50.828  1.00  0.00    -0.358 N 
HETATM    2  C   UNL     1     -43.102  57.498 -51.466  1.00  0.00     0.092 A 
HETATM    3  C   UNL     1     -43.241  58.548 -52.363  1.00  0.00     0.034 A 
HETATM    4  C   UNL     1     -42.157  59.391 -52.609  1.00  0.00     0.036 A 
HETATM    5  C   UNL     1     -40.962  59.178 -51.926  1.00  0.00     0.034 A 
HETATM    6  C   UNL     1     -40.872  58.113 -51.036  1.00  0.00     0.092 A 
ENDROOT
BRANCH   4   7
HETATM    7  C   UNL     1     -42.294  60.408 -53.685  1.00  0.00     0.270 C 
HETATM    8  N   UNL     1     -42.005  60.006 -54.970  1.00  0.00    -0.262 N 
HETATM    9  H   UNL     1     -41.371  59.237 -55.184  1.00  0.00     0.190 HD
HETATM   10  O   UNL     1     -42.670  61.541 -53.401  1.00  0.00    -0.266 OA
BRANCH   8  11
HETATM   11  N   UNL     1     -42.088  60.980 -55.985  1.00  0.00    -0.249 N 
HETATM   12  C   UNL     1     -41.721  60.572 -57.252  1.00  0.00     0.335 C 
HETATM   13  N   UNL     1     -41.770  61.607 -58.148  1.00  0.00    -0.337 N 
HETATM   14  O   UNL     1     -41.418  59.413 -57.510  1.00  0.00    -0.246 OA
HETATM   15  H   UNL     1     -42.398  62.357 -57.894  1.00  0.00     0.164 HD
HETATM   16  H   UNL     1     -41.786  61.911 -55.701  1.00  0.00     0.192 HD
BRANCH  13  17
HETATM   17  C   UNL     1     -41.522  61.405 -59.573  1.00  0.00     0.086 C 
HETATM   18  C   UNL     1     -42.826  61.389 -60.385  1.00  0.00     0.025 C 
HETATM   19  C   UNL     1     -43.477  62.768 -60.474  1.00  0.00     0.002 C 
HETATM   20  C   UNL     1     -42.507  63.811 -61.019  1.00  0.00     0.000 C 
HETATM   21  C   UNL     1     -41.212  63.857 -60.214  1.00  0.00     0.002 C 
HETATM   22  C   UNL     1     -40.560  62.478 -60.103  1.00  0.00     0.025 C 
ENDBRANCH  13  17
ENDBRANCH   8  11
ENDBRANCH   4   7
BRANCH   1  23
HETATM   23  C   UNL     1     -41.752  56.068 -49.996  1.00  0.00     0.230 C 
BRANCH  23  24
HETATM   24  C   UNL     1     -41.846  54.870 -50.932  1.00  0.00     0.240 C 
HETATM   25  N   UNL     1     -40.698  54.626 -51.666  1.00  0.00    -0.326 N 
HETATM   26  H   UNL     1     -39.980  55.340 -51.718  1.00  0.00     0.169 HD
HETATM   27  O   UNL     1     -42.876  54.201 -50.946  1.00  0.00    -0.271 OA
BRANCH  25  28
HETATM   28  C   UNL     1     -40.427  53.472 -52.439  1.00  0.00     0.034 A 
HETATM   29  C   UNL     1     -40.760  53.339 -53.788  1.00  0.00     0.030 A 
HETATM   30  C   UNL     1     -40.494  52.147 -54.473  1.00  0.00     0.009 A 
HETATM   31  C   UNL     1     -39.882  51.072 -53.822  1.00  0.00    -0.062 A 
HETATM   32  C   UNL     1     -39.638  49.783 -54.551  1.00  0.00     0.048 C 
HETATM   33  C   UNL     1     -39.558  51.199 -52.469  1.00  0.00     0.009 A 
HETATM   34  C   UNL     1     -39.826  52.389 -51.785  1.00  0.00     0.030 A 
ENDBRANCH  25  28
ENDBRANCH  23  24
ENDBRANCH   1  23
TORSDOF 6
ENDMDL
MODEL 5
REMARK VINA RESULT:      -8.0      2.517     11.377
REMARK  6 active torsions:
REMARK  status: ('A' for Active; 'I' for Inactive)
REMARK    1  A    between atoms: C_5  and  N_6 
REMARK       I    between atoms: N_6  and  C_7 
REMARK    2  A    between atoms: C_7  and  C_8 
REMARK    3  A    between atoms: C_8  and  N_9 
REMARK    4  A    between atoms: C_12  and  C_13 
REMARK       I    between atoms: C_13  and  N_14 
REMARK    5  A    between atoms: N_14  and  N_15 
REMARK       I    between atoms: N_15  and  C_16 
REMARK       I    between atoms: C_16  and  N_17 
REMARK    6  A    between atoms: N_17  and  C_18 
ROOT
HETATM    1  N   UNL     1     -45.834  63.279 -47.923  1.00  0.00    -0.358 N 
HETATM    2  C   UNL     1     -44.771  63.699 -48.649  1.00  0.00     0.092 A 
HETATM    3  C   UNL     1     -43.983  62.789 -49.338  1.00  0.00     0.034 A 
HETATM    4  C   UNL     1     -44.292  61.429 -49.283  1.00  0.00     0.036 A 
HETATM    5  C   UNL     1     -45.373  61.010 -48.512  1.00  0.00     0.034 A 
HETATM    6  C   UNL     1     -46.133  61.960 -47.838  1.00  0.00     0.092 A 
ENDROOT
BRANCH   4   7
HETATM    7  C   UNL     1     -43.521  60.502 -50.153  1.00  0.00     0.270 C 
HETATM    8  N   UNL     1     -44.113  59.300 -50.471  1.00  0.00    -0.262 N 
HETATM    9  H   UNL     1     -44.817  58.853 -49.884  1.00  0.00     0.190 HD
HETATM   10  O   UNL     1     -42.415  60.840 -50.565  1.00  0.00    -0.266 OA
BRANCH   8  11
HETATM   11  N   UNL     1     -43.365  58.400 -51.255  1.00  0.00    -0.249 N 
HETATM   12  C   UNL     1     -43.768  57.080 -51.218  1.00  0.00     0.335 C 
HETATM   13  N   UNL     1     -42.937  56.279 -51.956  1.00  0.00    -0.337 N 
HETATM   14  O   UNL     1     -44.766  56.712 -50.610  1.00  0.00    -0.246 OA
HETATM   15  H   UNL     1     -42.435  56.755 -52.693  1.00  0.00     0.164 HD
HETATM   16  H   UNL     1     -42.360  58.569 -51.249  1.00  0.00     0.192 HD
BRANCH  13  17
HETATM   17  C   UNL     1     -43.211  54.859 -52.153  1.00  0.00     0.086 C 
HETATM   18  C   UNL     1     -42.725  54.366 -53.525  1.00  0.00     0.025 C 
HETATM   19  C   UNL     1     -41.201  54.305 -53.619  1.00  0.00     0.002 C 
HETATM   20  C   UNL     1     -40.604  53.466 -52.494  1.00  0.00     0.000 C 
HETATM   21  C   UNL     1     -41.059  53.951 -51.121  1.00  0.00     0.002 C 
HETATM   22  C   UNL     1     -42.583  54.033 -51.021  1.00  0.00     0.025 C 
ENDBRANCH  13  17
ENDBRANCH   8  11
ENDBRANCH   4   7
BRANCH   1  23
HETATM   23  C   UNL     1     -46.756  64.281 -47.326  1.00  0.00     0.230 C 
BRANCH  23  24
HETATM   24  C   UNL     1     -46.753  64.052 -45.820  1.00  0.00     0.240 C 
HETATM   25  N   UNL     1     -45.493  63.968 -45.256  1.00  0.00    -0.326 N 
HETATM   26  H   UNL     1     -44.686  63.840 -45.858  1.00  0.00     0.169 HD
HETATM   27  O   UNL     1     -47.825  63.999 -45.222  1.00  0.00    -0.271 OA
BRANCH  25  28
HETATM   28  C   UNL     1     -45.190  63.977 -43.873  1.00  0.00     0.034 A 
HETATM   29  C   UNL     1     -45.841  64.782 -42.937  1.00  0.00     0.030 A 
HETATM   30  C   UNL     1     -45.454  64.763 -41.591  1.00  0.00     0.009 A 
HETATM   31  C   UNL     1     -44.417  63.933 -41.159  1.00  0.00    -0.062 A 
HETATM   32  C   UNL     1     -43.980  63.949 -39.724  1.00  0.00     0.048 C 
HETATM   33  C   UNL     1     -43.757  63.136 -42.097  1.00  0.00     0.009 A 
HETATM   34  C   UNL     1     -44.141  63.157 -43.442  1.00  0.00     0.030 A 
ENDBRANCH  25  28
ENDBRANCH  23  24
ENDBRANCH   1  23
TORSDOF 6
ENDMDL
MODEL 6
REMARK VINA RESULT:      -7.9      1.535      2.105
REMARK  6 active torsions:
REMARK  status: ('A' for Active; 'I' for Inactive)
REMARK    1  A    between atoms: C_5  and  N_6 
REMARK       I    between atoms: N_6  and  C_7 
REMARK    2  A    between atoms: C_7  and  C_8 
REMARK    3  A    between atoms: C_8  and  N_9 
REMARK    4  A    between atoms: C_12  and  C_13 
REMARK       I    between atoms: C_13  and  N_14 
REMARK    5  A    between atoms: N_14  and  N_15 
REMARK       I    between atoms: N_15  and  C_16 
REMARK       I    between atoms: C_16  and  N_17 
REMARK    6  A    between atoms: N_17  and  C_18 
ROOT
HETATM    1  N   UNL     1     -42.748  56.626 -54.836  1.00  0.00    -0.358 N 
HETATM    2  C   UNL     1     -42.193  56.890 -53.630  1.00  0.00     0.092 A 
HETATM    3  C   UNL     1     -42.890  57.619 -52.676  1.00  0.00     0.034 A 
HETATM    4  C   UNL     1     -44.175  58.080 -52.965  1.00  0.00     0.036 A 
HETATM    5  C   UNL     1     -44.723  57.821 -54.220  1.00  0.00     0.034 A 
HETATM    6  C   UNL     1     -43.984  57.088 -55.142  1.00  0.00     0.092 A 
ENDROOT
BRANCH   4   7
HETATM    7  C   UNL     1     -44.948  58.723 -51.870  1.00  0.00     0.270 C 
HETATM    8  N   UNL     1     -45.068  60.094 -51.907  1.00  0.00    -0.262 N 
HETATM    9  H   UNL     1     -44.390  60.700 -52.369  1.00  0.00     0.190 HD
HETATM   10  O   UNL     1     -45.459  58.024 -51.000  1.00  0.00    -0.266 OA
BRANCH   8  11
HETATM   11  N   UNL     1     -45.759  60.711 -50.846  1.00  0.00    -0.249 N 
HETATM   12  C   UNL     1     -44.980  61.338 -49.895  1.00  0.00     0.335 C 
HETATM   13  N   UNL     1     -45.741  61.843 -48.873  1.00  0.00    -0.337 N 
HETATM   14  O   UNL     1     -43.763  61.433 -49.997  1.00  0.00    -0.246 OA
HETATM   15  H   UNL     1     -46.701  62.041 -49.119  1.00  0.00     0.164 HD
HETATM   16  H   UNL     1     -46.561  60.184 -50.502  1.00  0.00     0.192 HD
BRANCH  13  17
HETATM   17  C   UNL     1     -45.157  62.638 -47.797  1.00  0.00     0.086 C 
HETATM   18  C   UNL     1     -45.603  64.106 -47.861  1.00  0.00     0.025 C 
HETATM   19  C   UNL     1     -47.073  64.288 -47.487  1.00  0.00     0.002 C 
HETATM   20  C   UNL     1     -47.383  63.682 -46.123  1.00  0.00     0.000 C 
HETATM   21  C   UNL     1     -46.965  62.217 -46.044  1.00  0.00     0.002 C 
HETATM   22  C   UNL     1     -45.499  62.021 -46.434  1.00  0.00     0.025 C 
ENDBRANCH  13  17
ENDBRANCH   8  11
ENDBRANCH   4   7
BRANCH   1  23
HETATM   23  C   UNL     1     -42.051  55.711 -55.778  1.00  0.00     0.230 C 
BRANCH  23  24
HETATM   24  C   UNL     1     -41.939  54.357 -55.090  1.00  0.00     0.240 C 
HETATM   25  N   UNL     1     -40.656  54.021 -54.694  1.00  0.00    -0.326 N 
HETATM   26  H   UNL     1     -39.869  54.546 -55.059  1.00  0.00     0.169 HD
HETATM   27  O   UNL     1     -42.957  53.696 -54.902  1.00  0.00    -0.271 OA
BRANCH  25  28
HETATM   28  C   UNL     1     -40.294  52.943 -53.851  1.00  0.00     0.034 A 
HETATM   29  C   UNL     1     -40.016  51.654 -54.308  1.00  0.00     0.030 A 
HETATM   30  C   UNL     1     -39.705  50.630 -53.405  1.00  0.00     0.009 A 
HETATM   31  C   UNL     1     -39.657  50.881 -52.031  1.00  0.00    -0.062 A 
HETATM   32  C   UNL     1     -39.365  49.770 -51.066  1.00  0.00     0.048 C 
HETATM   33  C   UNL     1     -39.947  52.168 -51.571  1.00  0.00     0.009 A 
HETATM   34  C   UNL     1     -40.261  53.190 -52.473  1.00  0.00     0.030 A 
ENDBRANCH  25  28
ENDBRANCH  23  24
ENDBRANCH   1  23
TORSDOF 6
ENDMDL
MODEL 7
REMARK VINA RESULT:      -7.6      4.561      5.901
REMARK  6 active torsions:
REMARK  status: ('A' for Active; 'I' for Inactive)
REMARK    1  A    between atoms: C_5  and  N_6 
REMARK       I    between atoms: N_6  and  C_7 
REMARK    2  A    between atoms: C_7  and  C_8 
REMARK    3  A    between atoms: C_8  and  N_9 
REMARK    4  A    between atoms: C_12  and  C_13 
REMARK       I    between atoms: C_13  and  N_14 
REMARK    5  A    between atoms: N_14  and  N_15 
REMARK       I    between atoms: N_15  and  C_16 
REMARK       I    between atoms: C_16  and  N_17 
REMARK    6  A    between atoms: N_17  and  C_18 
ROOT
HETATM    1  N   UNL     1     -42.139  57.212 -50.806  1.00  0.00    -0.358 N 
HETATM    2  C   UNL     1     -43.384  56.699 -50.940  1.00  0.00     0.092 A 
HETATM    3  C   UNL     1     -44.349  57.371 -51.678  1.00  0.00     0.034 A 
HETATM    4  C   UNL     1     -44.028  58.584 -52.289  1.00  0.00     0.036 A 
HETATM    5  C   UNL     1     -42.749  59.111 -52.121  1.00  0.00     0.034 A 
HETATM    6  C   UNL     1     -41.818  58.401 -51.371  1.00  0.00     0.092 A 
ENDROOT
BRANCH   4   7
HETATM    7  C   UNL     1     -45.035  59.197 -53.194  1.00  0.00     0.270 C 
HETATM    8  N   UNL     1     -45.621  60.372 -52.777  1.00  0.00    -0.262 N 
HETATM    9  H   UNL     1     -45.710  60.633 -51.795  1.00  0.00     0.190 HD
HETATM   10  O   UNL     1     -45.292  58.658 -54.266  1.00  0.00    -0.266 OA
BRANCH   8  11
HETATM   11  N   UNL     1     -46.611  60.930 -53.610  1.00  0.00    -0.249 N 
HETATM   12  C   UNL     1     -47.474  61.827 -53.013  1.00  0.00     0.335 C 
HETATM   13  N   UNL     1     -48.437  62.257 -53.887  1.00  0.00    -0.337 N 
HETATM   14  O   UNL     1     -47.348  62.190 -51.850  1.00  0.00    -0.246 OA
HETATM   15  H   UNL     1     -48.180  62.197 -54.863  1.00  0.00     0.164 HD
HETATM   16  H   UNL     1     -47.023  60.275 -54.274  1.00  0.00     0.192 HD
BRANCH  13  17
HETATM   17  C   UNL     1     -49.407  63.285 -53.521  1.00  0.00     0.086 C 
HETATM   18  C   UNL     1     -50.047  63.936 -54.757  1.00  0.00     0.025 C 
HETATM   19  C   UNL     1     -51.001  62.993 -55.488  1.00  0.00     0.002 C 
HETATM   20  C   UNL     1     -52.067  62.437 -54.551  1.00  0.00     0.000 C 
HETATM   21  C   UNL     1     -51.452  61.768 -53.324  1.00  0.00     0.002 C 
HETATM   22  C   UNL     1     -50.481  62.698 -52.595  1.00  0.00     0.025 C 
ENDBRANCH  13  17
ENDBRANCH   8  11
ENDBRANCH   4   7
BRANCH   1  23
HETATM   23  C   UNL     1     -41.079  56.401 -50.149  1.00  0.00     0.230 C 
BRANCH  23  24
HETATM   24  C   UNL     1     -41.227  54.973 -50.656  1.00  0.00     0.240 C 
HETATM   25  N   UNL     1     -40.631  54.737 -51.882  1.00  0.00    -0.326 N 
HETATM   26  H   UNL     1     -40.344  55.523 -52.455  1.00  0.00     0.169 HD
HETATM   27  O   UNL     1     -41.808  54.147 -49.955  1.00  0.00    -0.271 OA
BRANCH  25  28
HETATM   28  C   UNL     1     -40.424  53.473 -52.484  1.00  0.00     0.034 A 
HETATM   29  C   UNL     1     -39.702  52.434 -51.893  1.00  0.00     0.030 A 
HETATM   30  C   UNL     1     -39.506  51.226 -52.573  1.00  0.00     0.009 A 
HETATM   31  C   UNL     1     -40.038  51.033 -53.850  1.00  0.00    -0.062 A 
HETATM   32  C   UNL     1     -39.789  49.751 -54.589  1.00  0.00     0.048 C 
HETATM   33  C   UNL     1     -40.751  52.074 -54.448  1.00  0.00     0.009 A 
HETATM   34  C   UNL     1     -40.943  53.283 -53.770  1.00  0.00     0.030 A 
ENDBRANCH  25  28
ENDBRANCH  23  24
ENDBRANCH   1  23
TORSDOF 6
ENDMDL
MODEL 8
REMARK VINA RESULT:      -7.4     18.078     20.608
REMARK  6 active torsions:
REMARK  status: ('A' for Active; 'I' for Inactive)
REMARK    1  A    between atoms: C_5  and  N_6 
REMARK       I    between atoms: N_6  and  C_7 
REMARK    2  A    between atoms: C_7  and  C_8 
REMARK    3  A    between atoms: C_8  and  N_9 
REMARK    4  A    between atoms: C_12  and  C_13 
REMARK       I    between atoms: C_13  and  N_14 
REMARK    5  A    between atoms: N_14  and  N_15 
REMARK       I    between atoms: N_15  and  C_16 
REMARK       I    between atoms: C_16  and  N_17 
REMARK    6  A    between atoms: N_17  and  C_18 
ROOT
HETATM    1  N   UNL     1     -35.058  41.806 -54.879  1.00  0.00    -0.358 N 
HETATM    2  C   UNL     1     -35.797  42.345 -53.882  1.00  0.00     0.092 A 
HETATM    3  C   UNL     1     -35.686  41.867 -52.584  1.00  0.00     0.034 A 
HETATM    4  C   UNL     1     -34.801  40.824 -52.306  1.00  0.00     0.036 A 
HETATM    5  C   UNL     1     -34.065  40.264 -53.348  1.00  0.00     0.034 A 
HETATM    6  C   UNL     1     -34.213  40.776 -54.633  1.00  0.00     0.092 A 
ENDROOT
BRANCH   4   7
HETATM    7  C   UNL     1     -34.596  40.442 -50.885  1.00  0.00     0.270 C 
HETATM    8  N   UNL     1     -33.296  40.355 -50.438  1.00  0.00    -0.262 N 
HETATM    9  H   UNL     1     -32.508  40.159 -51.054  1.00  0.00     0.190 HD
HETATM   10  O   UNL     1     -35.571  40.239 -50.167  1.00  0.00    -0.266 OA
BRANCH   8  11
HETATM   11  N   UNL     1     -33.098  39.946 -49.105  1.00  0.00    -0.249 N 
HETATM   12  C   UNL     1     -31.809  39.588 -48.763  1.00  0.00     0.335 C 
HETATM   13  N   UNL     1     -31.736  39.141 -47.470  1.00  0.00    -0.337 N 
HETATM   14  O   UNL     1     -30.867  39.693 -49.540  1.00  0.00    -0.246 OA
HETATM   15  H   UNL     1     -32.468  39.484 -46.862  1.00  0.00     0.164 HD
HETATM   16  H   UNL     1     -33.847  39.369 -48.725  1.00  0.00     0.192 HD
BRANCH  13  17
HETATM   17  C   UNL     1     -30.464  38.797 -46.844  1.00  0.00     0.086 C 
HETATM   18  C   UNL     1     -29.516  40.005 -46.769  1.00  0.00     0.025 C 
HETATM   19  C   UNL     1     -29.979  41.050 -45.754  1.00  0.00     0.002 C 
HETATM   20  C   UNL     1     -30.191  40.436 -44.375  1.00  0.00     0.000 C 
HETATM   21  C   UNL     1     -31.144  39.245 -44.423  1.00  0.00     0.002 C 
HETATM   22  C   UNL     1     -30.700  38.201 -45.449  1.00  0.00     0.025 C 
ENDBRANCH  13  17
ENDBRANCH   8  11
ENDBRANCH   4   7
BRANCH   1  23
HETATM   23  C   UNL     1     -35.074  42.437 -56.226  1.00  0.00     0.230 C 
BRANCH  23  24
HETATM   24  C   UNL     1     -36.274  41.871 -56.972  1.00  0.00     0.240 C 
HETATM   25  N   UNL     1     -35.973  40.837 -57.841  1.00  0.00    -0.326 N 
HETATM   26  H   UNL     1     -35.006  40.669 -58.097  1.00  0.00     0.169 HD
HETATM   27  O   UNL     1     -37.392  42.322 -56.736  1.00  0.00    -0.271 OA
BRANCH  25  28
HETATM   28  C   UNL     1     -36.901  39.989 -58.491  1.00  0.00     0.034 A 
HETATM   29  C   UNL     1     -37.547  38.917 -57.872  1.00  0.00     0.030 A 
HETATM   30  C   UNL     1     -38.422  38.099 -58.597  1.00  0.00     0.009 A 
HETATM   31  C   UNL     1     -38.674  38.346 -59.949  1.00  0.00    -0.062 A 
HETATM   32  C   UNL     1     -39.581  37.441 -60.729  1.00  0.00     0.048 C 
HETATM   33  C   UNL     1     -38.021  39.411 -60.573  1.00  0.00     0.009 A 
HETATM   34  C   UNL     1     -37.144  40.227 -59.849  1.00  0.00     0.030 A 
ENDBRANCH  25  28
ENDBRANCH  23  24
ENDBRANCH   1  23
TORSDOF 6
ENDMDL
MODEL 9
REMARK VINA RESULT:      -7.4      2.384      4.738
REMARK  6 active torsions:
REMARK  status: ('A' for Active; 'I' for Inactive)
REMARK    1  A    between atoms: C_5  and  N_6 
REMARK       I    between atoms: N_6  and  C_7 
REMARK    2  A    between atoms: C_7  and  C_8 
REMARK    3  A    between atoms: C_8  and  N_9 
REMARK    4  A    between atoms: C_12  and  C_13 
REMARK       I    between atoms: C_13  and  N_14 
REMARK    5  A    between atoms: N_14  and  N_15 
REMARK       I    between atoms: N_15  and  C_16 
REMARK       I    between atoms: C_16  and  N_17 
REMARK    6  A    between atoms: N_17  and  C_18 
ROOT
HETATM    1  N   UNL     1     -41.148  56.571 -53.571  1.00  0.00    -0.358 N 
HETATM    2  C   UNL     1     -41.705  56.242 -52.382  1.00  0.00     0.092 A 
HETATM    3  C   UNL     1     -41.936  57.214 -51.418  1.00  0.00     0.034 A 
HETATM    4  C   UNL     1     -41.593  58.541 -51.681  1.00  0.00     0.036 A 
HETATM    5  C   UNL     1     -40.998  58.859 -52.900  1.00  0.00     0.034 A 
HETATM    6  C   UNL     1     -40.786  57.850 -53.833  1.00  0.00     0.092 A 
ENDROOT
BRANCH   4   7
HETATM    7  C   UNL     1     -41.993  59.575 -50.691  1.00  0.00     0.270 C 
HETATM    8  N   UNL     1     -43.343  59.765 -50.491  1.00  0.00    -0.262 N 
HETATM    9  H   UNL     1     -44.046  59.552 -51.198  1.00  0.00     0.190 HD
HETATM   10  O   UNL     1     -41.127  60.197 -50.084  1.00  0.00    -0.266 OA
BRANCH   8  11
HETATM   11  N   UNL     1     -43.725  60.777 -49.589  1.00  0.00    -0.249 N 
HETATM   12  C   UNL     1     -45.062  60.815 -49.247  1.00  0.00     0.335 C 
HETATM   13  N   UNL     1     -45.342  61.873 -48.423  1.00  0.00    -0.337 N 
HETATM   14  O   UNL     1     -45.865  59.974 -49.632  1.00  0.00    -0.246 OA
HETATM   15  H   UNL     1     -44.553  62.214 -47.889  1.00  0.00     0.164 HD
HETATM   16  H   UNL     1     -43.269  61.676 -49.745  1.00  0.00     0.192 HD
BRANCH  13  17
HETATM   17  C   UNL     1     -46.667  62.071 -47.844  1.00  0.00     0.086 C 
HETATM   18  C   UNL     1     -46.666  61.857 -46.323  1.00  0.00     0.025 C 
HETATM   19  C   UNL     1     -45.938  62.974 -45.576  1.00  0.00     0.002 C 
HETATM   20  C   UNL     1     -46.499  64.346 -45.934  1.00  0.00     0.000 C 
HETATM   21  C   UNL     1     -46.491  64.586 -47.441  1.00  0.00     0.002 C 
HETATM   22  C   UNL     1     -47.202  63.465 -48.201  1.00  0.00     0.025 C 
ENDBRANCH  13  17
ENDBRANCH   8  11
ENDBRANCH   4   7
BRANCH   1  23
HETATM   23  C   UNL     1     -41.058  55.547 -54.645  1.00  0.00     0.230 C 
BRANCH  23  24
HETATM   24  C   UNL     1     -42.355  55.614 -55.440  1.00  0.00     0.240 C 
HETATM   25  N   UNL     1     -42.252  56.279 -56.649  1.00  0.00    -0.326 N 
HETATM   26  H   UNL     1     -41.436  56.852 -56.833  1.00  0.00     0.169 HD
HETATM   27  O   UNL     1     -43.358  55.062 -54.994  1.00  0.00    -0.271 OA
BRANCH  25  28
HETATM   28  C   UNL     1     -43.224  56.306 -57.677  1.00  0.00     0.034 A 
HETATM   29  C   UNL     1     -44.131  57.350 -57.868  1.00  0.00     0.030 A 
HETATM   30  C   UNL     1     -45.091  57.281 -58.885  1.00  0.00     0.009 A 
HETATM   31  C   UNL     1     -45.153  56.173 -59.733  1.00  0.00    -0.062 A 
HETATM   32  C   UNL     1     -46.211  56.087 -60.794  1.00  0.00     0.048 C 
HETATM   33  C   UNL     1     -44.254  55.122 -59.536  1.00  0.00     0.009 A 
HETATM   34  C   UNL     1     -43.297  55.189 -58.519  1.00  0.00     0.030 A 
ENDBRANCH  25  28
ENDBRANCH  23  24
ENDBRANCH   1  23
TORSDOF 6
ENDMDL
MODEL 10
REMARK VINA RESULT:      -7.1     18.071     21.278
REMARK  6 active torsions:
REMARK  status: ('A' for Active; 'I' for Inactive)
REMARK    1  A    between atoms: C_5  and  N_6 
REMARK       I    between atoms: N_6  and  C_7 
REMARK    2  A    between atoms: C_7  and  C_8 
REMARK    3  A    between atoms: C_8  and  N_9 
REMARK    4  A    between atoms: C_12  and  C_13 
REMARK       I    between atoms: C_13  and  N_14 
REMARK    5  A    between atoms: N_14  and  N_15 
REMARK       I    between atoms: N_15  and  C_16 
REMARK       I    between atoms: C_16  and  N_17 
REMARK    6  A    between atoms: N_17  and  C_18 
ROOT
HETATM    1  N   UNL     1     -35.783  41.025 -51.932  1.00  0.00    -0.358 N 
HETATM    2  C   UNL     1     -36.372  40.114 -51.121  1.00  0.00     0.092 A 
HETATM    3  C   UNL     1     -35.625  39.420 -50.180  1.00  0.00     0.034 A 
HETATM    4  C   UNL     1     -34.256  39.666 -50.068  1.00  0.00     0.036 A 
HETATM    5  C   UNL     1     -33.660  40.588 -50.926  1.00  0.00     0.034 A 
HETATM    6  C   UNL     1     -34.450  41.258 -51.854  1.00  0.00     0.092 A 
ENDROOT
BRANCH   4   7
HETATM    7  C   UNL     1     -33.519  39.018 -48.952  1.00  0.00     0.270 C 
HETATM    8  N   UNL     1     -32.254  39.489 -48.677  1.00  0.00    -0.262 N 
HETATM    9  H   UNL     1     -31.665  39.944 -49.374  1.00  0.00     0.190 HD
HETATM   10  O   UNL     1     -34.057  38.118 -48.314  1.00  0.00    -0.266 OA
BRANCH   8  11
HETATM   11  N   UNL     1     -31.535  38.845 -47.651  1.00  0.00    -0.249 N 
HETATM   12  C   UNL     1     -30.616  39.620 -46.972  1.00  0.00     0.335 C 
HETATM   13  N   UNL     1     -29.923  38.886 -46.046  1.00  0.00    -0.337 N 
HETATM   14  O   UNL     1     -30.482  40.820 -47.182  1.00  0.00    -0.246 OA
HETATM   15  H   UNL     1     -30.403  38.059 -45.717  1.00  0.00     0.164 HD
HETATM   16  H   UNL     1     -31.252  37.890 -47.869  1.00  0.00     0.192 HD
BRANCH  13  17
HETATM   17  C   UNL     1     -28.965  39.502 -45.133  1.00  0.00     0.086 C 
HETATM   18  C   UNL     1     -29.591  39.802 -43.762  1.00  0.00     0.025 C 
HETATM   19  C   UNL     1     -29.869  38.534 -42.956  1.00  0.00     0.002 C 
HETATM   20  C   UNL     1     -28.616  37.677 -42.810  1.00  0.00     0.000 C 
HETATM   21  C   UNL     1     -27.989  37.352 -44.162  1.00  0.00     0.002 C 
HETATM   22  C   UNL     1     -27.723  38.613 -44.985  1.00  0.00     0.025 C 
ENDBRANCH  13  17
ENDBRANCH   8  11
ENDBRANCH   4   7
BRANCH   1  23
HETATM   23  C   UNL     1     -36.626  41.870 -52.819  1.00  0.00     0.230 C 
BRANCH  23  24
HETATM   24  C   UNL     1     -36.777  41.124 -54.138  1.00  0.00     0.240 C 
HETATM   25  N   UNL     1     -37.430  41.838 -55.127  1.00  0.00    -0.326 N 
HETATM   26  H   UNL     1     -37.946  42.674 -54.879  1.00  0.00     0.169 HD
HETATM   27  O   UNL     1     -36.296  39.999 -54.246  1.00  0.00    -0.271 OA
BRANCH  25  28
HETATM   28  C   UNL     1     -37.518  41.486 -56.496  1.00  0.00     0.034 A 
HETATM   29  C   UNL     1     -38.302  40.440 -56.985  1.00  0.00     0.030 A 
HETATM   30  C   UNL     1     -38.302  40.129 -58.350  1.00  0.00     0.009 A 
HETATM   31  C   UNL     1     -37.526  40.864 -59.249  1.00  0.00    -0.062 A 
HETATM   32  C   UNL     1     -37.499  40.498 -60.704  1.00  0.00     0.048 C 
HETATM   33  C   UNL     1     -36.731  41.904 -58.760  1.00  0.00     0.009 A 
HETATM   34  C   UNL     1     -36.729  42.213 -57.396  1.00  0.00     0.030 A 
ENDBRANCH  25  28
ENDBRANCH  23  24
ENDBRANCH   1  23
TORSDOF 6
ENDMDL
