MODEL 1
REMARK VINA RESULT:      -7.8      0.000      0.000
REMARK  5 active torsions:
REMARK  status: ('A' for Active; 'I' for Inactive)
REMARK    1  A    between atoms: C_2  and  C_3 
REMARK    2  A    between atoms: C_11  and  N_12 
REMARK       I    between atoms: N_12  and  C_13 
REMARK    3  A    between atoms: C_13  and  C_14 
REMARK    4  A    between atoms: C_16  and  O_17 
REMARK    5  A    between atoms: O_17  and  C_18 
ROOT
HETATM    1  N   UNL     1     -41.317  55.885 -55.322  1.00  0.00    -0.323 N 
HETATM    2  C   UNL     1     -42.600  56.370 -55.507  1.00  0.00     0.256 C 
HETATM    3  O   UNL     1     -43.626  55.931 -55.000  1.00  0.00    -0.267 OA
HETATM    4  H   UNL     1     -40.572  56.305 -55.857  1.00  0.00     0.169 HD
ENDROOT
BRANCH   1   5
HETATM    5  C   UNL     1     -40.937  54.774 -54.535  1.00  0.00     0.035 A 
HETATM    6  C   UNL     1     -40.978  54.752 -53.141  1.00  0.00     0.030 A 
HETATM    7  C   UNL     1     -40.627  53.595 -52.431  1.00  0.00     0.016 A 
HETATM    8  C   UNL     1     -40.222  52.434 -53.100  1.00  0.00    -0.005 A 
HETATM    9  C   UNL     1     -40.156  52.470 -54.499  1.00  0.00     0.016 A 
HETATM   10  C   UNL     1     -40.512  53.624 -55.208  1.00  0.00     0.030 A 
BRANCH   8  11
HETATM   11  C   UNL     1     -39.888  51.209 -52.365  1.00  0.00     0.088 A 
HETATM   12  N   UNL     1     -39.657  50.044 -52.997  1.00  0.00    -0.175 NA
HETATM   13  N   UNL     1     -39.400  49.166 -52.017  1.00  0.00    -0.289 N 
HETATM   14  H   UNL     1     -39.193  48.207 -52.276  1.00  0.00     0.188 HD
HETATM   15  C   UNL     1     -39.462  49.706 -50.771  1.00  0.00     0.111 A 
HETATM   16  C   UNL     1     -39.774  51.029 -50.956  1.00  0.00     0.053 A 
ENDBRANCH   8  11
ENDBRANCH   1   5
BRANCH   2  17
HETATM   17  C   UNL     1     -42.733  57.523 -56.442  1.00  0.00     0.037 A 
HETATM   18  C   UNL     1     -43.505  57.337 -57.589  1.00  0.00     0.075 A 
HETATM   19  C   UNL     1     -43.660  58.404 -58.449  1.00  0.00     0.165 A 
HETATM   20  N   UNL     1     -43.102  59.616 -58.253  1.00  0.00    -0.237 NA
HETATM   21  C   UNL     1     -42.368  59.772 -57.131  1.00  0.00     0.120 A 
HETATM   22  C   UNL     1     -42.159  58.770 -56.197  1.00  0.00     0.036 A 
BRANCH  19  23
HETATM   23  O   UNL     1     -44.438  58.185 -59.570  1.00  0.00    -0.329 OA
BRANCH  23  24
HETATM   24  C   UNL     1     -45.517  57.240 -59.426  1.00  0.00     0.130 C 
HETATM   25  C   UNL     1     -46.920  57.683 -59.922  1.00  0.00     0.032 C 
HETATM   26  C   UNL     1     -47.106  56.256 -60.471  1.00  0.00     0.005 C 
HETATM   27  C   UNL     1     -45.572  56.154 -60.533  1.00  0.00     0.032 C 
ENDBRANCH  23  24
ENDBRANCH  19  23
ENDBRANCH   2  17
TORSDOF 5
ENDMDL
MODEL 2
REMARK VINA RESULT:      -7.5      5.660      7.341
REMARK  5 active torsions:
REMARK  status: ('A' for Active; 'I' for Inactive)
REMARK    1  A    between atoms: C_2  and  C_3 
REMARK    2  A    between atoms: C_11  and  N_12 
REMARK       I    between atoms: N_12  and  C_13 
REMARK    3  A    between atoms: C_13  and  C_14 
REMARK    4  A    between atoms: C_16  and  O_17 
REMARK    5  A    between atoms: O_17  and  C_18 
ROOT
HETATM    1  N   UNL     1     -43.448  57.312 -52.334  1.00  0.00    -0.323 N 
HETATM    2  C   UNL     1     -44.447  57.584 -51.415  1.00  0.00     0.256 C 
HETATM    3  O   UNL     1     -44.918  56.803 -50.596  1.00  0.00    -0.267 OA
HETATM    4  H   UNL     1     -43.205  58.035 -52.994  1.00  0.00     0.169 HD
ENDROOT
BRANCH   1   5
HETATM    5  C   UNL     1     -42.792  56.076 -52.529  1.00  0.00     0.035 A 
HETATM    6  C   UNL     1     -43.158  55.139 -53.496  1.00  0.00     0.030 A 
HETATM    7  C   UNL     1     -42.428  53.952 -53.658  1.00  0.00     0.016 A 
HETATM    8  C   UNL     1     -41.318  53.674 -52.853  1.00  0.00    -0.005 A 
HETATM    9  C   UNL     1     -40.971  54.604 -51.865  1.00  0.00     0.016 A 
HETATM   10  C   UNL     1     -41.696  55.792 -51.707  1.00  0.00     0.030 A 
BRANCH   8  11
HETATM   11  C   UNL     1     -40.529  52.451 -53.041  1.00  0.00     0.088 A 
HETATM   12  N   UNL     1     -39.788  51.927 -52.048  1.00  0.00    -0.175 NA
HETATM   13  N   UNL     1     -39.211  50.842 -52.585  1.00  0.00    -0.289 N 
HETATM   14  H   UNL     1     -38.599  50.284 -51.999  1.00  0.00     0.188 HD
HETATM   15  C   UNL     1     -39.538  50.640 -53.889  1.00  0.00     0.111 A 
HETATM   16  C   UNL     1     -40.392  51.662 -54.219  1.00  0.00     0.053 A 
ENDBRANCH   8  11
ENDBRANCH   1   5
BRANCH   2  17
HETATM   17  C   UNL     1     -45.016  58.961 -51.459  1.00  0.00     0.037 A 
HETATM   18  C   UNL     1     -45.406  59.536 -50.249  1.00  0.00     0.075 A 
HETATM   19  C   UNL     1     -45.909  60.820 -50.271  1.00  0.00     0.165 A 
HETATM   20  N   UNL     1     -46.057  61.551 -51.394  1.00  0.00    -0.237 NA
HETATM   21  C   UNL     1     -45.664  60.975 -52.550  1.00  0.00     0.120 A 
HETATM   22  C   UNL     1     -45.136  59.697 -52.637  1.00  0.00     0.036 A 
BRANCH  19  23
HETATM   23  O   UNL     1     -46.275  61.359 -49.053  1.00  0.00    -0.329 OA
BRANCH  23  24
HETATM   24  C   UNL     1     -45.321  61.228 -47.980  1.00  0.00     0.130 C 
HETATM   25  C   UNL     1     -45.139  62.446 -47.037  1.00  0.00     0.032 C 
HETATM   26  C   UNL     1     -45.050  61.449 -45.868  1.00  0.00     0.005 C 
HETATM   27  C   UNL     1     -45.853  60.465 -46.738  1.00  0.00     0.032 C 
ENDBRANCH  23  24
ENDBRANCH  19  23
ENDBRANCH   2  17
TORSDOF 5
ENDMDL
MODEL 3
REMARK VINA RESULT:      -7.4      2.788      8.996
REMARK  5 active torsions:
REMARK  status: ('A' for Active; 'I' for Inactive)
REMARK    1  A    between atoms: C_2  and  C_3 
REMARK    2  A    between atoms: C_11  and  N_12 
REMARK       I    between atoms: N_12  and  C_13 
REMARK    3  A    between atoms: C_13  and  C_14 
REMARK    4  A    between atoms: C_16  and  O_17 
REMARK    5  A    between atoms: O_17  and  C_18 
ROOT
HETATM    1  N   UNL     1     -41.634  55.635 -54.081  1.00  0.00    -0.323 N 
HETATM    2  C   UNL     1     -42.225  55.604 -52.831  1.00  0.00     0.256 C 
HETATM    3  O   UNL     1     -43.292  56.117 -52.514  1.00  0.00    -0.267 OA
HETATM    4  H   UNL     1     -40.718  55.223 -54.181  1.00  0.00     0.169 HD
ENDROOT
BRANCH   1   5
HETATM    5  C   UNL     1     -42.127  56.287 -55.235  1.00  0.00     0.035 A 
HETATM    6  C   UNL     1     -42.143  57.671 -55.404  1.00  0.00     0.030 A 
HETATM    7  C   UNL     1     -42.608  58.242 -56.598  1.00  0.00     0.016 A 
HETATM    8  C   UNL     1     -43.073  57.441 -57.647  1.00  0.00    -0.005 A 
HETATM    9  C   UNL     1     -43.081  56.053 -57.461  1.00  0.00     0.016 A 
HETATM   10  C   UNL     1     -42.611  55.482 -56.271  1.00  0.00     0.030 A 
BRANCH   8  11
HETATM   11  C   UNL     1     -43.527  58.031 -58.911  1.00  0.00     0.088 A 
HETATM   12  N   UNL     1     -44.325  57.357 -59.760  1.00  0.00    -0.175 NA
HETATM   13  N   UNL     1     -44.515  58.194 -60.790  1.00  0.00    -0.289 N 
HETATM   14  H   UNL     1     -45.100  57.883 -61.559  1.00  0.00     0.188 HD
HETATM   15  C   UNL     1     -43.870  59.382 -60.654  1.00  0.00     0.111 A 
HETATM   16  C   UNL     1     -43.220  59.314 -59.447  1.00  0.00     0.053 A 
ENDBRANCH   8  11
ENDBRANCH   1   5
BRANCH   2  17
HETATM   17  C   UNL     1     -41.462  54.894 -51.765  1.00  0.00     0.037 A 
HETATM   18  C   UNL     1     -40.776  53.734 -52.127  1.00  0.00     0.075 A 
HETATM   19  C   UNL     1     -40.043  53.082 -51.157  1.00  0.00     0.165 A 
HETATM   20  N   UNL     1     -39.957  53.493 -49.876  1.00  0.00    -0.237 NA
HETATM   21  C   UNL     1     -40.621  54.623 -49.555  1.00  0.00     0.120 A 
HETATM   22  C   UNL     1     -41.377  55.359 -50.453  1.00  0.00     0.036 A 
BRANCH  19  23
HETATM   23  O   UNL     1     -39.371  51.943 -51.555  1.00  0.00    -0.329 OA
BRANCH  23  24
HETATM   24  C   UNL     1     -39.966  51.189 -52.630  1.00  0.00     0.130 C 
HETATM   25  C   UNL     1     -39.277  51.264 -54.018  1.00  0.00     0.032 C 
HETATM   26  C   UNL     1     -39.562  49.759 -54.171  1.00  0.00     0.005 C 
HETATM   27  C   UNL     1     -39.600  49.680 -52.635  1.00  0.00     0.032 C 
ENDBRANCH  23  24
ENDBRANCH  19  23
ENDBRANCH   2  17
TORSDOF 5
ENDMDL
MODEL 4
REMARK VINA RESULT:      -7.4      2.657      3.780
REMARK  5 active torsions:
REMARK  status: ('A' for Active; 'I' for Inactive)
REMARK    1  A    between atoms: C_2  and  C_3 
REMARK    2  A    between atoms: C_11  and  N_12 
REMARK       I    between atoms: N_12  and  C_13 
REMARK    3  A    between atoms: C_13  and  C_14 
REMARK    4  A    between atoms: C_16  and  O_17 
REMARK    5  A    between atoms: O_17  and  C_18 
ROOT
HETATM    1  N   UNL     1     -42.790  54.690 -56.220  1.00  0.00    -0.323 N 
HETATM    2  C   UNL     1     -42.857  55.924 -56.841  1.00  0.00     0.256 C 
HETATM    3  O   UNL     1     -42.524  57.002 -56.361  1.00  0.00    -0.267 OA
HETATM    4  H   UNL     1     -43.162  53.892 -56.714  1.00  0.00     0.169 HD
ENDROOT
BRANCH   1   5
HETATM    5  C   UNL     1     -42.351  54.427 -54.902  1.00  0.00     0.035 A 
HETATM    6  C   UNL     1     -41.077  53.958 -54.581  1.00  0.00     0.030 A 
HETATM    7  C   UNL     1     -40.700  53.764 -53.244  1.00  0.00     0.016 A 
HETATM    8  C   UNL     1     -41.591  54.030 -52.199  1.00  0.00    -0.005 A 
HETATM    9  C   UNL     1     -42.878  54.475 -52.527  1.00  0.00     0.016 A 
HETATM   10  C   UNL     1     -43.253  54.674 -53.863  1.00  0.00     0.030 A 
BRANCH   8  11
HETATM   11  C   UNL     1     -41.191  53.864 -50.797  1.00  0.00     0.088 A 
HETATM   12  N   UNL     1     -40.606  52.734 -50.357  1.00  0.00    -0.175 NA
HETATM   13  N   UNL     1     -40.401  52.940 -49.048  1.00  0.00    -0.289 N 
HETATM   14  H   UNL     1     -39.960  52.202 -48.510  1.00  0.00     0.188 HD
HETATM   15  C   UNL     1     -40.834  54.153 -48.613  1.00  0.00     0.111 A 
HETATM   16  C   UNL     1     -41.351  54.781 -49.718  1.00  0.00     0.053 A 
ENDBRANCH   8  11
ENDBRANCH   1   5
BRANCH   2  17
HETATM   17  C   UNL     1     -43.419  55.932 -58.221  1.00  0.00     0.037 A 
HETATM   18  C   UNL     1     -43.544  57.165 -58.861  1.00  0.00     0.075 A 
HETATM   19  C   UNL     1     -44.037  57.184 -60.148  1.00  0.00     0.165 A 
HETATM   20  N   UNL     1     -44.416  56.082 -60.825  1.00  0.00    -0.237 NA
HETATM   21  C   UNL     1     -44.276  54.900 -60.188  1.00  0.00     0.120 A 
HETATM   22  C   UNL     1     -43.782  54.769 -58.900  1.00  0.00     0.036 A 
BRANCH  19  23
HETATM   23  O   UNL     1     -44.138  58.423 -60.751  1.00  0.00    -0.329 OA
BRANCH  23  24
HETATM   24  C   UNL     1     -43.188  59.422 -60.328  1.00  0.00     0.130 C 
HETATM   25  C   UNL     1     -41.837  59.485 -61.089  1.00  0.00     0.032 C 
HETATM   26  C   UNL     1     -41.937  61.020 -61.011  1.00  0.00     0.005 C 
HETATM   27  C   UNL     1     -43.461  60.844 -60.885  1.00  0.00     0.032 C 
ENDBRANCH  23  24
ENDBRANCH  19  23
ENDBRANCH   2  17
TORSDOF 5
ENDMDL
MODEL 5
REMARK VINA RESULT:      -7.3      2.138      3.567
REMARK  5 active torsions:
REMARK  status: ('A' for Active; 'I' for Inactive)
REMARK    1  A    between atoms: C_2  and  C_3 
REMARK    2  A    between atoms: C_11  and  N_12 
REMARK       I    between atoms: N_12  and  C_13 
REMARK    3  A    between atoms: C_13  and  C_14 
REMARK    4  A    between atoms: C_16  and  O_17 
REMARK    5  A    between atoms: O_17  and  C_18 
ROOT
HETATM    1  N   UNL     1     -41.827  56.497 -55.125  1.00  0.00    -0.323 N 
HETATM    2  C   UNL     1     -42.674  56.594 -56.215  1.00  0.00     0.256 C 
HETATM    3  O   UNL     1     -43.201  55.665 -56.815  1.00  0.00    -0.267 OA
HETATM    4  H   UNL     1     -41.413  57.347 -54.771  1.00  0.00     0.169 HD
ENDROOT
BRANCH   1   5
HETATM    5  C   UNL     1     -41.379  55.309 -54.504  1.00  0.00     0.035 A 
HETATM    6  C   UNL     1     -41.684  54.949 -53.192  1.00  0.00     0.030 A 
HETATM    7  C   UNL     1     -41.239  53.730 -52.660  1.00  0.00     0.016 A 
HETATM    8  C   UNL     1     -40.474  52.845 -53.429  1.00  0.00    -0.005 A 
HETATM    9  C   UNL     1     -40.148  53.223 -54.738  1.00  0.00     0.016 A 
HETATM   10  C   UNL     1     -40.598  54.438 -55.271  1.00  0.00     0.030 A 
BRANCH   8  11
HETATM   11  C   UNL     1     -40.036  51.552 -52.891  1.00  0.00     0.088 A 
HETATM   12  N   UNL     1     -39.692  51.404 -51.598  1.00  0.00    -0.175 NA
HETATM   13  N   UNL     1     -39.341  50.115 -51.482  1.00  0.00    -0.289 N 
HETATM   14  H   UNL     1     -39.043  49.779 -50.572  1.00  0.00     0.188 HD
HETATM   15  C   UNL     1     -39.434  49.417 -52.645  1.00  0.00     0.111 A 
HETATM   16  C   UNL     1     -39.883  50.315 -53.581  1.00  0.00     0.053 A 
ENDBRANCH   8  11
ENDBRANCH   1   5
BRANCH   2  17
HETATM   17  C   UNL     1     -42.941  57.974 -56.714  1.00  0.00     0.037 A 
HETATM   18  C   UNL     1     -41.838  58.778 -57.004  1.00  0.00     0.075 A 
HETATM   19  C   UNL     1     -42.070  60.047 -57.492  1.00  0.00     0.165 A 
HETATM   20  N   UNL     1     -43.299  60.562 -57.698  1.00  0.00    -0.237 NA
HETATM   21  C   UNL     1     -44.348  59.759 -57.419  1.00  0.00     0.120 A 
HETATM   22  C   UNL     1     -44.226  58.467 -56.935  1.00  0.00     0.036 A 
BRANCH  19  23
HETATM   23  O   UNL     1     -40.954  60.811 -57.776  1.00  0.00    -0.329 OA
BRANCH  23  24
HETATM   24  C   UNL     1     -41.141  61.899 -58.703  1.00  0.00     0.130 C 
HETATM   25  C   UNL     1     -39.880  62.696 -59.128  1.00  0.00     0.032 C 
HETATM   26  C   UNL     1     -40.459  62.731 -60.555  1.00  0.00     0.005 C 
HETATM   27  C   UNL     1     -41.251  61.463 -60.190  1.00  0.00     0.032 C 
ENDBRANCH  23  24
ENDBRANCH  19  23
ENDBRANCH   2  17
TORSDOF 5
ENDMDL
MODEL 6
REMARK VINA RESULT:      -7.2      2.294      3.024
REMARK  5 active torsions:
REMARK  status: ('A' for Active; 'I' for Inactive)
REMARK    1  A    between atoms: C_2  and  C_3 
REMARK    2  A    between atoms: C_11  and  N_12 
REMARK       I    between atoms: N_12  and  C_13 
REMARK    3  A    between atoms: C_13  and  C_14 
REMARK    4  A    between atoms: C_16  and  O_17 
REMARK    5  A    between atoms: O_17  and  C_18 
ROOT
HETATM    1  N   UNL     1     -41.729  56.905 -54.495  1.00  0.00    -0.323 N 
HETATM    2  C   UNL     1     -41.185  58.066 -53.974  1.00  0.00     0.256 C 
HETATM    3  O   UNL     1     -40.242  58.144 -53.195  1.00  0.00    -0.267 OA
HETATM    4  H   UNL     1     -42.550  56.988 -55.076  1.00  0.00     0.169 HD
ENDROOT
BRANCH   1   5
HETATM    5  C   UNL     1     -41.326  55.580 -54.213  1.00  0.00     0.035 A 
HETATM    6  C   UNL     1     -40.600  54.779 -55.095  1.00  0.00     0.030 A 
HETATM    7  C   UNL     1     -40.197  53.488 -54.726  1.00  0.00     0.016 A 
HETATM    8  C   UNL     1     -40.516  52.966 -53.467  1.00  0.00    -0.005 A 
HETATM    9  C   UNL     1     -41.269  53.764 -52.595  1.00  0.00     0.016 A 
HETATM   10  C   UNL     1     -41.666  55.056 -52.962  1.00  0.00     0.030 A 
BRANCH   8  11
HETATM   11  C   UNL     1     -40.067  51.630 -53.061  1.00  0.00     0.088 A 
HETATM   12  N   UNL     1     -39.690  51.363 -51.797  1.00  0.00    -0.175 NA
HETATM   13  N   UNL     1     -39.340  50.069 -51.808  1.00  0.00    -0.289 N 
HETATM   14  H   UNL     1     -39.019  49.651 -50.941  1.00  0.00     0.188 HD
HETATM   15  C   UNL     1     -39.465  49.481 -53.028  1.00  0.00     0.111 A 
HETATM   16  C   UNL     1     -39.936  50.461 -53.865  1.00  0.00     0.053 A 
ENDBRANCH   8  11
ENDBRANCH   1   5
BRANCH   2  17
HETATM   17  C   UNL     1     -41.840  59.338 -54.389  1.00  0.00     0.037 A 
HETATM   18  C   UNL     1     -42.138  59.499 -55.743  1.00  0.00     0.075 A 
HETATM   19  C   UNL     1     -42.768  60.660 -56.137  1.00  0.00     0.165 A 
HETATM   20  N   UNL     1     -43.108  61.656 -55.293  1.00  0.00    -0.237 NA
HETATM   21  C   UNL     1     -42.818  61.471 -53.988  1.00  0.00     0.120 A 
HETATM   22  C   UNL     1     -42.196  60.339 -53.486  1.00  0.00     0.036 A 
BRANCH  19  23
HETATM   23  O   UNL     1     -43.055  60.779 -57.483  1.00  0.00    -0.329 OA
BRANCH  23  24
HETATM   24  C   UNL     1     -42.789  59.622 -58.300  1.00  0.00     0.130 C 
HETATM   25  C   UNL     1     -43.957  59.081 -59.167  1.00  0.00     0.032 C 
HETATM   26  C   UNL     1     -42.929  58.838 -60.288  1.00  0.00     0.005 C 
HETATM   27  C   UNL     1     -42.065  59.933 -59.637  1.00  0.00     0.032 C 
ENDBRANCH  23  24
ENDBRANCH  19  23
ENDBRANCH   2  17
TORSDOF 5
ENDMDL
MODEL 7
REMARK VINA RESULT:      -7.1      4.518      6.184
REMARK  5 active torsions:
REMARK  status: ('A' for Active; 'I' for Inactive)
REMARK    1  A    between atoms: C_2  and  C_3 
REMARK    2  A    between atoms: C_11  and  N_12 
REMARK       I    between atoms: N_12  and  C_13 
REMARK    3  A    between atoms: C_13  and  C_14 
REMARK    4  A    between atoms: C_16  and  O_17 
REMARK    5  A    between atoms: O_17  and  C_18 
ROOT
HETATM    1  N   UNL     1     -41.972  57.434 -52.980  1.00  0.00    -0.323 N 
HETATM    2  C   UNL     1     -41.207  58.587 -53.005  1.00  0.00     0.256 C 
HETATM    3  O   UNL     1     -39.984  58.651 -53.040  1.00  0.00    -0.267 OA
HETATM    4  H   UNL     1     -42.972  57.533 -52.885  1.00  0.00     0.169 HD
ENDROOT
BRANCH   1   5
HETATM    5  C   UNL     1     -41.496  56.103 -52.964  1.00  0.00     0.035 A 
HETATM    6  C   UNL     1     -41.470  55.296 -51.826  1.00  0.00     0.030 A 
HETATM    7  C   UNL     1     -41.024  53.968 -51.898  1.00  0.00     0.016 A 
HETATM    8  C   UNL     1     -40.590  53.419 -53.110  1.00  0.00    -0.005 A 
HETATM    9  C   UNL     1     -40.593  54.242 -54.244  1.00  0.00     0.016 A 
HETATM   10  C   UNL     1     -41.044  55.567 -54.173  1.00  0.00     0.030 A 
BRANCH   8  11
HETATM   11  C   UNL     1     -40.156  52.021 -53.200  1.00  0.00     0.088 A 
HETATM   12  N   UNL     1     -39.642  51.369 -52.140  1.00  0.00    -0.175 NA
HETATM   13  N   UNL     1     -39.355  50.142 -52.597  1.00  0.00    -0.289 N 
HETATM   14  H   UNL     1     -38.952  49.472 -51.951  1.00  0.00     0.188 HD
HETATM   15  C   UNL     1     -39.652  49.967 -53.912  1.00  0.00     0.111 A 
HETATM   16  C   UNL     1     -40.174  51.162 -54.337  1.00  0.00     0.053 A 
ENDBRANCH   8  11
ENDBRANCH   1   5
BRANCH   2  17
HETATM   17  C   UNL     1     -41.961  59.872 -52.955  1.00  0.00     0.037 A 
HETATM   18  C   UNL     1     -42.247  60.403 -51.697  1.00  0.00     0.075 A 
HETATM   19  C   UNL     1     -42.920  61.605 -51.636  1.00  0.00     0.165 A 
HETATM   20  N   UNL     1     -43.329  62.295 -52.720  1.00  0.00    -0.237 NA
HETATM   21  C   UNL     1     -43.031  61.764 -53.925  1.00  0.00     0.120 A 
HETATM   22  C   UNL     1     -42.351  60.570 -54.098  1.00  0.00     0.036 A 
BRANCH  19  23
HETATM   23  O   UNL     1     -43.177  62.104 -50.373  1.00  0.00    -0.329 OA
BRANCH  23  24
HETATM   24  C   UNL     1     -43.940  61.256 -49.492  1.00  0.00     0.130 C 
HETATM   25  C   UNL     1     -44.533  61.909 -48.215  1.00  0.00     0.032 C 
HETATM   26  C   UNL     1     -45.803  61.072 -48.452  1.00  0.00     0.005 C 
HETATM   27  C   UNL     1     -45.408  61.021 -49.939  1.00  0.00     0.032 C 
ENDBRANCH  23  24
ENDBRANCH  19  23
ENDBRANCH   2  17
TORSDOF 5
ENDMDL
MODEL 8
REMARK VINA RESULT:      -7.0      5.736      9.359
REMARK  5 active torsions:
REMARK  status: ('A' for Active; 'I' for Inactive)
REMARK    1  A    between atoms: C_2  and  C_3 
REMARK    2  A    between atoms: C_11  and  N_12 
REMARK       I    between atoms: N_12  and  C_13 
REMARK    3  A    between atoms: C_13  and  C_14 
REMARK    4  A    between atoms: C_16  and  O_17 
REMARK    5  A    between atoms: O_17  and  C_18 
ROOT
HETATM    1  N   UNL     1     -42.990  57.818 -52.279  1.00  0.00    -0.323 N 
HETATM    2  C   UNL     1     -42.645  56.515 -51.966  1.00  0.00     0.256 C 
HETATM    3  O   UNL     1     -42.922  55.915 -50.934  1.00  0.00    -0.267 OA
HETATM    4  H   UNL     1     -42.636  58.205 -53.141  1.00  0.00     0.169 HD
ENDROOT
BRANCH   1   5
HETATM    5  C   UNL     1     -43.705  58.724 -51.463  1.00  0.00     0.035 A 
HETATM    6  C   UNL     1     -45.033  58.547 -51.075  1.00  0.00     0.030 A 
HETATM    7  C   UNL     1     -45.661  59.469 -50.226  1.00  0.00     0.016 A 
HETATM    8  C   UNL     1     -44.976  60.592 -49.749  1.00  0.00    -0.005 A 
HETATM    9  C   UNL     1     -43.651  60.780 -50.164  1.00  0.00     0.016 A 
HETATM   10  C   UNL     1     -43.021  59.856 -51.008  1.00  0.00     0.030 A 
BRANCH   8  11
HETATM   11  C   UNL     1     -45.616  61.542 -48.832  1.00  0.00     0.088 A 
HETATM   12  N   UNL     1     -46.771  62.158 -49.143  1.00  0.00    -0.175 NA
HETATM   13  N   UNL     1     -47.036  62.944 -48.090  1.00  0.00    -0.289 N 
HETATM   14  H   UNL     1     -47.879  63.508 -48.112  1.00  0.00     0.188 HD
HETATM   15  C   UNL     1     -46.099  62.874 -47.107  1.00  0.00     0.111 A 
HETATM   16  C   UNL     1     -45.163  61.973 -47.552  1.00  0.00     0.053 A 
ENDBRANCH   8  11
ENDBRANCH   1   5
BRANCH   2  17
HETATM   17  C   UNL     1     -41.832  55.792 -52.985  1.00  0.00     0.037 A 
HETATM   18  C   UNL     1     -42.013  54.413 -53.094  1.00  0.00     0.075 A 
HETATM   19  C   UNL     1     -41.287  53.735 -54.051  1.00  0.00     0.165 A 
HETATM   20  N   UNL     1     -40.403  54.323 -54.882  1.00  0.00    -0.237 NA
HETATM   21  C   UNL     1     -40.254  55.660 -54.763  1.00  0.00     0.120 A 
HETATM   22  C   UNL     1     -40.942  56.436 -53.844  1.00  0.00     0.036 A 
BRANCH  19  23
HETATM   23  O   UNL     1     -41.499  52.372 -54.135  1.00  0.00    -0.329 OA
BRANCH  23  24
HETATM   24  C   UNL     1     -40.327  51.549 -54.297  1.00  0.00     0.130 C 
HETATM   25  C   UNL     1     -39.553  51.154 -53.011  1.00  0.00     0.032 C 
HETATM   26  C   UNL     1     -39.367  49.756 -53.629  1.00  0.00     0.005 C 
HETATM   27  C   UNL     1     -40.625  50.036 -54.470  1.00  0.00     0.032 C 
ENDBRANCH  23  24
ENDBRANCH  19  23
ENDBRANCH   2  17
TORSDOF 5
ENDMDL
MODEL 9
REMARK VINA RESULT:      -6.8      2.118      3.853
REMARK  5 active torsions:
REMARK  status: ('A' for Active; 'I' for Inactive)
REMARK    1  A    between atoms: C_2  and  C_3 
REMARK    2  A    between atoms: C_11  and  N_12 
REMARK       I    between atoms: N_12  and  C_13 
REMARK    3  A    between atoms: C_13  and  C_14 
REMARK    4  A    between atoms: C_16  and  O_17 
REMARK    5  A    between atoms: O_17  and  C_18 
ROOT
HETATM    1  N   UNL     1     -42.498  56.110 -56.900  1.00  0.00    -0.323 N 
HETATM    2  C   UNL     1     -43.342  57.205 -56.839  1.00  0.00     0.256 C 
HETATM    3  O   UNL     1     -43.873  57.663 -55.833  1.00  0.00    -0.267 OA
HETATM    4  H   UNL     1     -42.187  55.805 -57.810  1.00  0.00     0.169 HD
ENDROOT
BRANCH   1   5
HETATM    5  C   UNL     1     -42.101  55.287 -55.822  1.00  0.00     0.035 A 
HETATM    6  C   UNL     1     -42.714  54.078 -55.494  1.00  0.00     0.030 A 
HETATM    7  C   UNL     1     -42.233  53.294 -54.435  1.00  0.00     0.016 A 
HETATM    8  C   UNL     1     -41.130  53.705 -53.677  1.00  0.00    -0.005 A 
HETATM    9  C   UNL     1     -40.535  54.933 -53.993  1.00  0.00     0.016 A 
HETATM   10  C   UNL     1     -41.012  55.714 -55.054  1.00  0.00     0.030 A 
BRANCH   8  11
HETATM   11  C   UNL     1     -40.600  52.872 -52.591  1.00  0.00     0.088 A 
HETATM   12  N   UNL     1     -39.863  51.774 -52.837  1.00  0.00    -0.175 NA
HETATM   13  N   UNL     1     -39.574  51.276 -51.625  1.00  0.00    -0.289 N 
HETATM   14  H   UNL     1     -39.013  50.432 -51.575  1.00  0.00     0.188 HD
HETATM   15  C   UNL     1     -40.097  51.999 -50.600  1.00  0.00     0.111 A 
HETATM   16  C   UNL     1     -40.768  53.043 -51.187  1.00  0.00     0.053 A 
ENDBRANCH   8  11
ENDBRANCH   1   5
BRANCH   2  17
HETATM   17  C   UNL     1     -43.651  57.865 -58.139  1.00  0.00     0.037 A 
HETATM   18  C   UNL     1     -43.174  59.162 -58.333  1.00  0.00     0.075 A 
HETATM   19  C   UNL     1     -43.429  59.775 -59.542  1.00  0.00     0.165 A 
HETATM   20  N   UNL     1     -44.119  59.200 -60.547  1.00  0.00    -0.237 NA
HETATM   21  C   UNL     1     -44.560  57.941 -60.338  1.00  0.00     0.120 A 
HETATM   22  C   UNL     1     -44.350  57.232 -59.166  1.00  0.00     0.036 A 
BRANCH  19  23
HETATM   23  O   UNL     1     -42.934  61.055 -59.700  1.00  0.00    -0.329 OA
BRANCH  23  24
HETATM   24  C   UNL     1     -41.502  61.203 -59.625  1.00  0.00     0.130 C 
HETATM   25  C   UNL     1     -40.858  62.330 -60.476  1.00  0.00     0.032 C 
HETATM   26  C   UNL     1     -39.923  62.608 -59.285  1.00  0.00     0.005 C 
HETATM   27  C   UNL     1     -41.002  61.985 -58.381  1.00  0.00     0.032 C 
ENDBRANCH  23  24
ENDBRANCH  19  23
ENDBRANCH   2  17
TORSDOF 5
ENDMDL
MODEL 10
REMARK VINA RESULT:      -6.8      2.116      3.746
REMARK  5 active torsions:
REMARK  status: ('A' for Active; 'I' for Inactive)
REMARK    1  A    between atoms: C_2  and  C_3 
REMARK    2  A    between atoms: C_11  and  N_12 
REMARK       I    between atoms: N_12  and  C_13 
REMARK    3  A    between atoms: C_13  and  C_14 
REMARK    4  A    between atoms: C_16  and  O_17 
REMARK    5  A    between atoms: O_17  and  C_18 
ROOT
HETATM    1  N   UNL     1     -41.521  56.241 -55.487  1.00  0.00    -0.323 N 
HETATM    2  C   UNL     1     -42.381  56.283 -56.570  1.00  0.00     0.256 C 
HETATM    3  O   UNL     1     -42.983  55.335 -57.061  1.00  0.00    -0.267 OA
HETATM    4  H   UNL     1     -41.041  57.092 -55.232  1.00  0.00     0.169 HD
ENDROOT
BRANCH   1   5
HETATM    5  C   UNL     1     -41.145  55.096 -54.748  1.00  0.00     0.035 A 
HETATM    6  C   UNL     1     -41.575  54.828 -53.449  1.00  0.00     0.030 A 
HETATM    7  C   UNL     1     -41.194  53.646 -52.797  1.00  0.00     0.016 A 
HETATM    8  C   UNL     1     -40.369  52.709 -53.428  1.00  0.00    -0.005 A 
HETATM    9  C   UNL     1     -39.917  52.996 -54.723  1.00  0.00     0.016 A 
HETATM   10  C   UNL     1     -40.302  54.174 -55.377  1.00  0.00     0.030 A 
BRANCH   8  11
HETATM   11  C   UNL     1     -39.995  51.454 -52.765  1.00  0.00     0.088 A 
HETATM   12  N   UNL     1     -39.696  51.408 -51.454  1.00  0.00    -0.175 NA
HETATM   13  N   UNL     1     -39.398  50.123 -51.214  1.00  0.00    -0.289 N 
HETATM   14  H   UNL     1     -39.140  49.859 -50.269  1.00  0.00     0.188 HD
HETATM   15  C   UNL     1     -39.482  49.330 -52.315  1.00  0.00     0.111 A 
HETATM   16  C   UNL     1     -39.868  50.157 -53.339  1.00  0.00     0.053 A 
ENDBRANCH   8  11
ENDBRANCH   1   5
BRANCH   2  17
HETATM   17  C   UNL     1     -42.560  57.617 -57.211  1.00  0.00     0.037 A 
HETATM   18  C   UNL     1     -42.671  58.726 -56.372  1.00  0.00     0.075 A 
HETATM   19  C   UNL     1     -42.810  59.969 -56.952  1.00  0.00     0.165 A 
HETATM   20  N   UNL     1     -42.854  60.178 -58.283  1.00  0.00    -0.237 NA
HETATM   21  C   UNL     1     -42.734  59.090 -59.073  1.00  0.00     0.120 A 
HETATM   22  C   UNL     1     -42.580  57.799 -58.594  1.00  0.00     0.036 A 
BRANCH  19  23
HETATM   23  O   UNL     1     -42.909  61.044 -56.089  1.00  0.00    -0.329 OA
BRANCH  23  24
HETATM   24  C   UNL     1     -43.448  60.768 -54.781  1.00  0.00     0.130 C 
HETATM   25  C   UNL     1     -42.498  60.949 -53.567  1.00  0.00     0.032 C 
HETATM   26  C   UNL     1     -43.688  61.561 -52.806  1.00  0.00     0.005 C 
HETATM   27  C   UNL     1     -44.287  61.927 -54.176  1.00  0.00     0.032 C 
ENDBRANCH  23  24
ENDBRANCH  19  23
ENDBRANCH   2  17
TORSDOF 5
ENDMDL
