MODEL 1
REMARK VINA RESULT:      -7.7      0.000      0.000
REMARK  5 active torsions:
REMARK  status: ('A' for Active; 'I' for Inactive)
REMARK    1  A    between atoms: C_2  and  C_3 
REMARK    2  A    between atoms: C_3  and  N_4 
REMARK    3  A    between atoms: C_3  and  C_19 
REMARK       I    between atoms: N_4  and  C_5 
REMARK       I    between atoms: C_5  and  N_6 
REMARK    4  A    between atoms: N_6  and  C_7 
REMARK    5  A    between atoms: C_12  and  C_13 
ROOT
HETATM    1  N   UNL     1     -42.030  57.663 -51.441  1.00  0.00    -0.334 N 
HETATM    2  C   UNL     1     -43.112  56.882 -51.248  1.00  0.00     0.321 C 
HETATM    3  N   UNL     1     -42.971  55.539 -51.140  1.00  0.00    -0.306 N 
HETATM    4  O   UNL     1     -44.253  57.340 -51.185  1.00  0.00    -0.247 OA
HETATM    5  H   UNL     1     -41.131  57.268 -51.227  1.00  0.00     0.165 HD
HETATM    6  H   UNL     1     -43.899  55.138 -51.055  1.00  0.00     0.171 HD
ENDROOT
BRANCH   1   7
HETATM    7  C   UNL     1     -42.124  59.113 -51.412  1.00  0.00     0.122 C 
BRANCH   7   8
HETATM    8  C   UNL     1     -40.996  59.740 -50.565  1.00  0.00     0.026 C 
HETATM    9  C   UNL     1     -39.620  59.122 -50.788  1.00  0.00     0.007 C 
ENDBRANCH   7   8
BRANCH   7  10
HETATM   10  C   UNL     1     -42.173  59.658 -52.809  1.00  0.00     0.001 A 
HETATM   11  C   UNL     1     -42.913  60.693 -53.353  1.00  0.00     0.122 A 
HETATM   12  N   UNL     1     -42.574  60.764 -54.672  1.00  0.00    -0.285 N 
HETATM   13  C   UNL     1     -43.081  61.694 -55.651  1.00  0.00     0.179 C 
HETATM   14  N   UNL     1     -41.671  59.842 -55.042  1.00  0.00    -0.185 NA
HETATM   15  C   UNL     1     -41.420  59.180 -53.913  1.00  0.00     0.149 A 
ENDBRANCH   7  10
ENDBRANCH   1   7
BRANCH   3  16
HETATM   16  C   UNL     1     -41.904  54.617 -51.120  1.00  0.00     0.075 A 
HETATM   17  C   UNL     1     -41.168  54.191 -50.011  1.00  0.00     0.143 A 
HETATM   18  F   UNL     1     -41.428  54.625 -48.773  1.00  0.00    -0.204 F 
HETATM   19  C   UNL     1     -40.134  53.259 -50.137  1.00  0.00     0.045 A 
HETATM   20  C   UNL     1     -39.819  52.720 -51.382  1.00  0.00     0.019 A 
HETATM   21  C   UNL     1     -40.535  53.117 -52.515  1.00  0.00     0.050 A 
HETATM   22  C   UNL     1     -41.574  54.059 -52.369  1.00  0.00     0.049 A 
BRANCH  21  23
HETATM   23  C   UNL     1     -40.240  52.524 -53.873  1.00  0.00     0.417 C 
HETATM   24  F   UNL     1     -39.890  53.453 -54.804  1.00  0.00    -0.166 F 
HETATM   25  F   UNL     1     -39.216  51.628 -53.830  1.00  0.00    -0.166 F 
HETATM   26  F   UNL     1     -41.304  51.853 -54.394  1.00  0.00    -0.166 F 
ENDBRANCH  21  23
ENDBRANCH   3  16
TORSDOF 5
ENDMDL
MODEL 2
REMARK VINA RESULT:      -7.4      2.167      2.622
REMARK  5 active torsions:
REMARK  status: ('A' for Active; 'I' for Inactive)
REMARK    1  A    between atoms: C_2  and  C_3 
REMARK    2  A    between atoms: C_3  and  N_4 
REMARK    3  A    between atoms: C_3  and  C_19 
REMARK       I    between atoms: N_4  and  C_5 
REMARK       I    between atoms: C_5  and  N_6 
REMARK    4  A    between atoms: N_6  and  C_7 
REMARK    5  A    between atoms: C_12  and  C_13 
ROOT
HETATM    1  N   UNL     1     -42.371  56.821 -53.483  1.00  0.00    -0.334 N 
HETATM    2  C   UNL     1     -43.280  56.430 -52.568  1.00  0.00     0.321 C 
HETATM    3  N   UNL     1     -43.035  55.355 -51.781  1.00  0.00    -0.306 N 
HETATM    4  O   UNL     1     -44.360  57.003 -52.424  1.00  0.00    -0.247 OA
HETATM    5  H   UNL     1     -41.430  56.483 -53.374  1.00  0.00     0.165 HD
HETATM    6  H   UNL     1     -43.857  55.198 -51.209  1.00  0.00     0.171 HD
ENDROOT
BRANCH   1   7
HETATM    7  C   UNL     1     -42.533  58.052 -54.238  1.00  0.00     0.122 C 
BRANCH   7   8
HETATM    8  C   UNL     1     -41.456  59.093 -53.866  1.00  0.00     0.026 C 
HETATM    9  C   UNL     1     -40.291  58.537 -53.055  1.00  0.00     0.007 C 
ENDBRANCH   7   8
BRANCH   7  10
HETATM   10  C   UNL     1     -42.574  57.758 -55.708  1.00  0.00     0.001 A 
HETATM   11  C   UNL     1     -42.802  56.575 -56.390  1.00  0.00     0.122 A 
HETATM   12  N   UNL     1     -42.723  56.870 -57.719  1.00  0.00    -0.285 N 
HETATM   13  C   UNL     1     -42.898  55.958 -58.824  1.00  0.00     0.179 C 
HETATM   14  N   UNL     1     -42.448  58.160 -57.966  1.00  0.00    -0.185 NA
HETATM   15  C   UNL     1     -42.368  58.700 -56.749  1.00  0.00     0.149 A 
ENDBRANCH   7  10
ENDBRANCH   1   7
BRANCH   3  16
HETATM   16  C   UNL     1     -41.971  54.451 -51.581  1.00  0.00     0.075 A 
HETATM   17  C   UNL     1     -41.322  54.154 -50.379  1.00  0.00     0.143 A 
HETATM   18  F   UNL     1     -41.678  54.716 -49.219  1.00  0.00    -0.204 F 
HETATM   19  C   UNL     1     -40.280  53.224 -50.324  1.00  0.00     0.045 A 
HETATM   20  C   UNL     1     -39.868  52.558 -51.476  1.00  0.00     0.019 A 
HETATM   21  C   UNL     1     -40.496  52.823 -52.697  1.00  0.00     0.050 A 
HETATM   22  C   UNL     1     -41.544  53.765 -52.733  1.00  0.00     0.049 A 
BRANCH  21  23
HETATM   23  C   UNL     1     -40.095  52.090 -53.955  1.00  0.00     0.417 C 
HETATM   24  F   UNL     1     -39.766  52.921 -54.983  1.00  0.00    -0.166 F 
HETATM   25  F   UNL     1     -39.016  51.286 -53.760  1.00  0.00    -0.166 F 
HETATM   26  F   UNL     1     -41.084  51.283 -54.429  1.00  0.00    -0.166 F 
ENDBRANCH  21  23
ENDBRANCH   3  16
TORSDOF 5
ENDMDL
MODEL 3
REMARK VINA RESULT:      -7.4      2.522      4.008
REMARK  5 active torsions:
REMARK  status: ('A' for Active; 'I' for Inactive)
REMARK    1  A    between atoms: C_2  and  C_3 
REMARK    2  A    between atoms: C_3  and  N_4 
REMARK    3  A    between atoms: C_3  and  C_19 
REMARK       I    between atoms: N_4  and  C_5 
REMARK       I    between atoms: C_5  and  N_6 
REMARK    4  A    between atoms: N_6  and  C_7 
REMARK    5  A    between atoms: C_12  and  C_13 
ROOT
HETATM    1  N   UNL     1     -42.537  57.112 -54.359  1.00  0.00    -0.334 N 
HETATM    2  C   UNL     1     -43.603  56.495 -53.809  1.00  0.00     0.321 C 
HETATM    3  N   UNL     1     -43.447  55.317 -53.160  1.00  0.00    -0.306 N 
HETATM    4  O   UNL     1     -44.743  56.952 -53.891  1.00  0.00    -0.247 OA
HETATM    5  H   UNL     1     -41.625  56.829 -54.041  1.00  0.00     0.165 HD
HETATM    6  H   UNL     1     -44.367  54.999 -52.875  1.00  0.00     0.171 HD
ENDROOT
BRANCH   1   7
HETATM    7  C   UNL     1     -42.640  58.444 -54.930  1.00  0.00     0.122 C 
BRANCH   7   8
HETATM    8  C   UNL     1     -41.682  59.436 -54.236  1.00  0.00     0.026 C 
HETATM    9  C   UNL     1     -40.665  58.787 -53.304  1.00  0.00     0.007 C 
ENDBRANCH   7   8
BRANCH   7  10
HETATM   10  C   UNL     1     -42.442  58.388 -56.416  1.00  0.00     0.001 A 
HETATM   11  C   UNL     1     -42.560  57.336 -57.306  1.00  0.00     0.122 A 
HETATM   12  N   UNL     1     -42.265  57.835 -58.541  1.00  0.00    -0.285 N 
HETATM   13  C   UNL     1     -42.260  57.115 -59.792  1.00  0.00     0.179 C 
HETATM   14  N   UNL     1     -41.951  59.139 -58.530  1.00  0.00    -0.185 NA
HETATM   15  C   UNL     1     -42.068  59.477 -57.245  1.00  0.00     0.149 A 
ENDBRANCH   7  10
ENDBRANCH   1   7
BRANCH   3  16
HETATM   16  C   UNL     1     -42.374  54.472 -52.808  1.00  0.00     0.075 A 
HETATM   17  C   UNL     1     -41.745  53.516 -53.611  1.00  0.00     0.143 A 
HETATM   18  F   UNL     1     -42.105  53.305 -54.882  1.00  0.00    -0.204 F 
HETATM   19  C   UNL     1     -40.681  52.748 -53.132  1.00  0.00     0.045 A 
HETATM   20  C   UNL     1     -40.211  52.928 -51.833  1.00  0.00     0.019 A 
HETATM   21  C   UNL     1     -40.809  53.878 -51.000  1.00  0.00     0.050 A 
HETATM   22  C   UNL     1     -41.883  54.642 -51.501  1.00  0.00     0.049 A 
BRANCH  21  23
HETATM   23  C   UNL     1     -40.299  54.120 -49.600  1.00  0.00     0.417 C 
HETATM   24  F   UNL     1     -40.431  53.040 -48.782  1.00  0.00    -0.166 F 
HETATM   25  F   UNL     1     -38.978  54.447 -49.584  1.00  0.00    -0.166 F 
HETATM   26  F   UNL     1     -40.946  55.144 -48.976  1.00  0.00    -0.166 F 
ENDBRANCH  21  23
ENDBRANCH   3  16
TORSDOF 5
ENDMDL
MODEL 4
REMARK VINA RESULT:      -7.2      2.453      3.461
REMARK  5 active torsions:
REMARK  status: ('A' for Active; 'I' for Inactive)
REMARK    1  A    between atoms: C_2  and  C_3 
REMARK    2  A    between atoms: C_3  and  N_4 
REMARK    3  A    between atoms: C_3  and  C_19 
REMARK       I    between atoms: N_4  and  C_5 
REMARK       I    between atoms: C_5  and  N_6 
REMARK    4  A    between atoms: N_6  and  C_7 
REMARK    5  A    between atoms: C_12  and  C_13 
ROOT
HETATM    1  N   UNL     1     -42.233  56.358 -53.029  1.00  0.00    -0.334 N 
HETATM    2  C   UNL     1     -42.593  55.552 -54.049  1.00  0.00     0.321 C 
HETATM    3  N   UNL     1     -42.075  54.305 -54.145  1.00  0.00    -0.306 N 
HETATM    4  O   UNL     1     -43.372  55.913 -54.932  1.00  0.00    -0.247 OA
HETATM    5  H   UNL     1     -41.811  55.926 -52.226  1.00  0.00     0.165 HD
HETATM    6  H   UNL     1     -42.427  53.890 -55.001  1.00  0.00     0.171 HD
ENDROOT
BRANCH   1   7
HETATM    7  C   UNL     1     -42.879  57.642 -52.811  1.00  0.00     0.122 C 
BRANCH   7   8
HETATM    8  C   UNL     1     -44.296  57.473 -52.222  1.00  0.00     0.026 C 
HETATM    9  C   UNL     1     -44.355  56.648 -50.942  1.00  0.00     0.007 C 
ENDBRANCH   7   8
BRANCH   7  10
HETATM   10  C   UNL     1     -42.004  58.527 -51.974  1.00  0.00     0.001 A 
HETATM   11  C   UNL     1     -40.653  58.449 -51.680  1.00  0.00     0.122 A 
HETATM   12  N   UNL     1     -40.369  59.509 -50.869  1.00  0.00    -0.285 N 
HETATM   13  C   UNL     1     -39.086  59.855 -50.307  1.00  0.00     0.179 C 
HETATM   14  N   UNL     1     -41.437  60.275 -50.597  1.00  0.00    -0.185 NA
HETATM   15  C   UNL     1     -42.424  59.687 -51.274  1.00  0.00     0.149 A 
ENDBRANCH   7  10
ENDBRANCH   1   7
BRANCH   3  16
HETATM   16  C   UNL     1     -41.210  53.490 -53.384  1.00  0.00     0.075 A 
HETATM   17  C   UNL     1     -40.671  53.765 -52.125  1.00  0.00     0.143 A 
HETATM   18  F   UNL     1     -40.952  54.891 -51.459  1.00  0.00    -0.204 F 
HETATM   19  C   UNL     1     -39.828  52.858 -51.479  1.00  0.00     0.045 A 
HETATM   20  C   UNL     1     -39.512  51.641 -52.077  1.00  0.00     0.019 A 
HETATM   21  C   UNL     1     -40.036  51.325 -53.335  1.00  0.00     0.050 A 
HETATM   22  C   UNL     1     -40.883  52.254 -53.972  1.00  0.00     0.049 A 
BRANCH  21  23
HETATM   23  C   UNL     1     -39.739  49.998 -53.993  1.00  0.00     0.417 C 
HETATM   24  F   UNL     1     -39.514  48.992 -53.104  1.00  0.00    -0.166 F 
HETATM   25  F   UNL     1     -40.762  49.579 -54.786  1.00  0.00    -0.166 F 
HETATM   26  F   UNL     1     -38.639  50.045 -54.793  1.00  0.00    -0.166 F 
ENDBRANCH  21  23
ENDBRANCH   3  16
TORSDOF 5
ENDMDL
MODEL 5
REMARK VINA RESULT:      -7.1      2.157      3.056
REMARK  5 active torsions:
REMARK  status: ('A' for Active; 'I' for Inactive)
REMARK    1  A    between atoms: C_2  and  C_3 
REMARK    2  A    between atoms: C_3  and  N_4 
REMARK    3  A    between atoms: C_3  and  C_19 
REMARK       I    between atoms: N_4  and  C_5 
REMARK       I    between atoms: C_5  and  N_6 
REMARK    4  A    between atoms: N_6  and  C_7 
REMARK    5  A    between atoms: C_12  and  C_13 
ROOT
HETATM    1  N   UNL     1     -43.332  57.588 -51.782  1.00  0.00    -0.334 N 
HETATM    2  C   UNL     1     -44.117  56.628 -51.255  1.00  0.00     0.321 C 
HETATM    3  N   UNL     1     -43.905  55.327 -51.568  1.00  0.00    -0.306 N 
HETATM    4  O   UNL     1     -45.056  56.883 -50.500  1.00  0.00    -0.247 OA
HETATM    5  H   UNL     1     -42.449  57.303 -52.169  1.00  0.00     0.165 HD
HETATM    6  H   UNL     1     -44.630  54.780 -51.117  1.00  0.00     0.171 HD
ENDROOT
BRANCH   1   7
HETATM    7  C   UNL     1     -43.434  58.973 -51.354  1.00  0.00     0.122 C 
BRANCH   7   8
HETATM    8  C   UNL     1     -42.046  59.639 -51.245  1.00  0.00     0.026 C 
HETATM    9  C   UNL     1     -40.964  58.751 -50.640  1.00  0.00     0.007 C 
ENDBRANCH   7   8
BRANCH   7  10
HETATM   10  C   UNL     1     -44.370  59.727 -52.252  1.00  0.00     0.001 A 
HETATM   11  C   UNL     1     -44.272  60.053 -53.593  1.00  0.00     0.122 A 
HETATM   12  N   UNL     1     -45.402  60.749 -53.909  1.00  0.00    -0.285 N 
HETATM   13  C   UNL     1     -45.756  61.295 -55.197  1.00  0.00     0.179 C 
HETATM   14  N   UNL     1     -46.235  60.915 -52.871  1.00  0.00    -0.185 NA
HETATM   15  C   UNL     1     -45.616  60.288 -51.870  1.00  0.00     0.149 A 
ENDBRANCH   7  10
ENDBRANCH   1   7
BRANCH   3  16
HETATM   16  C   UNL     1     -42.972  54.594 -52.332  1.00  0.00     0.075 A 
HETATM   17  C   UNL     1     -42.947  54.435 -53.720  1.00  0.00     0.143 A 
HETATM   18  F   UNL     1     -43.848  55.015 -54.521  1.00  0.00    -0.204 F 
HETATM   19  C   UNL     1     -41.952  53.681 -54.348  1.00  0.00     0.045 A 
HETATM   20  C   UNL     1     -40.948  53.074 -53.598  1.00  0.00     0.019 A 
HETATM   21  C   UNL     1     -40.936  53.213 -52.207  1.00  0.00     0.050 A 
HETATM   22  C   UNL     1     -41.948  53.976 -51.590  1.00  0.00     0.049 A 
BRANCH  21  23
HETATM   23  C   UNL     1     -39.840  52.596 -51.370  1.00  0.00     0.417 C 
HETATM   24  F   UNL     1     -40.305  51.763 -50.399  1.00  0.00    -0.166 F 
HETATM   25  F   UNL     1     -38.976  51.858 -52.119  1.00  0.00    -0.166 F 
HETATM   26  F   UNL     1     -39.080  53.529 -50.731  1.00  0.00    -0.166 F 
ENDBRANCH  21  23
ENDBRANCH   3  16
TORSDOF 5
ENDMDL
MODEL 6
REMARK VINA RESULT:      -7.1      3.739      4.519
REMARK  5 active torsions:
REMARK  status: ('A' for Active; 'I' for Inactive)
REMARK    1  A    between atoms: C_2  and  C_3 
REMARK    2  A    between atoms: C_3  and  N_4 
REMARK    3  A    between atoms: C_3  and  C_19 
REMARK       I    between atoms: N_4  and  C_5 
REMARK       I    between atoms: C_5  and  N_6 
REMARK    4  A    between atoms: N_6  and  C_7 
REMARK    5  A    between atoms: C_12  and  C_13 
ROOT
HETATM    1  N   UNL     1     -43.218  56.839 -55.412  1.00  0.00    -0.334 N 
HETATM    2  C   UNL     1     -44.190  56.640 -54.499  1.00  0.00     0.321 C 
HETATM    3  N   UNL     1     -43.939  55.905 -53.389  1.00  0.00    -0.306 N 
HETATM    4  O   UNL     1     -45.329  57.086 -54.639  1.00  0.00    -0.247 OA
HETATM    5  H   UNL     1     -42.270  56.676 -55.122  1.00  0.00     0.165 HD
HETATM    6  H   UNL     1     -44.806  55.831 -52.867  1.00  0.00     0.171 HD
ENDROOT
BRANCH   1   7
HETATM    7  C   UNL     1     -43.405  57.742 -56.535  1.00  0.00     0.122 C 
BRANCH   7   8
HETATM    8  C   UNL     1     -42.162  58.628 -56.767  1.00  0.00     0.026 C 
HETATM    9  C   UNL     1     -42.318  59.660 -57.878  1.00  0.00     0.007 C 
ENDBRANCH   7   8
BRANCH   7  10
HETATM   10  C   UNL     1     -43.805  56.972 -57.759  1.00  0.00     0.001 A 
HETATM   11  C   UNL     1     -44.902  57.102 -58.593  1.00  0.00     0.122 A 
HETATM   12  N   UNL     1     -44.776  56.143 -59.555  1.00  0.00    -0.285 N 
HETATM   13  C   UNL     1     -45.677  55.889 -60.654  1.00  0.00     0.179 C 
HETATM   14  N   UNL     1     -43.680  55.382 -59.411  1.00  0.00    -0.185 NA
HETATM   15  C   UNL     1     -43.087  55.890 -58.331  1.00  0.00     0.149 A 
ENDBRANCH   7  10
ENDBRANCH   1   7
BRANCH   3  16
HETATM   16  C   UNL     1     -42.826  55.252 -52.819  1.00  0.00     0.075 A 
HETATM   17  C   UNL     1     -42.296  55.436 -51.539  1.00  0.00     0.143 A 
HETATM   18  F   UNL     1     -42.835  56.288 -50.659  1.00  0.00    -0.204 F 
HETATM   19  C   UNL     1     -41.186  54.711 -51.099  1.00  0.00     0.045 A 
HETATM   20  C   UNL     1     -40.582  53.772 -51.932  1.00  0.00     0.019 A 
HETATM   21  C   UNL     1     -41.086  53.554 -53.218  1.00  0.00     0.050 A 
HETATM   22  C   UNL     1     -42.206  54.296 -53.645  1.00  0.00     0.049 A 
BRANCH  21  23
HETATM   23  C   UNL     1     -40.475  52.517 -54.130  1.00  0.00     0.417 C 
HETATM   24  F   UNL     1     -41.336  51.517 -54.465  1.00  0.00    -0.166 F 
HETATM   25  F   UNL     1     -40.047  53.055 -55.304  1.00  0.00    -0.166 F 
HETATM   26  F   UNL     1     -39.390  51.908 -53.579  1.00  0.00    -0.166 F 
ENDBRANCH  21  23
ENDBRANCH   3  16
TORSDOF 5
ENDMDL
MODEL 7
REMARK VINA RESULT:      -7.1      2.418      4.248
REMARK  5 active torsions:
REMARK  status: ('A' for Active; 'I' for Inactive)
REMARK    1  A    between atoms: C_2  and  C_3 
REMARK    2  A    between atoms: C_3  and  N_4 
REMARK    3  A    between atoms: C_3  and  C_19 
REMARK       I    between atoms: N_4  and  C_5 
REMARK       I    between atoms: C_5  and  N_6 
REMARK    4  A    between atoms: N_6  and  C_7 
REMARK    5  A    between atoms: C_12  and  C_13 
ROOT
HETATM    1  N   UNL     1     -41.983  55.821 -54.097  1.00  0.00    -0.334 N 
HETATM    2  C   UNL     1     -41.980  54.877 -55.059  1.00  0.00     0.321 C 
HETATM    3  N   UNL     1     -41.402  53.674 -54.830  1.00  0.00    -0.306 N 
HETATM    4  O   UNL     1     -42.471  55.068 -56.173  1.00  0.00    -0.247 OA
HETATM    5  H   UNL     1     -41.806  55.521 -53.154  1.00  0.00     0.165 HD
HETATM    6  H   UNL     1     -41.459  53.136 -55.688  1.00  0.00     0.171 HD
ENDROOT
BRANCH   1   7
HETATM    7  C   UNL     1     -42.722  57.063 -54.254  1.00  0.00     0.122 C 
BRANCH   7   8
HETATM    8  C   UNL     1     -44.242  56.845 -54.095  1.00  0.00     0.026 C 
HETATM    9  C   UNL     1     -45.102  57.665 -55.050  1.00  0.00     0.007 C 
ENDBRANCH   7   8
BRANCH   7  10
HETATM   10  C   UNL     1     -42.185  58.108 -53.320  1.00  0.00     0.001 A 
HETATM   11  C   UNL     1     -42.775  58.755 -52.249  1.00  0.00     0.122 A 
HETATM   12  N   UNL     1     -41.841  59.614 -51.749  1.00  0.00    -0.285 N 
HETATM   13  C   UNL     1     -41.990  60.502 -50.622  1.00  0.00     0.179 C 
HETATM   14  N   UNL     1     -40.678  59.589 -52.420  1.00  0.00    -0.185 NA
HETATM   15  C   UNL     1     -40.883  58.670 -53.364  1.00  0.00     0.149 A 
ENDBRANCH   7  10
ENDBRANCH   1   7
BRANCH   3  16
HETATM   16  C   UNL     1     -40.773  53.027 -53.746  1.00  0.00     0.075 A 
HETATM   17  C   UNL     1     -40.142  51.780 -53.749  1.00  0.00     0.143 A 
HETATM   18  F   UNL     1     -40.044  51.034 -54.855  1.00  0.00    -0.204 F 
HETATM   19  C   UNL     1     -39.549  51.260 -52.596  1.00  0.00     0.045 A 
HETATM   20  C   UNL     1     -39.565  51.986 -51.407  1.00  0.00     0.019 A 
HETATM   21  C   UNL     1     -40.182  53.240 -51.363  1.00  0.00     0.050 A 
HETATM   22  C   UNL     1     -40.776  53.747 -52.537  1.00  0.00     0.049 A 
BRANCH  21  23
HETATM   23  C   UNL     1     -40.184  54.065 -50.098  1.00  0.00     0.417 C 
HETATM   24  F   UNL     1     -40.823  53.460 -49.059  1.00  0.00    -0.166 F 
HETATM   25  F   UNL     1     -38.925  54.337 -49.660  1.00  0.00    -0.166 F 
HETATM   26  F   UNL     1     -40.794  55.271 -50.261  1.00  0.00    -0.166 F 
ENDBRANCH  21  23
ENDBRANCH   3  16
TORSDOF 5
ENDMDL
MODEL 8
REMARK VINA RESULT:      -7.0      4.825      7.095
REMARK  5 active torsions:
REMARK  status: ('A' for Active; 'I' for Inactive)
REMARK    1  A    between atoms: C_2  and  C_3 
REMARK    2  A    between atoms: C_3  and  N_4 
REMARK    3  A    between atoms: C_3  and  C_19 
REMARK       I    between atoms: N_4  and  C_5 
REMARK       I    between atoms: C_5  and  N_6 
REMARK    4  A    between atoms: N_6  and  C_7 
REMARK    5  A    between atoms: C_12  and  C_13 
ROOT
HETATM    1  N   UNL     1     -42.345  56.487 -54.809  1.00  0.00    -0.334 N 
HETATM    2  C   UNL     1     -43.649  56.722 -55.057  1.00  0.00     0.321 C 
HETATM    3  N   UNL     1     -44.072  56.935 -56.326  1.00  0.00    -0.306 N 
HETATM    4  O   UNL     1     -44.492  56.775 -54.161  1.00  0.00    -0.247 OA
HETATM    5  H   UNL     1     -41.770  56.204 -55.585  1.00  0.00     0.165 HD
HETATM    6  H   UNL     1     -45.064  57.145 -56.288  1.00  0.00     0.171 HD
ENDROOT
BRANCH   1   7
HETATM    7  C   UNL     1     -41.879  56.106 -53.486  1.00  0.00     0.122 C 
BRANCH   7   8
HETATM    8  C   UNL     1     -40.905  54.910 -53.547  1.00  0.00     0.026 C 
HETATM    9  C   UNL     1     -40.389  54.586 -54.945  1.00  0.00     0.007 C 
ENDBRANCH   7   8
BRANCH   7  10
HETATM   10  C   UNL     1     -41.296  57.295 -52.780  1.00  0.00     0.001 A 
HETATM   11  C   UNL     1     -41.351  57.676 -51.451  1.00  0.00     0.122 A 
HETATM   12  N   UNL     1     -40.652  58.843 -51.350  1.00  0.00    -0.285 N 
HETATM   13  C   UNL     1     -40.424  59.620 -50.156  1.00  0.00     0.179 C 
HETATM   14  N   UNL     1     -40.147  59.266 -52.520  1.00  0.00    -0.185 NA
HETATM   15  C   UNL     1     -40.528  58.324 -53.383  1.00  0.00     0.149 A 
ENDBRANCH   7  10
ENDBRANCH   1   7
BRANCH   3  16
HETATM   16  C   UNL     1     -43.497  56.939 -57.614  1.00  0.00     0.075 A 
HETATM   17  C   UNL     1     -43.278  55.841 -58.451  1.00  0.00     0.143 A 
HETATM   18  F   UNL     1     -43.633  54.599 -58.104  1.00  0.00    -0.204 F 
HETATM   19  C   UNL     1     -42.701  55.992 -59.714  1.00  0.00     0.045 A 
HETATM   20  C   UNL     1     -42.338  57.254 -60.177  1.00  0.00     0.019 A 
HETATM   21  C   UNL     1     -42.545  58.378 -59.372  1.00  0.00     0.050 A 
HETATM   22  C   UNL     1     -43.127  58.207 -58.100  1.00  0.00     0.049 A 
BRANCH  21  23
HETATM   23  C   UNL     1     -42.194  59.764 -59.861  1.00  0.00     0.417 C 
HETATM   24  F   UNL     1     -41.549  59.767 -61.060  1.00  0.00    -0.166 F 
HETATM   25  F   UNL     1     -43.295  60.546 -60.023  1.00  0.00    -0.166 F 
HETATM   26  F   UNL     1     -41.382  60.434 -58.997  1.00  0.00    -0.166 F 
ENDBRANCH  21  23
ENDBRANCH   3  16
TORSDOF 5
ENDMDL
MODEL 9
REMARK VINA RESULT:      -6.9      3.902      5.266
REMARK  5 active torsions:
REMARK  status: ('A' for Active; 'I' for Inactive)
REMARK    1  A    between atoms: C_2  and  C_3 
REMARK    2  A    between atoms: C_3  and  N_4 
REMARK    3  A    between atoms: C_3  and  C_19 
REMARK       I    between atoms: N_4  and  C_5 
REMARK       I    between atoms: C_5  and  N_6 
REMARK    4  A    between atoms: N_6  and  C_7 
REMARK    5  A    between atoms: C_12  and  C_13 
ROOT
HETATM    1  N   UNL     1     -43.395  56.855 -55.775  1.00  0.00    -0.334 N 
HETATM    2  C   UNL     1     -44.210  56.733 -54.708  1.00  0.00     0.321 C 
HETATM    3  N   UNL     1     -43.923  55.838 -53.732  1.00  0.00    -0.306 N 
HETATM    4  O   UNL     1     -45.240  57.396 -54.584  1.00  0.00    -0.247 OA
HETATM    5  H   UNL     1     -42.464  56.486 -55.690  1.00  0.00     0.165 HD
HETATM    6  H   UNL     1     -44.680  55.864 -53.058  1.00  0.00     0.171 HD
ENDROOT
BRANCH   1   7
HETATM    7  C   UNL     1     -43.589  57.904 -56.762  1.00  0.00     0.122 C 
BRANCH   7   8
HETATM    8  C   UNL     1     -42.255  58.585 -57.138  1.00  0.00     0.026 C 
HETATM    9  C   UNL     1     -42.128  60.030 -56.668  1.00  0.00     0.007 C 
ENDBRANCH   7   8
BRANCH   7  10
HETATM   10  C   UNL     1     -44.322  57.365 -57.955  1.00  0.00     0.001 A 
HETATM   11  C   UNL     1     -43.969  56.388 -58.869  1.00  0.00     0.122 A 
HETATM   12  N   UNL     1     -45.001  56.292 -59.756  1.00  0.00    -0.285 N 
HETATM   13  C   UNL     1     -45.096  55.402 -60.888  1.00  0.00     0.179 C 
HETATM   14  N   UNL     1     -46.007  57.143 -59.499  1.00  0.00    -0.185 NA
HETATM   15  C   UNL     1     -45.601  57.785 -58.403  1.00  0.00     0.149 A 
ENDBRANCH   7  10
ENDBRANCH   1   7
BRANCH   3  16
HETATM   16  C   UNL     1     -42.884  54.927 -53.447  1.00  0.00     0.075 A 
HETATM   17  C   UNL     1     -42.408  53.897 -54.261  1.00  0.00     0.143 A 
HETATM   18  F   UNL     1     -42.906  53.665 -55.482  1.00  0.00    -0.204 F 
HETATM   19  C   UNL     1     -41.360  53.069 -53.852  1.00  0.00     0.045 A 
HETATM   20  C   UNL     1     -40.752  53.262 -52.614  1.00  0.00     0.019 A 
HETATM   21  C   UNL     1     -41.195  54.286 -51.771  1.00  0.00     0.050 A 
HETATM   22  C   UNL     1     -42.255  55.110 -52.201  1.00  0.00     0.049 A 
BRANCH  21  23
HETATM   23  C   UNL     1     -40.533  54.542 -50.438  1.00  0.00     0.417 C 
HETATM   24  F   UNL     1     -41.262  54.099 -49.378  1.00  0.00    -0.166 F 
HETATM   25  F   UNL     1     -39.320  53.934 -50.343  1.00  0.00    -0.166 F 
HETATM   26  F   UNL     1     -40.307  55.866 -50.211  1.00  0.00    -0.166 F 
ENDBRANCH  21  23
ENDBRANCH   3  16
TORSDOF 5
ENDMDL
MODEL 10
REMARK VINA RESULT:      -6.8      2.730      3.772
REMARK  5 active torsions:
REMARK  status: ('A' for Active; 'I' for Inactive)
REMARK    1  A    between atoms: C_2  and  C_3 
REMARK    2  A    between atoms: C_3  and  N_4 
REMARK    3  A    between atoms: C_3  and  C_19 
REMARK       I    between atoms: N_4  and  C_5 
REMARK       I    between atoms: C_5  and  N_6 
REMARK    4  A    between atoms: N_6  and  C_7 
REMARK    5  A    between atoms: C_12  and  C_13 
ROOT
HETATM    1  N   UNL     1     -42.990  58.709 -52.940  1.00  0.00    -0.334 N 
HETATM    2  C   UNL     1     -41.714  58.758 -53.376  1.00  0.00     0.321 C 
HETATM    3  N   UNL     1     -40.902  57.685 -53.223  1.00  0.00    -0.306 N 
HETATM    4  O   UNL     1     -41.234  59.764 -53.900  1.00  0.00    -0.247 OA
HETATM    5  H   UNL     1     -43.384  57.801 -52.766  1.00  0.00     0.165 HD
HETATM    6  H   UNL     1     -39.982  57.945 -53.562  1.00  0.00     0.171 HD
ENDROOT
BRANCH   1   7
HETATM    7  C   UNL     1     -43.930  59.781 -53.221  1.00  0.00     0.122 C 
BRANCH   7   8
HETATM    8  C   UNL     1     -44.852  59.433 -54.409  1.00  0.00     0.026 C 
HETATM    9  C   UNL     1     -44.984  57.940 -54.691  1.00  0.00     0.007 C 
ENDBRANCH   7   8
BRANCH   7  10
HETATM   10  C   UNL     1     -44.693  60.140 -51.979  1.00  0.00     0.001 A 
HETATM   11  C   UNL     1     -44.955  61.369 -51.401  1.00  0.00     0.122 A 
HETATM   12  N   UNL     1     -45.691  61.124 -50.279  1.00  0.00    -0.285 N 
HETATM   13  C   UNL     1     -46.209  62.097 -49.348  1.00  0.00     0.179 C 
HETATM   14  N   UNL     1     -45.925  59.819 -50.068  1.00  0.00    -0.185 NA
HETATM   15  C   UNL     1     -45.330  59.224 -51.103  1.00  0.00     0.149 A 
ENDBRANCH   7  10
ENDBRANCH   1   7
BRANCH   3  16
HETATM   16  C   UNL     1     -41.020  56.369 -52.730  1.00  0.00     0.075 A 
HETATM   17  C   UNL     1     -41.414  55.973 -51.449  1.00  0.00     0.143 A 
HETATM   18  F   UNL     1     -41.761  56.854 -50.505  1.00  0.00    -0.204 F 
HETATM   19  C   UNL     1     -41.495  54.623 -51.097  1.00  0.00     0.045 A 
HETATM   20  C   UNL     1     -41.193  53.632 -52.027  1.00  0.00     0.019 A 
HETATM   21  C   UNL     1     -40.800  53.987 -53.321  1.00  0.00     0.050 A 
HETATM   22  C   UNL     1     -40.722  55.354 -53.658  1.00  0.00     0.049 A 
BRANCH  21  23
HETATM   23  C   UNL     1     -40.499  52.935 -54.363  1.00  0.00     0.417 C 
HETATM   24  F   UNL     1     -41.555  52.117 -54.625  1.00  0.00    -0.166 F 
HETATM   25  F   UNL     1     -40.140  53.482 -55.556  1.00  0.00    -0.166 F 
HETATM   26  F   UNL     1     -39.473  52.118 -54.000  1.00  0.00    -0.166 F 
ENDBRANCH  21  23
ENDBRANCH   3  16
TORSDOF 5
ENDMDL
