MODEL 1
REMARK VINA RESULT:      -7.7      0.000      0.000
REMARK  2 active torsions:
REMARK  status: ('A' for Active; 'I' for Inactive)
REMARK    1  A    between atoms: C_12  and  C_13 
REMARK    2  A    between atoms: C_16  and  O_17 
ROOT
HETATM    1  C   UNL     1     -35.359  41.509 -57.713  1.00  0.00     0.002 A 
HETATM    2  C   UNL     1     -34.684  41.243 -56.522  1.00  0.00     0.026 A 
HETATM    3  C   UNL     1     -35.310  41.455 -55.289  1.00  0.00     0.036 A 
HETATM    4  C   UNL     1     -36.649  41.908 -55.246  1.00  0.00     0.053 A 
HETATM    5  N   UNL     1     -37.360  42.047 -54.024  1.00  0.00    -0.356 N 
HETATM    6  C   UNL     1     -37.324  41.064 -53.051  1.00  0.00     0.041 A 
HETATM    7  C   UNL     1     -36.332  40.202 -52.767  1.00  0.00     0.056 A 
HETATM    8  C   UNL     1     -36.879  39.232 -51.803  1.00  0.00     0.251 A 
HETATM    9  O   UNL     1     -36.346  38.214 -51.409  1.00  0.00    -0.268 OA
HETATM   10  N   UNL     1     -38.137  39.658 -51.463  1.00  0.00    -0.351 N 
HETATM   11  C   UNL     1     -38.541  40.802 -52.205  1.00  0.00     0.180 A 
HETATM   12  C   UNL     1     -34.943  40.083 -53.299  1.00  0.00     0.134 C 
HETATM   13  N   UNL     1     -34.554  41.257 -54.112  1.00  0.00    -0.278 NA
HETATM   14  C   UNL     1     -37.306  42.191 -56.454  1.00  0.00     0.031 A 
HETATM   15  C   UNL     1     -36.665  41.992 -57.679  1.00  0.00     0.002 A 
HETATM   16  H   UNL     1     -38.282  42.453 -54.162  1.00  0.00     0.166 HD
HETATM   17  H   UNL     1     -38.723  39.105 -50.852  1.00  0.00     0.163 HD
HETATM   18  H   UNL     1     -34.720  42.085 -53.539  1.00  0.00     0.128 HD
ENDROOT
BRANCH  12  19
HETATM   19  C   UNL     1     -33.893  39.972 -52.190  1.00  0.00    -0.035 A 
HETATM   20  C   UNL     1     -32.945  38.933 -52.217  1.00  0.00     0.012 A 
HETATM   21  C   UNL     1     -31.985  38.814 -51.209  1.00  0.00     0.037 A 
HETATM   22  C   UNL     1     -31.962  39.738 -50.170  1.00  0.00     0.065 A 
HETATM   23  C   UNL     1     -32.883  40.775 -50.120  1.00  0.00     0.037 A 
HETATM   24  C   UNL     1     -33.847  40.892 -51.124  1.00  0.00     0.012 A 
BRANCH  22  25
HETATM   25  O   UNL     1     -31.041  39.657 -49.167  1.00  0.00    -0.361 OA
HETATM   26  H   UNL     1     -31.188  40.400 -48.558  1.00  0.00     0.217 HD
ENDBRANCH  22  25
ENDBRANCH  12  19
TORSDOF 2
ENDMDL
MODEL 2
REMARK VINA RESULT:      -7.7     15.422     17.654
REMARK  2 active torsions:
REMARK  status: ('A' for Active; 'I' for Inactive)
REMARK    1  A    between atoms: C_12  and  C_13 
REMARK    2  A    between atoms: C_16  and  O_17 
ROOT
HETATM    1  C   UNL     1     -39.854  51.554 -53.931  1.00  0.00     0.002 A 
HETATM    2  C   UNL     1     -40.758  52.534 -54.341  1.00  0.00     0.026 A 
HETATM    3  C   UNL     1     -41.273  53.454 -53.423  1.00  0.00     0.036 A 
HETATM    4  C   UNL     1     -40.847  53.417 -52.074  1.00  0.00     0.053 A 
HETATM    5  N   UNL     1     -41.266  54.388 -51.124  1.00  0.00    -0.356 N 
HETATM    6  C   UNL     1     -41.265  55.739 -51.424  1.00  0.00     0.041 A 
HETATM    7  C   UNL     1     -41.447  56.333 -52.616  1.00  0.00     0.056 A 
HETATM    8  C   UNL     1     -41.133  57.760 -52.427  1.00  0.00     0.251 A 
HETATM    9  O   UNL     1     -41.040  58.608 -53.293  1.00  0.00    -0.268 OA
HETATM   10  N   UNL     1     -40.911  57.958 -51.089  1.00  0.00    -0.351 N 
HETATM   11  C   UNL     1     -40.946  56.744 -50.349  1.00  0.00     0.180 A 
HETATM   12  C   UNL     1     -41.813  55.779 -53.952  1.00  0.00     0.134 C 
HETATM   13  N   UNL     1     -42.253  54.368 -53.869  1.00  0.00    -0.278 NA
HETATM   14  C   UNL     1     -39.954  52.412 -51.674  1.00  0.00     0.031 A 
HETATM   15  C   UNL     1     -39.460  51.486 -52.597  1.00  0.00     0.002 A 
HETATM   16  H   UNL     1     -40.930  54.175 -50.188  1.00  0.00     0.166 HD
HETATM   17  H   UNL     1     -40.620  58.862 -50.741  1.00  0.00     0.163 HD
HETATM   18  H   UNL     1     -42.999  54.328 -53.173  1.00  0.00     0.128 HD
ENDROOT
BRANCH  12  19
HETATM   19  C   UNL     1     -42.965  56.541 -54.612  1.00  0.00    -0.035 A 
HETATM   20  C   UNL     1     -42.836  57.008 -55.933  1.00  0.00     0.012 A 
HETATM   21  C   UNL     1     -43.875  57.711 -56.548  1.00  0.00     0.037 A 
HETATM   22  C   UNL     1     -45.054  57.946 -55.848  1.00  0.00     0.065 A 
HETATM   23  C   UNL     1     -45.208  57.494 -54.545  1.00  0.00     0.037 A 
HETATM   24  C   UNL     1     -44.169  56.796 -53.927  1.00  0.00     0.012 A 
BRANCH  22  25
HETATM   25  O   UNL     1     -46.091  58.628 -56.412  1.00  0.00    -0.361 OA
HETATM   26  H   UNL     1     -45.922  58.706 -57.365  1.00  0.00     0.217 HD
ENDBRANCH  22  25
ENDBRANCH  12  19
TORSDOF 2
ENDMDL
MODEL 3
REMARK VINA RESULT:      -7.7     16.479     19.368
REMARK  2 active torsions:
REMARK  status: ('A' for Active; 'I' for Inactive)
REMARK    1  A    between atoms: C_12  and  C_13 
REMARK    2  A    between atoms: C_16  and  O_17 
ROOT
HETATM    1  C   UNL     1     -41.457  53.673 -53.965  1.00  0.00     0.002 A 
HETATM    2  C   UNL     1     -42.236  53.934 -55.092  1.00  0.00     0.026 A 
HETATM    3  C   UNL     1     -42.652  55.237 -55.381  1.00  0.00     0.036 A 
HETATM    4  C   UNL     1     -42.252  56.307 -54.547  1.00  0.00     0.053 A 
HETATM    5  N   UNL     1     -42.567  57.659 -54.850  1.00  0.00    -0.356 N 
HETATM    6  C   UNL     1     -42.406  58.170 -56.126  1.00  0.00     0.041 A 
HETATM    7  C   UNL     1     -42.503  57.529 -57.304  1.00  0.00     0.056 A 
HETATM    8  C   UNL     1     -42.029  58.468 -58.335  1.00  0.00     0.251 A 
HETATM    9  O   UNL     1     -41.827  58.224 -59.508  1.00  0.00    -0.268 OA
HETATM   10  N   UNL     1     -41.803  59.672 -57.720  1.00  0.00    -0.351 N 
HETATM   11  C   UNL     1     -41.987  59.604 -56.311  1.00  0.00     0.180 A 
HETATM   12  C   UNL     1     -42.913  56.134 -57.640  1.00  0.00     0.134 C 
HETATM   13  N   UNL     1     -43.515  55.435 -56.483  1.00  0.00    -0.278 NA
HETATM   14  C   UNL     1     -41.486  56.024 -53.406  1.00  0.00     0.031 A 
HETATM   15  C   UNL     1     -41.090  54.715 -53.117  1.00  0.00     0.002 A 
HETATM   16  H   UNL     1     -42.271  58.294 -54.114  1.00  0.00     0.166 HD
HETATM   17  H   UNL     1     -41.414  60.451 -58.234  1.00  0.00     0.163 HD
HETATM   18  H   UNL     1     -44.269  56.028 -56.135  1.00  0.00     0.128 HD
ENDROOT
BRANCH  12  19
HETATM   19  C   UNL     1     -43.960  56.080 -58.756  1.00  0.00    -0.035 A 
HETATM   20  C   UNL     1     -43.866  55.105 -59.765  1.00  0.00     0.012 A 
HETATM   21  C   UNL     1     -44.810  55.045 -60.794  1.00  0.00     0.037 A 
HETATM   22  C   UNL     1     -45.859  55.957 -60.816  1.00  0.00     0.065 A 
HETATM   23  C   UNL     1     -45.978  56.928 -59.832  1.00  0.00     0.037 A 
HETATM   24  C   UNL     1     -45.033  56.992 -58.806  1.00  0.00     0.012 A 
BRANCH  22  25
HETATM   25  O   UNL     1     -46.801  55.933 -61.803  1.00  0.00    -0.361 OA
HETATM   26  H   UNL     1     -47.489  55.296 -61.551  1.00  0.00     0.217 HD
ENDBRANCH  22  25
ENDBRANCH  12  19
TORSDOF 2
ENDMDL
MODEL 4
REMARK VINA RESULT:      -7.6     14.336     16.046
REMARK  2 active torsions:
REMARK  status: ('A' for Active; 'I' for Inactive)
REMARK    1  A    between atoms: C_12  and  C_13 
REMARK    2  A    between atoms: C_16  and  O_17 
ROOT
HETATM    1  C   UNL     1     -39.555  50.341 -51.961  1.00  0.00     0.002 A 
HETATM    2  C   UNL     1     -39.678  51.704 -51.697  1.00  0.00     0.026 A 
HETATM    3  C   UNL     1     -40.106  52.585 -52.696  1.00  0.00     0.036 A 
HETATM    4  C   UNL     1     -40.454  52.087 -53.973  1.00  0.00     0.053 A 
HETATM    5  N   UNL     1     -40.985  52.925 -54.991  1.00  0.00    -0.356 N 
HETATM    6  C   UNL     1     -41.986  53.842 -54.722  1.00  0.00     0.041 A 
HETATM    7  C   UNL     1     -42.229  54.505 -53.577  1.00  0.00     0.056 A 
HETATM    8  C   UNL     1     -43.526  55.181 -53.751  1.00  0.00     0.251 A 
HETATM    9  O   UNL     1     -44.164  55.766 -52.898  1.00  0.00    -0.268 OA
HETATM   10  N   UNL     1     -43.918  54.990 -55.050  1.00  0.00    -0.351 N 
HETATM   11  C   UNL     1     -43.032  54.136 -55.764  1.00  0.00     0.180 A 
HETATM   12  C   UNL     1     -41.475  54.570 -52.292  1.00  0.00     0.134 C 
HETATM   13  N   UNL     1     -40.127  53.967 -52.405  1.00  0.00    -0.278 NA
HETATM   14  C   UNL     1     -40.303  50.715 -54.228  1.00  0.00     0.031 A 
HETATM   15  C   UNL     1     -39.857  49.847 -53.228  1.00  0.00     0.002 A 
HETATM   16  H   UNL     1     -41.111  52.427 -55.868  1.00  0.00     0.166 HD
HETATM   17  H   UNL     1     -44.816  55.324 -55.375  1.00  0.00     0.163 HD
HETATM   18  H   UNL     1     -39.663  54.418 -53.194  1.00  0.00     0.128 HD
ENDROOT
BRANCH  12  19
HETATM   19  C   UNL     1     -41.254  56.006 -51.809  1.00  0.00    -0.035 A 
HETATM   20  C   UNL     1     -40.906  57.013 -52.727  1.00  0.00     0.012 A 
HETATM   21  C   UNL     1     -40.695  58.328 -52.301  1.00  0.00     0.037 A 
HETATM   22  C   UNL     1     -40.837  58.645 -50.955  1.00  0.00     0.065 A 
HETATM   23  C   UNL     1     -41.183  57.671 -50.028  1.00  0.00     0.037 A 
HETATM   24  C   UNL     1     -41.389  56.356 -50.451  1.00  0.00     0.012 A 
BRANCH  22  25
HETATM   25  O   UNL     1     -40.640  59.915 -50.499  1.00  0.00    -0.361 OA
HETATM   26  H   UNL     1     -39.861  60.281 -50.948  1.00  0.00     0.217 HD
ENDBRANCH  22  25
ENDBRANCH  12  19
TORSDOF 2
ENDMDL
MODEL 5
REMARK VINA RESULT:      -7.6     16.073     18.039
REMARK  2 active torsions:
REMARK  status: ('A' for Active; 'I' for Inactive)
REMARK    1  A    between atoms: C_12  and  C_13 
REMARK    2  A    between atoms: C_16  and  O_17 
ROOT
HETATM    1  C   UNL     1     -40.097  52.401 -52.173  1.00  0.00     0.002 A 
HETATM    2  C   UNL     1     -40.495  53.724 -51.983  1.00  0.00     0.026 A 
HETATM    3  C   UNL     1     -40.735  54.558 -53.079  1.00  0.00     0.036 A 
HETATM    4  C   UNL     1     -40.611  54.049 -54.393  1.00  0.00     0.053 A 
HETATM    5  N   UNL     1     -40.937  54.826 -55.537  1.00  0.00    -0.356 N 
HETATM    6  C   UNL     1     -42.097  55.578 -55.594  1.00  0.00     0.041 A 
HETATM    7  C   UNL     1     -42.764  56.167 -54.585  1.00  0.00     0.056 A 
HETATM    8  C   UNL     1     -44.037  56.649 -55.148  1.00  0.00     0.251 A 
HETATM    9  O   UNL     1     -44.979  57.110 -54.533  1.00  0.00    -0.268 OA
HETATM   10  N   UNL     1     -43.994  56.437 -56.501  1.00  0.00    -0.351 N 
HETATM   11  C   UNL     1     -42.820  55.743 -56.904  1.00  0.00     0.180 A 
HETATM   12  C   UNL     1     -42.441  56.308 -53.135  1.00  0.00     0.134 C 
HETATM   13  N   UNL     1     -41.047  55.914 -52.833  1.00  0.00    -0.278 NA
HETATM   14  C   UNL     1     -40.190  52.722 -54.567  1.00  0.00     0.031 A 
HETATM   15  C   UNL     1     -39.935  51.903 -53.464  1.00  0.00     0.002 A 
HETATM   16  H   UNL     1     -40.722  54.339 -56.404  1.00  0.00     0.166 HD
HETATM   17  H   UNL     1     -44.796  56.643 -57.083  1.00  0.00     0.163 HD
HETATM   18  H   UNL     1     -40.443  56.450 -53.457  1.00  0.00     0.128 HD
ENDROOT
BRANCH  12  19
HETATM   19  C   UNL     1     -42.590  57.748 -52.635  1.00  0.00    -0.035 A 
HETATM   20  C   UNL     1     -41.821  58.776 -53.208  1.00  0.00     0.012 A 
HETATM   21  C   UNL     1     -41.940  60.094 -52.759  1.00  0.00     0.037 A 
HETATM   22  C   UNL     1     -42.835  60.393 -51.736  1.00  0.00     0.065 A 
HETATM   23  C   UNL     1     -43.607  59.398 -51.155  1.00  0.00     0.037 A 
HETATM   24  C   UNL     1     -43.486  58.079 -51.600  1.00  0.00     0.012 A 
BRANCH  22  25
HETATM   25  O   UNL     1     -42.980  61.666 -51.269  1.00  0.00    -0.361 OA
HETATM   26  H   UNL     1     -42.146  62.140 -51.414  1.00  0.00     0.217 HD
ENDBRANCH  22  25
ENDBRANCH  12  19
TORSDOF 2
ENDMDL
MODEL 6
REMARK VINA RESULT:      -7.2     16.353     18.414
REMARK  2 active torsions:
REMARK  status: ('A' for Active; 'I' for Inactive)
REMARK    1  A    between atoms: C_12  and  C_13 
REMARK    2  A    between atoms: C_16  and  O_17 
ROOT
HETATM    1  C   UNL     1     -40.825  54.255 -48.734  1.00  0.00     0.002 A 
HETATM    2  C   UNL     1     -41.081  55.416 -49.461  1.00  0.00     0.026 A 
HETATM    3  C   UNL     1     -41.071  55.395 -50.860  1.00  0.00     0.036 A 
HETATM    4  C   UNL     1     -40.836  54.180 -51.544  1.00  0.00     0.053 A 
HETATM    5  N   UNL     1     -40.910  54.086 -52.960  1.00  0.00    -0.356 N 
HETATM    6  C   UNL     1     -41.953  54.656 -53.669  1.00  0.00     0.041 A 
HETATM    7  C   UNL     1     -42.672  55.751 -53.366  1.00  0.00     0.056 A 
HETATM    8  C   UNL     1     -43.791  55.797 -54.322  1.00  0.00     0.251 A 
HETATM    9  O   UNL     1     -44.743  56.552 -54.295  1.00  0.00    -0.268 OA
HETATM   10  N   UNL     1     -43.595  54.792 -55.233  1.00  0.00    -0.351 N 
HETATM   11  C   UNL     1     -42.470  53.983 -54.912  1.00  0.00     0.180 A 
HETATM   12  C   UNL     1     -42.530  56.756 -52.272  1.00  0.00     0.134 C 
HETATM   13  N   UNL     1     -41.246  56.616 -51.549  1.00  0.00    -0.278 NA
HETATM   14  C   UNL     1     -40.559  53.025 -50.797  1.00  0.00     0.031 A 
HETATM   15  C   UNL     1     -40.554  53.062 -49.400  1.00  0.00     0.002 A 
HETATM   16  H   UNL     1     -40.642  53.164 -53.296  1.00  0.00     0.166 HD
HETATM   17  H   UNL     1     -44.281  54.604 -55.951  1.00  0.00     0.163 HD
HETATM   18  H   UNL     1     -40.504  56.642 -52.249  1.00  0.00     0.128 HD
ENDROOT
BRANCH  12  19
HETATM   19  C   UNL     1     -42.568  58.198 -52.786  1.00  0.00    -0.035 A 
HETATM   20  C   UNL     1     -43.458  59.126 -52.216  1.00  0.00     0.012 A 
HETATM   21  C   UNL     1     -43.510  60.444 -52.677  1.00  0.00     0.037 A 
HETATM   22  C   UNL     1     -42.667  60.844 -53.709  1.00  0.00     0.065 A 
HETATM   23  C   UNL     1     -41.778  59.949 -54.288  1.00  0.00     0.037 A 
HETATM   24  C   UNL     1     -41.729  58.630 -53.831  1.00  0.00     0.012 A 
BRANCH  22  25
HETATM   25  O   UNL     1     -42.687  62.120 -54.189  1.00  0.00    -0.361 OA
HETATM   26  H   UNL     1     -42.727  62.080 -55.158  1.00  0.00     0.217 HD
ENDBRANCH  22  25
ENDBRANCH  12  19
TORSDOF 2
ENDMDL
MODEL 7
REMARK VINA RESULT:      -7.1     16.578     18.593
REMARK  2 active torsions:
REMARK  status: ('A' for Active; 'I' for Inactive)
REMARK    1  A    between atoms: C_12  and  C_13 
REMARK    2  A    between atoms: C_16  and  O_17 
ROOT
HETATM    1  C   UNL     1     -40.569  52.645 -52.821  1.00  0.00     0.002 A 
HETATM    2  C   UNL     1     -41.174  53.818 -52.371  1.00  0.00     0.026 A 
HETATM    3  C   UNL     1     -41.294  54.925 -53.217  1.00  0.00     0.036 A 
HETATM    4  C   UNL     1     -40.832  54.846 -54.551  1.00  0.00     0.053 A 
HETATM    5  N   UNL     1     -41.016  55.908 -55.477  1.00  0.00    -0.356 N 
HETATM    6  C   UNL     1     -42.231  56.559 -55.598  1.00  0.00     0.041 A 
HETATM    7  C   UNL     1     -43.167  56.767 -54.656  1.00  0.00     0.056 A 
HETATM    8  C   UNL     1     -44.349  57.306 -55.349  1.00  0.00     0.251 A 
HETATM    9  O   UNL     1     -45.452  57.493 -54.874  1.00  0.00    -0.268 OA
HETATM   10  N   UNL     1     -43.998  57.516 -56.657  1.00  0.00    -0.351 N 
HETATM   11  C   UNL     1     -42.682  57.060 -56.944  1.00  0.00     0.180 A 
HETATM   12  C   UNL     1     -43.175  56.487 -53.190  1.00  0.00     0.134 C 
HETATM   13  N   UNL     1     -41.833  56.118 -52.686  1.00  0.00    -0.278 NA
HETATM   14  C   UNL     1     -40.205  53.666 -54.981  1.00  0.00     0.031 A 
HETATM   15  C   UNL     1     -40.075  52.573 -54.121  1.00  0.00     0.002 A 
HETATM   16  H   UNL     1     -40.561  55.721 -56.368  1.00  0.00     0.166 HD
HETATM   17  H   UNL     1     -44.682  57.832 -57.332  1.00  0.00     0.163 HD
HETATM   18  H   UNL     1     -41.192  56.858 -52.973  1.00  0.00     0.128 HD
ENDROOT
BRANCH  12  19
HETATM   19  C   UNL     1     -43.620  57.694 -52.360  1.00  0.00    -0.035 A 
HETATM   20  C   UNL     1     -44.780  57.616 -51.569  1.00  0.00     0.012 A 
HETATM   21  C   UNL     1     -45.204  58.711 -50.810  1.00  0.00     0.037 A 
HETATM   22  C   UNL     1     -44.465  59.889 -50.833  1.00  0.00     0.065 A 
HETATM   23  C   UNL     1     -43.315  59.992 -51.603  1.00  0.00     0.037 A 
HETATM   24  C   UNL     1     -42.893  58.900 -52.366  1.00  0.00     0.012 A 
BRANCH  22  25
HETATM   25  O   UNL     1     -44.845  60.980 -50.108  1.00  0.00    -0.361 OA
HETATM   26  H   UNL     1     -44.426  61.765 -50.498  1.00  0.00     0.217 HD
ENDBRANCH  22  25
ENDBRANCH  12  19
TORSDOF 2
ENDMDL
MODEL 8
REMARK VINA RESULT:      -7.0     15.542     17.626
REMARK  2 active torsions:
REMARK  status: ('A' for Active; 'I' for Inactive)
REMARK    1  A    between atoms: C_12  and  C_13 
REMARK    2  A    between atoms: C_16  and  O_17 
ROOT
HETATM    1  C   UNL     1     -44.993  54.885 -60.260  1.00  0.00     0.002 A 
HETATM    2  C   UNL     1     -44.324  54.551 -59.083  1.00  0.00     0.026 A 
HETATM    3  C   UNL     1     -43.379  55.423 -58.532  1.00  0.00     0.036 A 
HETATM    4  C   UNL     1     -43.124  56.669 -59.150  1.00  0.00     0.053 A 
HETATM    5  N   UNL     1     -42.246  57.629 -58.578  1.00  0.00    -0.356 N 
HETATM    6  C   UNL     1     -42.298  57.945 -57.232  1.00  0.00     0.041 A 
HETATM    7  C   UNL     1     -42.656  57.160 -56.201  1.00  0.00     0.056 A 
HETATM    8  C   UNL     1     -42.750  58.034 -55.019  1.00  0.00     0.251 A 
HETATM    9  O   UNL     1     -43.182  57.736 -53.923  1.00  0.00    -0.268 OA
HETATM   10  N   UNL     1     -42.305  59.276 -55.391  1.00  0.00    -0.351 N 
HETATM   11  C   UNL     1     -42.009  59.351 -56.780  1.00  0.00     0.180 A 
HETATM   12  C   UNL     1     -42.997  55.709 -56.134  1.00  0.00     0.134 C 
HETATM   13  N   UNL     1     -42.664  54.999 -57.389  1.00  0.00    -0.278 NA
HETATM   14  C   UNL     1     -43.791  56.980 -60.345  1.00  0.00     0.031 A 
HETATM   15  C   UNL     1     -44.719  56.093 -60.896  1.00  0.00     0.002 A 
HETATM   16  H   UNL     1     -42.117  58.436 -59.184  1.00  0.00     0.166 HD
HETATM   17  H   UNL     1     -42.339  60.053 -54.745  1.00  0.00     0.163 HD
HETATM   18  H   UNL     1     -41.683  55.197 -57.593  1.00  0.00     0.128 HD
ENDROOT
BRANCH  12  19
HETATM   19  C   UNL     1     -42.242  54.975 -55.022  1.00  0.00    -0.035 A 
HETATM   20  C   UNL     1     -40.861  54.739 -55.146  1.00  0.00     0.012 A 
HETATM   21  C   UNL     1     -40.157  54.065 -54.143  1.00  0.00     0.037 A 
HETATM   22  C   UNL     1     -40.830  53.630 -53.006  1.00  0.00     0.065 A 
HETATM   23  C   UNL     1     -42.192  53.853 -52.858  1.00  0.00     0.037 A 
HETATM   24  C   UNL     1     -42.897  54.521 -53.861  1.00  0.00     0.012 A 
BRANCH  22  25
HETATM   25  O   UNL     1     -40.181  52.969 -52.006  1.00  0.00    -0.361 OA
HETATM   26  H   UNL     1     -39.330  53.410 -51.852  1.00  0.00     0.217 HD
ENDBRANCH  22  25
ENDBRANCH  12  19
TORSDOF 2
ENDMDL
MODEL 9
REMARK VINA RESULT:      -7.0     16.414     18.791
REMARK  2 active torsions:
REMARK  status: ('A' for Active; 'I' for Inactive)
REMARK    1  A    between atoms: C_12  and  C_13 
REMARK    2  A    between atoms: C_16  and  O_17 
ROOT
HETATM    1  C   UNL     1     -40.369  52.593 -53.131  1.00  0.00     0.002 A 
HETATM    2  C   UNL     1     -41.222  53.415 -53.867  1.00  0.00     0.026 A 
HETATM    3  C   UNL     1     -41.732  54.591 -53.307  1.00  0.00     0.036 A 
HETATM    4  C   UNL     1     -41.354  54.971 -51.998  1.00  0.00     0.053 A 
HETATM    5  N   UNL     1     -41.767  56.202 -51.421  1.00  0.00    -0.356 N 
HETATM    6  C   UNL     1     -41.706  57.389 -52.129  1.00  0.00     0.041 A 
HETATM    7  C   UNL     1     -41.827  57.581 -53.454  1.00  0.00     0.056 A 
HETATM    8  C   UNL     1     -41.467  58.986 -53.710  1.00  0.00     0.251 A 
HETATM    9  O   UNL     1     -41.314  59.515 -54.794  1.00  0.00    -0.268 OA
HETATM   10  N   UNL     1     -41.282  59.591 -52.494  1.00  0.00    -0.351 N 
HETATM   11  C   UNL     1     -41.386  58.674 -51.412  1.00  0.00     0.180 A 
HETATM   12  C   UNL     1     -42.169  56.643 -54.563  1.00  0.00     0.134 C 
HETATM   13  N   UNL     1     -42.663  55.342 -54.059  1.00  0.00    -0.278 NA
HETATM   14  C   UNL     1     -40.511  54.121 -51.265  1.00  0.00     0.031 A 
HETATM   15  C   UNL     1     -40.022  52.940 -51.828  1.00  0.00     0.002 A 
HETATM   16  H   UNL     1     -41.471  56.287 -50.451  1.00  0.00     0.166 HD
HETATM   17  H   UNL     1     -40.970  60.551 -52.436  1.00  0.00     0.163 HD
HETATM   18  H   UNL     1     -43.433  55.542 -53.419  1.00  0.00     0.128 HD
ENDROOT
BRANCH  12  19
HETATM   19  C   UNL     1     -43.269  57.186 -55.478  1.00  0.00    -0.035 A 
HETATM   20  C   UNL     1     -44.509  57.570 -54.939  1.00  0.00     0.012 A 
HETATM   21  C   UNL     1     -45.527  58.062 -55.761  1.00  0.00     0.037 A 
HETATM   22  C   UNL     1     -45.307  58.179 -57.130  1.00  0.00     0.065 A 
HETATM   23  C   UNL     1     -44.091  57.810 -57.688  1.00  0.00     0.037 A 
HETATM   24  C   UNL     1     -43.076  57.313 -56.868  1.00  0.00     0.012 A 
BRANCH  22  25
HETATM   25  O   UNL     1     -46.273  58.654 -57.967  1.00  0.00    -0.361 OA
HETATM   26  H   UNL     1     -46.990  58.000 -58.006  1.00  0.00     0.217 HD
ENDBRANCH  22  25
ENDBRANCH  12  19
TORSDOF 2
ENDMDL
MODEL 10
REMARK VINA RESULT:      -7.0     14.483     16.136
REMARK  2 active torsions:
REMARK  status: ('A' for Active; 'I' for Inactive)
REMARK    1  A    between atoms: C_12  and  C_13 
REMARK    2  A    between atoms: C_16  and  O_17 
ROOT
HETATM    1  C   UNL     1     -43.598  56.270 -58.352  1.00  0.00     0.002 A 
HETATM    2  C   UNL     1     -42.873  55.458 -57.481  1.00  0.00     0.026 A 
HETATM    3  C   UNL     1     -42.613  55.876 -56.172  1.00  0.00     0.036 A 
HETATM    4  C   UNL     1     -43.119  57.115 -55.713  1.00  0.00     0.053 A 
HETATM    5  N   UNL     1     -42.964  57.541 -54.366  1.00  0.00    -0.356 N 
HETATM    6  C   UNL     1     -43.204  56.685 -53.306  1.00  0.00     0.041 A 
HETATM    7  C   UNL     1     -43.055  55.349 -53.257  1.00  0.00     0.056 A 
HETATM    8  C   UNL     1     -43.650  54.906 -51.984  1.00  0.00     0.251 A 
HETATM    9  O   UNL     1     -43.843  53.760 -51.629  1.00  0.00    -0.268 OA
HETATM   10  N   UNL     1     -44.002  56.029 -51.282  1.00  0.00    -0.351 N 
HETATM   11  C   UNL     1     -43.788  57.223 -52.026  1.00  0.00     0.180 A 
HETATM   12  C   UNL     1     -42.494  54.380 -54.242  1.00  0.00     0.134 C 
HETATM   13  N   UNL     1     -41.797  55.059 -55.358  1.00  0.00    -0.278 NA
HETATM   14  C   UNL     1     -43.828  57.929 -56.610  1.00  0.00     0.031 A 
HETATM   15  C   UNL     1     -44.067  57.509 -57.921  1.00  0.00     0.002 A 
HETATM   16  H   UNL     1     -43.319  58.483 -54.221  1.00  0.00     0.166 HD
HETATM   17  H   UNL     1     -44.486  55.956 -50.397  1.00  0.00     0.163 HD
HETATM   18  H   UNL     1     -41.110  55.688 -54.942  1.00  0.00     0.128 HD
ENDROOT
BRANCH  12  19
HETATM   19  C   UNL     1     -41.466  53.432 -53.618  1.00  0.00    -0.035 A 
HETATM   20  C   UNL     1     -41.144  52.222 -54.258  1.00  0.00     0.012 A 
HETATM   21  C   UNL     1     -40.212  51.342 -53.699  1.00  0.00     0.037 A 
HETATM   22  C   UNL     1     -39.592  51.671 -52.499  1.00  0.00     0.065 A 
HETATM   23  C   UNL     1     -39.890  52.860 -51.847  1.00  0.00     0.037 A 
HETATM   24  C   UNL     1     -40.824  53.737 -52.402  1.00  0.00     0.012 A 
BRANCH  22  25
HETATM   25  O   UNL     1     -38.679  50.840 -51.920  1.00  0.00    -0.361 OA
HETATM   26  H   UNL     1     -39.120  50.353 -51.205  1.00  0.00     0.217 HD
ENDBRANCH  22  25
ENDBRANCH  12  19
TORSDOF 2
ENDMDL
