MODEL 1
REMARK VINA RESULT:      -8.3      0.000      0.000
REMARK  5 active torsions:
REMARK  status: ('A' for Active; 'I' for Inactive)
REMARK    1  A    between atoms: C_4  and  N_5 
REMARK    2  A    between atoms: C_6  and  O_7 
REMARK    3  A    between atoms: C_6  and  C_8 
REMARK       I    between atoms: C_8  and  N_9 
REMARK    4  A    between atoms: N_9  and  C_10 
REMARK    5  A    between atoms: C_10  and  C_11 
ROOT
HETATM    1  N   UNL     1     -42.278  54.786 -52.483  1.00  0.00    -0.254 N 
HETATM    2  C   UNL     1     -42.269  55.945 -53.392  1.00  0.00     0.256 C 
HETATM    3  C   UNL     1     -42.876  57.177 -52.758  1.00  0.00     0.035 A 
HETATM    4  C   UNL     1     -43.872  56.984 -51.807  1.00  0.00     0.048 A 
HETATM    5  N   UNL     1     -44.184  55.681 -51.434  1.00  0.00    -0.308 N 
HETATM    6  C   UNL     1     -43.407  54.580 -51.694  1.00  0.00     0.330 C 
HETATM    7  O   UNL     1     -43.732  53.528 -51.147  1.00  0.00    -0.246 OA
HETATM    8  C   UNL     1     -42.562  58.488 -53.153  1.00  0.00     0.034 A 
HETATM    9  C   UNL     1     -43.238  59.567 -52.586  1.00  0.00     0.011 A 
HETATM   10 BR   UNL     1     -42.804  61.328 -53.116  1.00  0.00    -0.051 Br
HETATM   11  C   UNL     1     -44.239  59.358 -51.639  1.00  0.00     0.021 A 
HETATM   12  C   UNL     1     -44.565  58.059 -51.251  1.00  0.00     0.031 A 
HETATM   13  H   UNL     1     -44.913  55.510 -50.750  1.00  0.00     0.170 HD
ENDROOT
BRANCH   2  14
HETATM   14  O   UNL     1     -40.936  56.296 -53.780  1.00  0.00    -0.359 OA
HETATM   15  H   UNL     1     -40.953  56.260 -54.758  1.00  0.00     0.213 HD
ENDBRANCH   2  14
BRANCH   2  16
HETATM   16  C   UNL     1     -43.047  55.556 -54.720  1.00  0.00     0.279 C 
HETATM   17  N   UNL     1     -42.485  55.924 -55.924  1.00  0.00    -0.352 N 
HETATM   18  H   UNL     1     -41.601  56.417 -55.943  1.00  0.00     0.162 HD
HETATM   19  O   UNL     1     -44.127  54.957 -54.667  1.00  0.00    -0.268 OA
BRANCH  17  20
HETATM   20  C   UNL     1     -43.037  55.473 -57.178  1.00  0.00     0.168 C 
BRANCH  20  21
HETATM   21  C   UNL     1     -42.718  56.484 -58.234  1.00  0.00     0.000 A 
HETATM   22  S   UNL     1     -42.379  58.110 -57.799  1.00  0.00    -0.105 SA
HETATM   23  C   UNL     1     -42.135  58.563 -59.429  1.00  0.00     0.050 A 
HETATM   24  C   UNL     1     -42.305  57.504 -60.291  1.00  0.00     0.008 A 
HETATM   25  C   UNL     1     -42.643  56.303 -59.602  1.00  0.00     0.017 A 
ENDBRANCH  20  21
ENDBRANCH  17  20
ENDBRANCH   2  16
BRANCH   1  26
HETATM   26  C   UNL     1     -41.325  53.729 -52.662  1.00  0.00     0.042 A 
HETATM   27  C   UNL     1     -41.289  52.960 -53.833  1.00  0.00     0.030 A 
HETATM   28  C   UNL     1     -40.379  51.907 -53.973  1.00  0.00     0.002 A 
HETATM   29  C   UNL     1     -39.499  51.598 -52.938  1.00  0.00     0.000 A 
HETATM   30  C   UNL     1     -39.534  52.338 -51.761  1.00  0.00     0.002 A 
HETATM   31  C   UNL     1     -40.445  53.389 -51.623  1.00  0.00     0.030 A 
ENDBRANCH   1  26
TORSDOF 5
ENDMDL
MODEL 2
REMARK VINA RESULT:      -7.5      1.732      2.411
REMARK  5 active torsions:
REMARK  status: ('A' for Active; 'I' for Inactive)
REMARK    1  A    between atoms: C_4  and  N_5 
REMARK    2  A    between atoms: C_6  and  O_7 
REMARK    3  A    between atoms: C_6  and  C_8 
REMARK       I    between atoms: C_8  and  N_9 
REMARK    4  A    between atoms: N_9  and  C_10 
REMARK    5  A    between atoms: C_10  and  C_11 
ROOT
HETATM    1  N   UNL     1     -42.645  56.200 -53.384  1.00  0.00    -0.254 N 
HETATM    2  C   UNL     1     -42.207  57.554 -53.005  1.00  0.00     0.256 C 
HETATM    3  C   UNL     1     -43.271  58.307 -52.236  1.00  0.00     0.035 A 
HETATM    4  C   UNL     1     -44.599  58.003 -52.516  1.00  0.00     0.048 A 
HETATM    5  N   UNL     1     -44.866  56.974 -53.412  1.00  0.00    -0.308 N 
HETATM    6  C   UNL     1     -43.955  56.033 -53.823  1.00  0.00     0.330 C 
HETATM    7  O   UNL     1     -44.390  55.087 -54.478  1.00  0.00    -0.246 OA
HETATM    8  C   UNL     1     -42.988  59.354 -51.344  1.00  0.00     0.034 A 
HETATM    9  C   UNL     1     -44.031  60.063 -50.749  1.00  0.00     0.011 A 
HETATM   10 BR   UNL     1     -43.644  61.466 -49.544  1.00  0.00    -0.051 Br
HETATM   11  C   UNL     1     -45.358  59.753 -51.045  1.00  0.00     0.021 A 
HETATM   12  C   UNL     1     -45.645  58.722 -51.939  1.00  0.00     0.031 A 
HETATM   13  H   UNL     1     -45.825  56.737 -53.642  1.00  0.00     0.170 HD
ENDROOT
BRANCH   2  14
HETATM   14  O   UNL     1     -41.046  57.513 -52.168  1.00  0.00    -0.359 OA
HETATM   15  H   UNL     1     -40.364  57.993 -52.680  1.00  0.00     0.213 HD
ENDBRANCH   2  14
BRANCH   2  16
HETATM   16  C   UNL     1     -41.800  58.345 -54.320  1.00  0.00     0.279 C 
HETATM   17  N   UNL     1     -42.471  58.042 -55.485  1.00  0.00    -0.352 N 
HETATM   18  H   UNL     1     -43.203  57.342 -55.483  1.00  0.00     0.162 HD
HETATM   19  O   UNL     1     -40.899  59.191 -54.293  1.00  0.00    -0.268 OA
BRANCH  17  20
HETATM   20  C   UNL     1     -42.280  58.820 -56.684  1.00  0.00     0.168 C 
BRANCH  20  21
HETATM   21  C   UNL     1     -42.371  57.909 -57.868  1.00  0.00     0.000 A 
HETATM   22  S   UNL     1     -43.149  56.385 -57.726  1.00  0.00    -0.105 SA
HETATM   23  C   UNL     1     -42.854  56.010 -59.368  1.00  0.00     0.050 A 
HETATM   24  C   UNL     1     -42.180  57.019 -60.016  1.00  0.00     0.008 A 
HETATM   25  C   UNL     1     -41.899  58.117 -59.150  1.00  0.00     0.017 A 
ENDBRANCH  20  21
ENDBRANCH  17  20
ENDBRANCH   2  16
BRANCH   1  26
HETATM   26  C   UNL     1     -41.670  55.176 -53.628  1.00  0.00     0.042 A 
HETATM   27  C   UNL     1     -40.943  55.120 -54.824  1.00  0.00     0.030 A 
HETATM   28  C   UNL     1     -40.026  54.090 -55.060  1.00  0.00     0.002 A 
HETATM   29  C   UNL     1     -39.831  53.092 -54.108  1.00  0.00     0.000 A 
HETATM   30  C   UNL     1     -40.559  53.120 -52.923  1.00  0.00     0.002 A 
HETATM   31  C   UNL     1     -41.476  54.150 -52.690  1.00  0.00     0.030 A 
ENDBRANCH   1  26
TORSDOF 5
ENDMDL
MODEL 3
REMARK VINA RESULT:      -7.5      2.596      6.321
REMARK  5 active torsions:
REMARK  status: ('A' for Active; 'I' for Inactive)
REMARK    1  A    between atoms: C_4  and  N_5 
REMARK    2  A    between atoms: C_6  and  O_7 
REMARK    3  A    between atoms: C_6  and  C_8 
REMARK       I    between atoms: C_8  and  N_9 
REMARK    4  A    between atoms: N_9  and  C_10 
REMARK    5  A    between atoms: C_10  and  C_11 
ROOT
HETATM    1  N   UNL     1     -43.461  57.781 -57.044  1.00  0.00    -0.254 N 
HETATM    2  C   UNL     1     -43.719  57.387 -55.649  1.00  0.00     0.256 C 
HETATM    3  C   UNL     1     -43.599  58.552 -54.691  1.00  0.00     0.035 A 
HETATM    4  C   UNL     1     -42.709  59.567 -55.027  1.00  0.00     0.048 A 
HETATM    5  N   UNL     1     -42.058  59.495 -56.253  1.00  0.00    -0.308 N 
HETATM    6  C   UNL     1     -42.424  58.676 -57.291  1.00  0.00     0.330 C 
HETATM    7  O   UNL     1     -41.857  58.856 -58.369  1.00  0.00    -0.246 OA
HETATM    8  C   UNL     1     -44.252  58.606 -53.449  1.00  0.00     0.034 A 
HETATM    9  C   UNL     1     -44.011  59.670 -52.581  1.00  0.00     0.011 A 
HETATM   10 BR   UNL     1     -44.900  59.741 -50.915  1.00  0.00    -0.051 Br
HETATM   11  C   UNL     1     -43.111  60.677 -52.927  1.00  0.00     0.021 A 
HETATM   12  C   UNL     1     -42.450  60.623 -54.154  1.00  0.00     0.031 A 
HETATM   13  H   UNL     1     -41.397  60.216 -56.520  1.00  0.00     0.170 HD
ENDROOT
BRANCH   2  14
HETATM   14  O   UNL     1     -45.041  56.859 -55.490  1.00  0.00    -0.359 OA
HETATM   15  H   UNL     1     -45.624  57.555 -55.856  1.00  0.00     0.213 HD
ENDBRANCH   2  14
BRANCH   2  16
HETATM   16  C   UNL     1     -42.710  56.227 -55.252  1.00  0.00     0.279 C 
HETATM   17  N   UNL     1     -43.241  54.996 -54.932  1.00  0.00    -0.352 N 
HETATM   18  H   UNL     1     -44.242  54.850 -54.963  1.00  0.00     0.162 HD
HETATM   19  O   UNL     1     -41.492  56.434 -55.219  1.00  0.00    -0.268 OA
BRANCH  17  20
HETATM   20  C   UNL     1     -42.395  53.847 -54.719  1.00  0.00     0.168 C 
BRANCH  20  21
HETATM   21  C   UNL     1     -42.066  53.757 -53.261  1.00  0.00     0.000 A 
HETATM   22  S   UNL     1     -40.535  53.166 -52.757  1.00  0.00    -0.105 SA
HETATM   23  C   UNL     1     -40.927  53.373 -51.106  1.00  0.00     0.050 A 
HETATM   24  C   UNL     1     -42.194  53.882 -50.935  1.00  0.00     0.008 A 
HETATM   25  C   UNL     1     -42.853  54.104 -52.179  1.00  0.00     0.017 A 
ENDBRANCH  20  21
ENDBRANCH  17  20
ENDBRANCH   2  16
BRANCH   1  26
HETATM   26  C   UNL     1     -44.016  57.009 -58.119  1.00  0.00     0.042 A 
HETATM   27  C   UNL     1     -43.421  55.818 -58.554  1.00  0.00     0.030 A 
HETATM   28  C   UNL     1     -43.954  55.100 -59.631  1.00  0.00     0.002 A 
HETATM   29  C   UNL     1     -45.083  55.571 -60.298  1.00  0.00     0.000 A 
HETATM   30  C   UNL     1     -45.674  56.763 -59.893  1.00  0.00     0.002 A 
HETATM   31  C   UNL     1     -45.139  57.479 -58.817  1.00  0.00     0.030 A 
ENDBRANCH   1  26
TORSDOF 5
ENDMDL
MODEL 4
REMARK VINA RESULT:      -7.4      3.240      5.855
REMARK  5 active torsions:
REMARK  status: ('A' for Active; 'I' for Inactive)
REMARK    1  A    between atoms: C_4  and  N_5 
REMARK    2  A    between atoms: C_6  and  O_7 
REMARK    3  A    between atoms: C_6  and  C_8 
REMARK       I    between atoms: C_8  and  N_9 
REMARK    4  A    between atoms: N_9  and  C_10 
REMARK    5  A    between atoms: C_10  and  C_11 
ROOT
HETATM    1  N   UNL     1     -42.821  55.948 -54.635  1.00  0.00    -0.254 N 
HETATM    2  C   UNL     1     -43.599  57.127 -55.051  1.00  0.00     0.256 C 
HETATM    3  C   UNL     1     -43.983  57.076 -56.514  1.00  0.00     0.035 A 
HETATM    4  C   UNL     1     -43.122  56.408 -57.378  1.00  0.00     0.048 A 
HETATM    5  N   UNL     1     -42.019  55.757 -56.838  1.00  0.00    -0.308 N 
HETATM    6  C   UNL     1     -41.853  55.460 -55.509  1.00  0.00     0.330 C 
HETATM    7  O   UNL     1     -40.909  54.727 -55.216  1.00  0.00    -0.246 OA
HETATM    8  C   UNL     1     -45.093  57.750 -57.049  1.00  0.00     0.034 A 
HETATM    9  C   UNL     1     -45.322  57.732 -58.423  1.00  0.00     0.011 A 
HETATM   10 BR   UNL     1     -46.822  58.634 -59.136  1.00  0.00    -0.051 Br
HETATM   11  C   UNL     1     -44.447  57.065 -59.280  1.00  0.00     0.021 A 
HETATM   12  C   UNL     1     -43.336  56.404 -58.756  1.00  0.00     0.031 A 
HETATM   13  H   UNL     1     -41.370  55.270 -57.446  1.00  0.00     0.170 HD
ENDROOT
BRANCH   2  14
HETATM   14  O   UNL     1     -44.819  57.238 -54.310  1.00  0.00    -0.359 OA
HETATM   15  H   UNL     1     -44.810  56.461 -53.714  1.00  0.00     0.213 HD
ENDBRANCH   2  14
BRANCH   2  16
HETATM   16  C   UNL     1     -42.751  58.433 -54.739  1.00  0.00     0.279 C 
HETATM   17  N   UNL     1     -43.197  59.262 -53.732  1.00  0.00    -0.352 N 
HETATM   18  H   UNL     1     -44.034  59.027 -53.212  1.00  0.00     0.162 HD
HETATM   19  O   UNL     1     -41.735  58.697 -55.391  1.00  0.00    -0.268 OA
BRANCH  17  20
HETATM   20  C   UNL     1     -42.406  60.377 -53.274  1.00  0.00     0.168 C 
BRANCH  20  21
HETATM   21  C   UNL     1     -41.581  59.935 -52.107  1.00  0.00     0.000 A 
HETATM   22  S   UNL     1     -42.134  60.210 -50.505  1.00  0.00    -0.105 SA
HETATM   23  C   UNL     1     -40.748  59.470 -49.830  1.00  0.00     0.050 A 
HETATM   24  C   UNL     1     -39.880  59.020 -50.798  1.00  0.00     0.008 A 
HETATM   25  C   UNL     1     -40.359  59.289 -52.113  1.00  0.00     0.017 A 
ENDBRANCH  20  21
ENDBRANCH  17  20
ENDBRANCH   2  16
BRANCH   1  26
HETATM   26  C   UNL     1     -42.815  55.544 -53.259  1.00  0.00     0.042 A 
HETATM   27  C   UNL     1     -42.109  56.261 -52.284  1.00  0.00     0.030 A 
HETATM   28  C   UNL     1     -42.082  55.828 -50.953  1.00  0.00     0.002 A 
HETATM   29  C   UNL     1     -42.752  54.665 -50.580  1.00  0.00     0.000 A 
HETATM   30  C   UNL     1     -43.441  53.930 -51.539  1.00  0.00     0.002 A 
HETATM   31  C   UNL     1     -43.465  54.364 -52.867  1.00  0.00     0.030 A 
ENDBRANCH   1  26
TORSDOF 5
ENDMDL
MODEL 5
REMARK VINA RESULT:      -7.4      2.991      5.702
REMARK  5 active torsions:
REMARK  status: ('A' for Active; 'I' for Inactive)
REMARK    1  A    between atoms: C_4  and  N_5 
REMARK    2  A    between atoms: C_6  and  O_7 
REMARK    3  A    between atoms: C_6  and  C_8 
REMARK       I    between atoms: C_8  and  N_9 
REMARK    4  A    between atoms: N_9  and  C_10 
REMARK    5  A    between atoms: C_10  and  C_11 
ROOT
HETATM    1  N   UNL     1     -43.083  57.473 -53.608  1.00  0.00    -0.254 N 
HETATM    2  C   UNL     1     -42.571  56.798 -54.813  1.00  0.00     0.256 C 
HETATM    3  C   UNL     1     -43.220  57.311 -56.079  1.00  0.00     0.035 A 
HETATM    4  C   UNL     1     -44.527  57.778 -55.985  1.00  0.00     0.048 A 
HETATM    5  N   UNL     1     -45.121  57.827 -54.728  1.00  0.00    -0.308 N 
HETATM    6  C   UNL     1     -44.448  57.738 -53.536  1.00  0.00     0.330 C 
HETATM    7  O   UNL     1     -45.092  57.975 -52.515  1.00  0.00    -0.246 OA
HETATM    8  C   UNL     1     -42.614  57.243 -57.344  1.00  0.00     0.034 A 
HETATM    9  C   UNL     1     -43.319  57.649 -58.477  1.00  0.00     0.011 A 
HETATM   10 BR   UNL     1     -42.495  57.563 -60.175  1.00  0.00    -0.051 Br
HETATM   11  C   UNL     1     -44.632  58.107 -58.369  1.00  0.00     0.021 A 
HETATM   12  C   UNL     1     -45.243  58.166 -57.116  1.00  0.00     0.031 A 
HETATM   13  H   UNL     1     -46.076  58.154 -54.631  1.00  0.00     0.170 HD
ENDROOT
BRANCH   2  14
HETATM   14  O   UNL     1     -41.161  56.996 -54.964  1.00  0.00    -0.359 OA
HETATM   15  H   UNL     1     -41.080  57.924 -55.267  1.00  0.00     0.213 HD
ENDBRANCH   2  14
BRANCH   2  16
HETATM   16  C   UNL     1     -42.802  55.234 -54.658  1.00  0.00     0.279 C 
HETATM   17  N   UNL     1     -41.720  54.404 -54.856  1.00  0.00    -0.352 N 
HETATM   18  H   UNL     1     -40.813  54.794 -55.083  1.00  0.00     0.162 HD
HETATM   19  O   UNL     1     -43.920  54.786 -54.384  1.00  0.00    -0.268 OA
BRANCH  17  20
HETATM   20  C   UNL     1     -41.799  52.991 -54.579  1.00  0.00     0.168 C 
BRANCH  20  21
HETATM   21  C   UNL     1     -40.898  52.675 -53.426  1.00  0.00     0.000 A 
HETATM   22  S   UNL     1     -39.817  51.344 -53.515  1.00  0.00    -0.105 SA
HETATM   23  C   UNL     1     -39.207  51.652 -51.948  1.00  0.00     0.050 A 
HETATM   24  C   UNL     1     -39.809  52.744 -51.365  1.00  0.00     0.008 A 
HETATM   25  C   UNL     1     -40.786  53.335 -52.217  1.00  0.00     0.017 A 
ENDBRANCH  20  21
ENDBRANCH  17  20
ENDBRANCH   2  16
BRANCH   1  26
HETATM   26  C   UNL     1     -42.277  57.530 -52.423  1.00  0.00     0.042 A 
HETATM   27  C   UNL     1     -42.232  56.468 -51.511  1.00  0.00     0.030 A 
HETATM   28  C   UNL     1     -41.471  56.558 -50.340  1.00  0.00     0.002 A 
HETATM   29  C   UNL     1     -40.753  57.718 -50.058  1.00  0.00     0.000 A 
HETATM   30  C   UNL     1     -40.803  58.790 -50.942  1.00  0.00     0.002 A 
HETATM   31  C   UNL     1     -41.565  58.698 -52.111  1.00  0.00     0.030 A 
ENDBRANCH   1  26
TORSDOF 5
ENDMDL
MODEL 6
REMARK VINA RESULT:      -7.0     16.587     18.432
REMARK  5 active torsions:
REMARK  status: ('A' for Active; 'I' for Inactive)
REMARK    1  A    between atoms: C_4  and  N_5 
REMARK    2  A    between atoms: C_6  and  O_7 
REMARK    3  A    between atoms: C_6  and  C_8 
REMARK       I    between atoms: C_8  and  N_9 
REMARK    4  A    between atoms: N_9  and  C_10 
REMARK    5  A    between atoms: C_10  and  C_11 
ROOT
HETATM    1  N   UNL     1     -35.247  40.152 -54.435  1.00  0.00    -0.254 N 
HETATM    2  C   UNL     1     -34.876  40.794 -55.708  1.00  0.00     0.256 C 
HETATM    3  C   UNL     1     -35.991  40.732 -56.729  1.00  0.00     0.035 A 
HETATM    4  C   UNL     1     -36.856  39.645 -56.667  1.00  0.00     0.048 A 
HETATM    5  N   UNL     1     -36.701  38.736 -55.626  1.00  0.00    -0.308 N 
HETATM    6  C   UNL     1     -35.969  38.962 -54.488  1.00  0.00     0.330 C 
HETATM    7  O   UNL     1     -36.074  38.133 -53.585  1.00  0.00    -0.246 OA
HETATM    8  C   UNL     1     -36.128  41.649 -57.784  1.00  0.00     0.034 A 
HETATM    9  C   UNL     1     -37.125  41.466 -58.741  1.00  0.00     0.011 A 
HETATM   10 BR   UNL     1     -37.310  42.707 -60.153  1.00  0.00    -0.051 Br
HETATM   11  C   UNL     1     -37.981  40.367 -58.671  1.00  0.00     0.021 A 
HETATM   12  C   UNL     1     -37.843  39.446 -57.632  1.00  0.00     0.031 A 
HETATM   13  H   UNL     1     -37.312  37.930 -55.562  1.00  0.00     0.170 HD
ENDROOT
BRANCH   2  14
HETATM   14  O   UNL     1     -34.564  42.179 -55.523  1.00  0.00    -0.359 OA
HETATM   15  H   UNL     1     -33.802  42.336 -56.118  1.00  0.00     0.213 HD
ENDBRANCH   2  14
BRANCH   2  16
HETATM   16  C   UNL     1     -33.564  40.097 -56.267  1.00  0.00     0.279 C 
HETATM   17  N   UNL     1     -33.669  38.799 -56.719  1.00  0.00    -0.352 N 
HETATM   18  H   UNL     1     -34.563  38.324 -56.696  1.00  0.00     0.162 HD
HETATM   19  O   UNL     1     -32.485  40.701 -56.278  1.00  0.00    -0.268 OA
BRANCH  17  20
HETATM   20  C   UNL     1     -32.571  38.148 -57.389  1.00  0.00     0.168 C 
BRANCH  20  21
HETATM   21  C   UNL     1     -33.026  37.714 -58.747  1.00  0.00     0.000 A 
HETATM   22  S   UNL     1     -34.694  37.751 -59.151  1.00  0.00    -0.105 SA
HETATM   23  C   UNL     1     -34.392  37.165 -60.729  1.00  0.00     0.050 A 
HETATM   24  C   UNL     1     -33.051  36.946 -60.950  1.00  0.00     0.008 A 
HETATM   25  C   UNL     1     -32.262  37.261 -59.806  1.00  0.00     0.017 A 
ENDBRANCH  20  21
ENDBRANCH  17  20
ENDBRANCH   2  16
BRANCH   1  26
HETATM   26  C   UNL     1     -34.593  40.542 -53.220  1.00  0.00     0.042 A 
HETATM   27  C   UNL     1     -33.303  40.096 -52.902  1.00  0.00     0.030 A 
HETATM   28  C   UNL     1     -32.697  40.454 -51.692  1.00  0.00     0.002 A 
HETATM   29  C   UNL     1     -33.378  41.255 -50.777  1.00  0.00     0.000 A 
HETATM   30  C   UNL     1     -34.666  41.689 -51.068  1.00  0.00     0.002 A 
HETATM   31  C   UNL     1     -35.270  41.329 -52.276  1.00  0.00     0.030 A 
ENDBRANCH   1  26
TORSDOF 5
ENDMDL
MODEL 7
REMARK VINA RESULT:      -7.0     16.688     18.801
REMARK  5 active torsions:
REMARK  status: ('A' for Active; 'I' for Inactive)
REMARK    1  A    between atoms: C_4  and  N_5 
REMARK    2  A    between atoms: C_6  and  O_7 
REMARK    3  A    between atoms: C_6  and  C_8 
REMARK       I    between atoms: C_8  and  N_9 
REMARK    4  A    between atoms: N_9  and  C_10 
REMARK    5  A    between atoms: C_10  and  C_11 
ROOT
HETATM    1  N   UNL     1     -35.224  40.125 -54.418  1.00  0.00    -0.254 N 
HETATM    2  C   UNL     1     -34.866  40.811 -55.671  1.00  0.00     0.256 C 
HETATM    3  C   UNL     1     -35.965  40.725 -56.708  1.00  0.00     0.035 A 
HETATM    4  C   UNL     1     -36.784  39.600 -56.681  1.00  0.00     0.048 A 
HETATM    5  N   UNL     1     -36.602  38.676 -55.658  1.00  0.00    -0.308 N 
HETATM    6  C   UNL     1     -35.893  38.907 -54.506  1.00  0.00     0.330 C 
HETATM    7  O   UNL     1     -35.973  38.054 -53.623  1.00  0.00    -0.246 OA
HETATM    8  C   UNL     1     -36.129  41.658 -57.744  1.00  0.00     0.034 A 
HETATM    9  C   UNL     1     -37.107  41.454 -58.717  1.00  0.00     0.011 A 
HETATM   10 BR   UNL     1     -37.328  42.718 -60.104  1.00  0.00    -0.051 Br
HETATM   11  C   UNL     1     -37.916  40.319 -58.682  1.00  0.00     0.021 A 
HETATM   12  C   UNL     1     -37.750  39.382 -57.662  1.00  0.00     0.031 A 
HETATM   13  H   UNL     1     -37.178  37.843 -55.619  1.00  0.00     0.170 HD
ENDROOT
BRANCH   2  14
HETATM   14  O   UNL     1     -34.616  42.204 -55.453  1.00  0.00    -0.359 OA
HETATM   15  H   UNL     1     -34.953  42.369 -54.548  1.00  0.00     0.213 HD
ENDBRANCH   2  14
BRANCH   2  16
HETATM   16  C   UNL     1     -33.519  40.183 -56.229  1.00  0.00     0.279 C 
HETATM   17  N   UNL     1     -33.575  38.913 -56.761  1.00  0.00    -0.352 N 
HETATM   18  H   UNL     1     -34.455  38.413 -56.795  1.00  0.00     0.162 HD
HETATM   19  O   UNL     1     -32.458  40.814 -56.171  1.00  0.00    -0.268 OA
BRANCH  17  20
HETATM   20  C   UNL     1     -32.439  38.332 -57.434  1.00  0.00     0.168 C 
BRANCH  20  21
HETATM   21  C   UNL     1     -31.518  37.750 -56.407  1.00  0.00     0.000 A 
HETATM   22  S   UNL     1     -29.817  37.868 -56.609  1.00  0.00    -0.105 SA
HETATM   23  C   UNL     1     -29.521  37.043 -55.141  1.00  0.00     0.050 A 
HETATM   24  C   UNL     1     -30.688  36.683 -54.506  1.00  0.00     0.008 A 
HETATM   25  C   UNL     1     -31.842  37.091 -55.237  1.00  0.00     0.017 A 
ENDBRANCH  20  21
ENDBRANCH  17  20
ENDBRANCH   2  16
BRANCH   1  26
HETATM   26  C   UNL     1     -34.601  40.515 -53.187  1.00  0.00     0.042 A 
HETATM   27  C   UNL     1     -33.315  40.081 -52.842  1.00  0.00     0.030 A 
HETATM   28  C   UNL     1     -32.740  40.439 -51.617  1.00  0.00     0.002 A 
HETATM   29  C   UNL     1     -33.449  41.227 -50.713  1.00  0.00     0.000 A 
HETATM   30  C   UNL     1     -34.735  41.650 -51.030  1.00  0.00     0.002 A 
HETATM   31  C   UNL     1     -35.307  41.290 -52.254  1.00  0.00     0.030 A 
ENDBRANCH   1  26
TORSDOF 5
ENDMDL
MODEL 8
REMARK VINA RESULT:      -6.9      3.198      6.488
REMARK  5 active torsions:
REMARK  status: ('A' for Active; 'I' for Inactive)
REMARK    1  A    between atoms: C_4  and  N_5 
REMARK    2  A    between atoms: C_6  and  O_7 
REMARK    3  A    between atoms: C_6  and  C_8 
REMARK       I    between atoms: C_8  and  N_9 
REMARK    4  A    between atoms: N_9  and  C_10 
REMARK    5  A    between atoms: C_10  and  C_11 
ROOT
HETATM    1  N   UNL     1     -42.973  57.153 -54.529  1.00  0.00    -0.254 N 
HETATM    2  C   UNL     1     -41.839  57.129 -53.590  1.00  0.00     0.256 C 
HETATM    3  C   UNL     1     -42.085  56.207 -52.415  1.00  0.00     0.035 A 
HETATM    4  C   UNL     1     -43.401  56.038 -51.999  1.00  0.00     0.048 A 
HETATM    5  N   UNL     1     -44.410  56.650 -52.735  1.00  0.00    -0.308 N 
HETATM    6  C   UNL     1     -44.261  57.160 -54.000  1.00  0.00     0.330 C 
HETATM    7  O   UNL     1     -45.287  57.508 -54.584  1.00  0.00    -0.246 OA
HETATM    8  C   UNL     1     -41.056  55.606 -51.671  1.00  0.00     0.034 A 
HETATM    9  C   UNL     1     -41.364  54.849 -50.542  1.00  0.00     0.011 A 
HETATM   10 BR   UNL     1     -39.976  54.036 -49.551  1.00  0.00    -0.051 Br
HETATM   11  C   UNL     1     -42.688  54.694 -50.132  1.00  0.00     0.021 A 
HETATM   12  C   UNL     1     -43.713  55.298 -50.860  1.00  0.00     0.031 A 
HETATM   13  H   UNL     1     -45.378  56.551 -52.449  1.00  0.00     0.170 HD
ENDROOT
BRANCH   2  14
HETATM   14  O   UNL     1     -40.641  56.671 -54.227  1.00  0.00    -0.359 OA
HETATM   15  H   UNL     1     -40.947  56.317 -55.088  1.00  0.00     0.213 HD
ENDBRANCH   2  14
BRANCH   2  16
HETATM   16  C   UNL     1     -41.557  58.610 -53.091  1.00  0.00     0.279 C 
HETATM   17  N   UNL     1     -42.353  59.109 -52.082  1.00  0.00    -0.352 N 
HETATM   18  H   UNL     1     -43.082  58.535 -51.678  1.00  0.00     0.162 HD
HETATM   19  O   UNL     1     -40.663  59.289 -53.606  1.00  0.00    -0.268 OA
BRANCH  17  20
HETATM   20  C   UNL     1     -42.065  60.378 -51.460  1.00  0.00     0.168 C 
BRANCH  20  21
HETATM   21  C   UNL     1     -43.298  60.861 -50.761  1.00  0.00     0.000 A 
HETATM   22  S   UNL     1     -44.730  59.915 -50.786  1.00  0.00    -0.105 SA
HETATM   23  C   UNL     1     -45.580  61.061 -49.845  1.00  0.00     0.050 A 
HETATM   24  C   UNL     1     -44.796  62.143 -49.514  1.00  0.00     0.008 A 
HETATM   25  C   UNL     1     -43.477  62.029 -50.044  1.00  0.00     0.017 A 
ENDBRANCH  20  21
ENDBRANCH  17  20
ENDBRANCH   2  16
BRANCH   1  26
HETATM   26  C   UNL     1     -42.758  57.512 -55.901  1.00  0.00     0.042 A 
HETATM   27  C   UNL     1     -42.777  56.556 -56.924  1.00  0.00     0.030 A 
HETATM   28  C   UNL     1     -42.524  56.920 -58.252  1.00  0.00     0.002 A 
HETATM   29  C   UNL     1     -42.235  58.244 -58.573  1.00  0.00     0.000 A 
HETATM   30  C   UNL     1     -42.192  59.203 -57.568  1.00  0.00     0.002 A 
HETATM   31  C   UNL     1     -42.443  58.837 -56.242  1.00  0.00     0.030 A 
ENDBRANCH   1  26
TORSDOF 5
ENDMDL
MODEL 9
REMARK VINA RESULT:      -6.9     16.214     19.247
REMARK  5 active torsions:
REMARK  status: ('A' for Active; 'I' for Inactive)
REMARK    1  A    between atoms: C_4  and  N_5 
REMARK    2  A    between atoms: C_6  and  O_7 
REMARK    3  A    between atoms: C_6  and  C_8 
REMARK       I    between atoms: C_8  and  N_9 
REMARK    4  A    between atoms: N_9  and  C_10 
REMARK    5  A    between atoms: C_10  and  C_11 
ROOT
HETATM    1  N   UNL     1     -32.669  38.720 -52.769  1.00  0.00    -0.254 N 
HETATM    2  C   UNL     1     -32.640  39.671 -51.645  1.00  0.00     0.256 C 
HETATM    3  C   UNL     1     -32.314  38.998 -50.330  1.00  0.00     0.035 A 
HETATM    4  C   UNL     1     -32.706  37.673 -50.174  1.00  0.00     0.048 A 
HETATM    5  N   UNL     1     -33.289  37.026 -51.258  1.00  0.00    -0.308 N 
HETATM    6  C   UNL     1     -33.249  37.472 -52.555  1.00  0.00     0.330 C 
HETATM    7  O   UNL     1     -33.658  36.700 -53.422  1.00  0.00    -0.246 OA
HETATM    8  C   UNL     1     -31.737  39.667 -49.238  1.00  0.00     0.034 A 
HETATM    9  C   UNL     1     -31.558  38.999 -48.028  1.00  0.00     0.011 A 
HETATM   10 BR   UNL     1     -30.774  39.903 -46.565  1.00  0.00    -0.051 Br
HETATM   11  C   UNL     1     -31.963  37.673 -47.883  1.00  0.00     0.021 A 
HETATM   12  C   UNL     1     -32.548  37.006 -48.960  1.00  0.00     0.031 A 
HETATM   13  H   UNL     1     -33.594  36.063 -51.170  1.00  0.00     0.170 HD
ENDROOT
BRANCH   2  14
HETATM   14  O   UNL     1     -31.650  40.686 -51.845  1.00  0.00    -0.359 OA
HETATM   15  H   UNL     1     -31.407  40.603 -52.789  1.00  0.00     0.213 HD
ENDBRANCH   2  14
BRANCH   2  16
HETATM   16  C   UNL     1     -34.044  40.409 -51.565  1.00  0.00     0.279 C 
HETATM   17  N   UNL     1     -34.159  41.638 -52.178  1.00  0.00    -0.352 N 
HETATM   18  H   UNL     1     -33.368  42.039 -52.667  1.00  0.00     0.162 HD
HETATM   19  O   UNL     1     -34.992  39.897 -50.958  1.00  0.00    -0.268 OA
BRANCH  17  20
HETATM   20  C   UNL     1     -35.435  42.301 -52.294  1.00  0.00     0.168 C 
BRANCH  20  21
HETATM   21  C   UNL     1     -35.997  42.028 -53.654  1.00  0.00     0.000 A 
HETATM   22  S   UNL     1     -37.191  40.812 -53.866  1.00  0.00    -0.105 SA
HETATM   23  C   UNL     1     -37.292  41.114 -55.546  1.00  0.00     0.050 A 
HETATM   24  C   UNL     1     -36.439  42.118 -55.943  1.00  0.00     0.008 A 
HETATM   25  C   UNL     1     -35.689  42.646 -54.851  1.00  0.00     0.017 A 
ENDBRANCH  20  21
ENDBRANCH  17  20
ENDBRANCH   2  16
BRANCH   1  26
HETATM   26  C   UNL     1     -32.436  39.184 -54.106  1.00  0.00     0.042 A 
HETATM   27  C   UNL     1     -33.464  39.732 -54.885  1.00  0.00     0.030 A 
HETATM   28  C   UNL     1     -33.226  40.142 -56.202  1.00  0.00     0.002 A 
HETATM   29  C   UNL     1     -31.959  39.999 -56.762  1.00  0.00     0.000 A 
HETATM   30  C   UNL     1     -30.932  39.439 -56.010  1.00  0.00     0.002 A 
HETATM   31  C   UNL     1     -31.173  39.028 -54.696  1.00  0.00     0.030 A 
ENDBRANCH   1  26
TORSDOF 5
ENDMDL
MODEL 10
REMARK VINA RESULT:      -6.8      3.930      7.526
REMARK  5 active torsions:
REMARK  status: ('A' for Active; 'I' for Inactive)
REMARK    1  A    between atoms: C_4  and  N_5 
REMARK    2  A    between atoms: C_6  and  O_7 
REMARK    3  A    between atoms: C_6  and  C_8 
REMARK       I    between atoms: C_8  and  N_9 
REMARK    4  A    between atoms: N_9  and  C_10 
REMARK    5  A    between atoms: C_10  and  C_11 
ROOT
HETATM    1  N   UNL     1     -43.504  57.915 -53.470  1.00  0.00    -0.254 N 
HETATM    2  C   UNL     1     -43.142  57.797 -52.048  1.00  0.00     0.256 C 
HETATM    3  C   UNL     1     -42.718  56.392 -51.678  1.00  0.00     0.035 A 
HETATM    4  C   UNL     1     -43.285  55.343 -52.393  1.00  0.00     0.048 A 
HETATM    5  N   UNL     1     -44.132  55.648 -53.453  1.00  0.00    -0.308 N 
HETATM    6  C   UNL     1     -44.232  56.880 -54.050  1.00  0.00     0.330 C 
HETATM    7  O   UNL     1     -44.893  56.943 -55.085  1.00  0.00    -0.246 OA
HETATM    8  C   UNL     1     -41.872  56.097 -50.596  1.00  0.00     0.034 A 
HETATM    9  C   UNL     1     -41.608  54.770 -50.261  1.00  0.00     0.011 A 
HETATM   10 BR   UNL     1     -40.463  54.379 -48.809  1.00  0.00    -0.051 Br
HETATM   11  C   UNL     1     -42.189  53.727 -50.982  1.00  0.00     0.021 A 
HETATM   12  C   UNL     1     -43.039  54.014 -52.050  1.00  0.00     0.031 A 
HETATM   13  H   UNL     1     -44.566  54.903 -53.985  1.00  0.00     0.170 HD
ENDROOT
BRANCH   2  14
HETATM   14  O   UNL     1     -42.049  58.659 -51.712  1.00  0.00    -0.359 OA
HETATM   15  H   UNL     1     -41.915  59.202 -52.516  1.00  0.00     0.213 HD
ENDBRANCH   2  14
BRANCH   2  16
HETATM   16  C   UNL     1     -44.380  58.259 -51.167  1.00  0.00     0.279 C 
HETATM   17  N   UNL     1     -44.335  59.519 -50.609  1.00  0.00    -0.352 N 
HETATM   18  H   UNL     1     -43.537  60.120 -50.773  1.00  0.00     0.162 HD
HETATM   19  O   UNL     1     -45.339  57.503 -50.980  1.00  0.00    -0.268 OA
BRANCH  17  20
HETATM   20  C   UNL     1     -45.479  60.080 -49.933  1.00  0.00     0.168 C 
BRANCH  20  21
HETATM   21  C   UNL     1     -45.091  61.402 -49.349  1.00  0.00     0.000 A 
HETATM   22  S   UNL     1     -45.760  61.915 -47.853  1.00  0.00    -0.105 SA
HETATM   23  C   UNL     1     -44.880  63.381 -47.888  1.00  0.00     0.050 A 
HETATM   24  C   UNL     1     -44.091  63.483 -49.011  1.00  0.00     0.008 A 
HETATM   25  C   UNL     1     -44.213  62.342 -49.856  1.00  0.00     0.017 A 
ENDBRANCH  20  21
ENDBRANCH  17  20
ENDBRANCH   2  16
BRANCH   1  26
HETATM   26  C   UNL     1     -43.421  59.189 -54.126  1.00  0.00     0.042 A 
HETATM   27  C   UNL     1     -44.413  60.165 -53.968  1.00  0.00     0.030 A 
HETATM   28  C   UNL     1     -44.334  61.386 -54.648  1.00  0.00     0.002 A 
HETATM   29  C   UNL     1     -43.267  61.643 -55.506  1.00  0.00     0.000 A 
HETATM   30  C   UNL     1     -42.284  60.677 -55.691  1.00  0.00     0.002 A 
HETATM   31  C   UNL     1     -42.366  59.458 -55.012  1.00  0.00     0.030 A 
ENDBRANCH   1  26
TORSDOF 5
ENDMDL
