MODEL 1
REMARK VINA RESULT:      -9.8      0.000      0.000
REMARK  8 active torsions:
REMARK  status: ('A' for Active; 'I' for Inactive)
REMARK    1  A    between atoms: C_4  and  S_5 
REMARK    2  A    between atoms: S_5  and  C_6 
REMARK    3  A    between atoms: C_6  and  C_7 
REMARK       I    between atoms: C_7  and  N_8 
REMARK    4  A    between atoms: N_8  and  C_9 
REMARK    5  A    between atoms: C_11  and  C_12 
REMARK    6  A    between atoms: C_23  and  C_24 
REMARK    7  A    between atoms: C_30  and  C_31 
REMARK       I    between atoms: C_31  and  N_32 
REMARK    8  A    between atoms: N_32  and  C_33 
ROOT
HETATM    1  C   UNL     1     -45.675  61.007 -53.300  1.00  0.00     0.069 C 
HETATM    2  C   UNL     1     -44.953  59.844 -52.671  1.00  0.00     0.019 C 
HETATM    3  N   UNL     1     -44.906  58.684 -53.430  1.00  0.00    -0.353 N 
HETATM    4  C   UNL     1     -44.381  57.468 -53.022  1.00  0.00     0.087 C 
HETATM    5  C   UNL     1     -43.759  57.406 -51.822  1.00  0.00     0.055 C 
HETATM    6  C   UNL     1     -43.287  56.117 -51.170  1.00  0.00     0.019 C 
HETATM    7  N   UNL     1     -42.896  55.047 -50.628  1.00  0.00    -0.096 N 
HETATM    8  C   UNL     1     -43.442  58.691 -51.051  1.00  0.00     0.104 C 
HETATM    9  C   UNL     1     -44.307  59.878 -51.481  1.00  0.00     0.046 C 
HETATM   10  H   UNL     1     -45.323  58.691 -54.358  1.00  0.00     0.166 HD
ENDROOT
BRANCH   4  11
HETATM   11  S   UNL     1     -44.328  56.154 -54.170  1.00  0.00    -0.102 SA
BRANCH  11  12
HETATM   12  C   UNL     1     -42.820  56.431 -55.147  1.00  0.00     0.184 C 
BRANCH  12  13
HETATM   13  C   UNL     1     -41.632  55.652 -54.561  1.00  0.00     0.231 C 
HETATM   14  N   UNL     1     -41.959  54.396 -54.079  1.00  0.00    -0.327 N 
HETATM   15  H   UNL     1     -42.951  54.178 -54.097  1.00  0.00     0.169 HD
HETATM   16  O   UNL     1     -40.504  56.138 -54.590  1.00  0.00    -0.272 OA
BRANCH  14  17
HETATM   17  C   UNL     1     -41.132  53.437 -53.468  1.00  0.00     0.035 A 
HETATM   18  C   UNL     1     -40.816  52.200 -54.030  1.00  0.00     0.045 A 
HETATM   19  C   UNL     1     -39.973  51.298 -53.352  1.00  0.00     0.050 A 
HETATM   20  C   UNL     1     -39.440  51.661 -52.105  1.00  0.00     0.016 A 
HETATM   21  C   UNL     1     -39.754  52.892 -51.539  1.00  0.00     0.003 A 
HETATM   22  C   UNL     1     -40.599  53.771 -52.215  1.00  0.00     0.029 A 
BRANCH  19  23
HETATM   23  C   UNL     1     -39.622  49.959 -53.952  1.00  0.00     0.417 C 
HETATM   24  F   UNL     1     -40.584  49.446 -54.766  1.00  0.00    -0.166 F 
HETATM   25  F   UNL     1     -38.486  50.012 -54.703  1.00  0.00    -0.166 F 
HETATM   26  F   UNL     1     -39.392  49.008 -53.003  1.00  0.00    -0.166 F 
ENDBRANCH  19  23
ENDBRANCH  14  17
ENDBRANCH  12  13
ENDBRANCH  11  12
ENDBRANCH   4  11
BRANCH   8  27
HETATM   27  C   UNL     1     -41.940  58.981 -51.217  1.00  0.00    -0.042 A 
HETATM   28  C   UNL     1     -41.284  58.784 -52.443  1.00  0.00     0.027 A 
HETATM   29  C   UNL     1     -39.920  59.018 -52.521  1.00  0.00     0.116 A 
HETATM   30  N   UNL     1     -39.167  59.415 -51.478  1.00  0.00    -0.273 NA
HETATM   31  C   UNL     1     -39.812  59.604 -50.306  1.00  0.00     0.116 A 
HETATM   32  C   UNL     1     -41.173  59.401 -50.126  1.00  0.00     0.027 A 
ENDBRANCH   8  27
BRANCH   9  33
HETATM   33  C   UNL     1     -44.296  61.030 -50.522  1.00  0.00     0.255 C 
HETATM   34  N   UNL     1     -44.919  60.774 -49.319  1.00  0.00    -0.323 N 
HETATM   35  H   UNL     1     -45.319  59.855 -49.186  1.00  0.00     0.169 HD
HETATM   36  O   UNL     1     -43.689  62.051 -50.820  1.00  0.00    -0.268 OA
BRANCH  34  37
HETATM   37  C   UNL     1     -45.083  61.674 -48.242  1.00  0.00     0.035 A 
HETATM   38  C   UNL     1     -45.476  63.008 -48.387  1.00  0.00     0.029 A 
HETATM   39  C   UNL     1     -45.623  63.832 -47.266  1.00  0.00     0.002 A 
HETATM   40  C   UNL     1     -45.388  63.331 -45.990  1.00  0.00     0.000 A 
HETATM   41  C   UNL     1     -44.997  62.004 -45.832  1.00  0.00     0.002 A 
HETATM   42  C   UNL     1     -44.841  61.181 -46.952  1.00  0.00     0.029 A 
ENDBRANCH  34  37
ENDBRANCH   9  33
TORSDOF 8
ENDMDL
MODEL 2
REMARK VINA RESULT:      -9.7      4.481      8.697
REMARK  8 active torsions:
REMARK  status: ('A' for Active; 'I' for Inactive)
REMARK    1  A    between atoms: C_4  and  S_5 
REMARK    2  A    between atoms: S_5  and  C_6 
REMARK    3  A    between atoms: C_6  and  C_7 
REMARK       I    between atoms: C_7  and  N_8 
REMARK    4  A    between atoms: N_8  and  C_9 
REMARK    5  A    between atoms: C_11  and  C_12 
REMARK    6  A    between atoms: C_23  and  C_24 
REMARK    7  A    between atoms: C_30  and  C_31 
REMARK       I    between atoms: C_31  and  N_32 
REMARK    8  A    between atoms: N_32  and  C_33 
ROOT
HETATM    1  C   UNL     1     -42.578  55.449 -56.347  1.00  0.00     0.069 C 
HETATM    2  C   UNL     1     -42.096  56.190 -55.127  1.00  0.00     0.019 C 
HETATM    3  N   UNL     1     -42.678  57.430 -54.908  1.00  0.00    -0.353 N 
HETATM    4  C   UNL     1     -42.328  58.325 -53.910  1.00  0.00     0.087 C 
HETATM    5  C   UNL     1     -41.415  57.938 -52.990  1.00  0.00     0.055 C 
HETATM    6  C   UNL     1     -40.811  58.862 -51.945  1.00  0.00     0.019 C 
HETATM    7  N   UNL     1     -40.310  59.629 -51.077  1.00  0.00    -0.096 N 
HETATM    8  C   UNL     1     -40.962  56.477 -52.921  1.00  0.00     0.104 C 
HETATM    9  C   UNL     1     -41.213  55.709 -54.221  1.00  0.00     0.046 C 
HETATM   10  H   UNL     1     -43.402  57.749 -55.548  1.00  0.00     0.166 HD
ENDROOT
BRANCH   4  11
HETATM   11  S   UNL     1     -43.256  59.795 -53.744  1.00  0.00    -0.102 SA
BRANCH  11  12
HETATM   12  C   UNL     1     -43.669  60.297 -55.442  1.00  0.00     0.184 C 
BRANCH  12  13
HETATM   13  C   UNL     1     -44.624  59.288 -56.097  1.00  0.00     0.231 C 
HETATM   14  N   UNL     1     -44.408  59.098 -57.451  1.00  0.00    -0.327 N 
HETATM   15  H   UNL     1     -43.704  59.705 -57.859  1.00  0.00     0.169 HD
HETATM   16  O   UNL     1     -45.458  58.697 -55.414  1.00  0.00    -0.272 OA
BRANCH  14  17
HETATM   17  C   UNL     1     -45.103  58.272 -58.354  1.00  0.00     0.035 A 
HETATM   18  C   UNL     1     -44.590  57.091 -58.891  1.00  0.00     0.045 A 
HETATM   19  C   UNL     1     -45.355  56.318 -59.785  1.00  0.00     0.050 A 
HETATM   20  C   UNL     1     -46.651  56.742 -60.124  1.00  0.00     0.016 A 
HETATM   21  C   UNL     1     -47.166  57.919 -59.593  1.00  0.00     0.003 A 
HETATM   22  C   UNL     1     -46.393  58.682 -58.718  1.00  0.00     0.029 A 
BRANCH  19  23
HETATM   23  C   UNL     1     -44.813  55.038 -60.370  1.00  0.00     0.417 C 
HETATM   24  F   UNL     1     -45.031  54.902 -61.706  1.00  0.00    -0.166 F 
HETATM   25  F   UNL     1     -43.467  54.921 -60.196  1.00  0.00    -0.166 F 
HETATM   26  F   UNL     1     -45.357  53.930 -59.790  1.00  0.00    -0.166 F 
ENDBRANCH  19  23
ENDBRANCH  14  17
ENDBRANCH  12  13
ENDBRANCH  11  12
ENDBRANCH   4  11
BRANCH   8  27
HETATM   27  C   UNL     1     -41.665  55.823 -51.719  1.00  0.00    -0.042 A 
HETATM   28  C   UNL     1     -40.950  55.408 -50.584  1.00  0.00     0.027 A 
HETATM   29  C   UNL     1     -41.630  54.783 -49.551  1.00  0.00     0.116 A 
HETATM   30  N   UNL     1     -42.954  54.531 -49.569  1.00  0.00    -0.273 NA
HETATM   31  C   UNL     1     -43.629  54.939 -50.665  1.00  0.00     0.116 A 
HETATM   32  C   UNL     1     -43.042  55.576 -51.749  1.00  0.00     0.027 A 
ENDBRANCH   8  27
BRANCH   9  33
HETATM   33  C   UNL     1     -40.463  54.416 -54.328  1.00  0.00     0.255 C 
HETATM   34  N   UNL     1     -40.960  53.402 -53.537  1.00  0.00    -0.323 N 
HETATM   35  H   UNL     1     -41.769  53.609 -52.967  1.00  0.00     0.169 HD
HETATM   36  O   UNL     1     -39.549  54.319 -55.138  1.00  0.00    -0.268 OA
BRANCH  34  37
HETATM   37  C   UNL     1     -40.445  52.092 -53.415  1.00  0.00     0.035 A 
HETATM   38  C   UNL     1     -40.406  51.164 -54.459  1.00  0.00     0.029 A 
HETATM   39  C   UNL     1     -39.872  49.887 -54.258  1.00  0.00     0.002 A 
HETATM   40  C   UNL     1     -39.363  49.527 -53.014  1.00  0.00     0.000 A 
HETATM   41  C   UNL     1     -39.394  50.443 -51.966  1.00  0.00     0.002 A 
HETATM   42  C   UNL     1     -39.937  51.717 -52.163  1.00  0.00     0.029 A 
ENDBRANCH  34  37
ENDBRANCH   9  33
TORSDOF 8
ENDMDL
MODEL 3
REMARK VINA RESULT:      -9.2      1.339      1.915
REMARK  8 active torsions:
REMARK  status: ('A' for Active; 'I' for Inactive)
REMARK    1  A    between atoms: C_4  and  S_5 
REMARK    2  A    between atoms: S_5  and  C_6 
REMARK    3  A    between atoms: C_6  and  C_7 
REMARK       I    between atoms: C_7  and  N_8 
REMARK    4  A    between atoms: N_8  and  C_9 
REMARK    5  A    between atoms: C_11  and  C_12 
REMARK    6  A    between atoms: C_23  and  C_24 
REMARK    7  A    between atoms: C_30  and  C_31 
REMARK       I    between atoms: C_31  and  N_32 
REMARK    8  A    between atoms: N_32  and  C_33 
ROOT
HETATM    1  C   UNL     1     -45.633  60.903 -53.288  1.00  0.00     0.069 C 
HETATM    2  C   UNL     1     -44.882  59.726 -52.722  1.00  0.00     0.019 C 
HETATM    3  N   UNL     1     -44.760  58.630 -53.564  1.00  0.00    -0.353 N 
HETATM    4  C   UNL     1     -44.195  57.409 -53.230  1.00  0.00     0.087 C 
HETATM    5  C   UNL     1     -43.610  57.281 -52.017  1.00  0.00     0.055 C 
HETATM    6  C   UNL     1     -43.103  55.966 -51.447  1.00  0.00     0.019 C 
HETATM    7  N   UNL     1     -42.683  54.875 -50.974  1.00  0.00    -0.096 N 
HETATM    8  C   UNL     1     -43.374  58.516 -51.141  1.00  0.00     0.104 C 
HETATM    9  C   UNL     1     -44.276  59.696 -51.512  1.00  0.00     0.046 C 
HETATM   10  H   UNL     1     -45.146  58.690 -54.503  1.00  0.00     0.166 HD
ENDROOT
BRANCH   4  11
HETATM   11  S   UNL     1     -44.048  56.189 -54.471  1.00  0.00    -0.102 SA
BRANCH  11  12
HETATM   12  C   UNL     1     -42.277  55.783 -54.536  1.00  0.00     0.184 C 
BRANCH  12  13
HETATM   13  C   UNL     1     -42.060  54.262 -54.528  1.00  0.00     0.231 C 
HETATM   14  N   UNL     1     -40.976  53.848 -53.772  1.00  0.00    -0.327 N 
HETATM   15  H   UNL     1     -40.413  54.600 -53.386  1.00  0.00     0.169 HD
HETATM   16  O   UNL     1     -42.844  53.526 -55.122  1.00  0.00    -0.272 OA
BRANCH  14  17
HETATM   17  C   UNL     1     -40.485  52.546 -53.564  1.00  0.00     0.035 A 
HETATM   18  C   UNL     1     -40.357  51.946 -52.311  1.00  0.00     0.045 A 
HETATM   19  C   UNL     1     -39.861  50.634 -52.191  1.00  0.00     0.050 A 
HETATM   20  C   UNL     1     -39.506  49.925 -53.350  1.00  0.00     0.016 A 
HETATM   21  C   UNL     1     -39.631  50.518 -54.602  1.00  0.00     0.003 A 
HETATM   22  C   UNL     1     -40.112  51.823 -54.706  1.00  0.00     0.029 A 
BRANCH  19  23
HETATM   23  C   UNL     1     -39.720  49.974 -50.842  1.00  0.00     0.417 C 
HETATM   24  F   UNL     1     -40.120  50.753 -49.800  1.00  0.00    -0.166 F 
HETATM   25  F   UNL     1     -40.447  48.826 -50.751  1.00  0.00    -0.166 F 
HETATM   26  F   UNL     1     -38.433  49.619 -50.568  1.00  0.00    -0.166 F 
ENDBRANCH  19  23
ENDBRANCH  14  17
ENDBRANCH  12  13
ENDBRANCH  11  12
ENDBRANCH   4  11
BRANCH   8  27
HETATM   27  C   UNL     1     -41.882  58.878 -51.232  1.00  0.00    -0.042 A 
HETATM   28  C   UNL     1     -41.179  58.805 -52.446  1.00  0.00     0.027 A 
HETATM   29  C   UNL     1     -39.825  59.099 -52.458  1.00  0.00     0.116 A 
HETATM   30  N   UNL     1     -39.123  59.445 -51.361  1.00  0.00    -0.273 NA
HETATM   31  C   UNL     1     -39.812  59.514 -50.202  1.00  0.00     0.116 A 
HETATM   32  C   UNL     1     -41.168  59.243 -50.085  1.00  0.00     0.027 A 
ENDBRANCH   8  27
BRANCH   9  33
HETATM   33  C   UNL     1     -44.346  60.770 -50.469  1.00  0.00     0.255 C 
HETATM   34  N   UNL     1     -45.109  60.445 -49.368  1.00  0.00    -0.323 N 
HETATM   35  H   UNL     1     -45.544  59.533 -49.354  1.00  0.00     0.169 HD
HETATM   36  O   UNL     1     -43.683  61.789 -50.615  1.00  0.00    -0.268 OA
BRANCH  34  37
HETATM   37  C   UNL     1     -45.373  61.266 -48.248  1.00  0.00     0.035 A 
HETATM   38  C   UNL     1     -44.762  61.110 -47.001  1.00  0.00     0.029 A 
HETATM   39  C   UNL     1     -45.073  61.972 -45.943  1.00  0.00     0.002 A 
HETATM   40  C   UNL     1     -45.991  63.001 -46.123  1.00  0.00     0.000 A 
HETATM   41  C   UNL     1     -46.605  63.168 -47.361  1.00  0.00     0.002 A 
HETATM   42  C   UNL     1     -46.302  62.301 -48.416  1.00  0.00     0.029 A 
ENDBRANCH  34  37
ENDBRANCH   9  33
TORSDOF 8
ENDMDL
MODEL 4
REMARK VINA RESULT:      -9.0      1.925      3.562
REMARK  8 active torsions:
REMARK  status: ('A' for Active; 'I' for Inactive)
REMARK    1  A    between atoms: C_4  and  S_5 
REMARK    2  A    between atoms: S_5  and  C_6 
REMARK    3  A    between atoms: C_6  and  C_7 
REMARK       I    between atoms: C_7  and  N_8 
REMARK    4  A    between atoms: N_8  and  C_9 
REMARK    5  A    between atoms: C_11  and  C_12 
REMARK    6  A    between atoms: C_23  and  C_24 
REMARK    7  A    between atoms: C_30  and  C_31 
REMARK       I    between atoms: C_31  and  N_32 
REMARK    8  A    between atoms: N_32  and  C_33 
ROOT
HETATM    1  C   UNL     1     -44.745  57.524 -50.983  1.00  0.00     0.069 C 
HETATM    2  C   UNL     1     -44.208  58.347 -52.124  1.00  0.00     0.019 C 
HETATM    3  N   UNL     1     -44.281  57.759 -53.378  1.00  0.00    -0.353 N 
HETATM    4  C   UNL     1     -43.768  58.285 -54.553  1.00  0.00     0.087 C 
HETATM    5  C   UNL     1     -43.237  59.528 -54.523  1.00  0.00     0.055 C 
HETATM    6  C   UNL     1     -42.490  60.166 -55.683  1.00  0.00     0.019 C 
HETATM    7  N   UNL     1     -41.869  60.696 -56.645  1.00  0.00    -0.096 N 
HETATM    8  C   UNL     1     -43.412  60.411 -53.283  1.00  0.00     0.104 C 
HETATM    9  C   UNL     1     -43.738  59.613 -52.019  1.00  0.00     0.046 C 
HETATM   10  H   UNL     1     -44.711  56.840 -53.461  1.00  0.00     0.166 HD
ENDROOT
BRANCH   4  11
HETATM   11  S   UNL     1     -44.057  57.429 -56.047  1.00  0.00    -0.102 SA
BRANCH  11  12
HETATM   12  C   UNL     1     -42.586  56.391 -56.298  1.00  0.00     0.184 C 
BRANCH  12  13
HETATM   13  C   UNL     1     -42.504  55.285 -55.234  1.00  0.00     0.231 C 
HETATM   14  N   UNL     1     -41.219  54.840 -54.975  1.00  0.00    -0.327 N 
HETATM   15  H   UNL     1     -40.502  55.238 -55.573  1.00  0.00     0.169 HD
HETATM   16  O   UNL     1     -43.525  54.903 -54.665  1.00  0.00    -0.272 OA
BRANCH  14  17
HETATM   17  C   UNL     1     -40.789  53.838 -54.086  1.00  0.00     0.035 A 
HETATM   18  C   UNL     1     -40.546  52.515 -54.454  1.00  0.00     0.045 A 
HETATM   19  C   UNL     1     -40.111  51.573 -53.502  1.00  0.00     0.050 A 
HETATM   20  C   UNL     1     -39.910  51.982 -52.174  1.00  0.00     0.016 A 
HETATM   21  C   UNL     1     -40.151  53.300 -51.801  1.00  0.00     0.003 A 
HETATM   22  C   UNL     1     -40.594  54.220 -52.752  1.00  0.00     0.029 A 
BRANCH  19  23
HETATM   23  C   UNL     1     -39.842  50.140 -53.889  1.00  0.00     0.417 C 
HETATM   24  F   UNL     1     -39.671  49.303 -52.830  1.00  0.00    -0.166 F 
HETATM   25  F   UNL     1     -40.855  49.607 -54.629  1.00  0.00    -0.166 F 
HETATM   26  F   UNL     1     -38.720  50.009 -54.651  1.00  0.00    -0.166 F 
ENDBRANCH  19  23
ENDBRANCH  14  17
ENDBRANCH  12  13
ENDBRANCH  11  12
ENDBRANCH   4  11
BRANCH   8  27
HETATM   27  C   UNL     1     -44.494  61.458 -53.601  1.00  0.00    -0.042 A 
HETATM   28  C   UNL     1     -45.780  61.082 -54.023  1.00  0.00     0.027 A 
HETATM   29  C   UNL     1     -46.699  62.070 -54.338  1.00  0.00     0.116 A 
HETATM   30  N   UNL     1     -46.432  63.389 -54.279  1.00  0.00    -0.273 NA
HETATM   31  C   UNL     1     -45.193  63.735 -53.869  1.00  0.00     0.116 A 
HETATM   32  C   UNL     1     -44.204  62.824 -53.527  1.00  0.00     0.027 A 
ENDBRANCH   8  27
BRANCH   9  33
HETATM   33  C   UNL     1     -43.550  60.375 -50.742  1.00  0.00     0.255 C 
HETATM   34  N   UNL     1     -44.719  60.846 -50.184  1.00  0.00    -0.323 N 
HETATM   35  H   UNL     1     -45.583  60.642 -50.667  1.00  0.00     0.169 HD
HETATM   36  O   UNL     1     -42.430  60.456 -50.253  1.00  0.00    -0.268 OA
BRANCH  34  37
HETATM   37  C   UNL     1     -44.845  61.614 -49.003  1.00  0.00     0.035 A 
HETATM   38  C   UNL     1     -45.218  61.089 -47.763  1.00  0.00     0.029 A 
HETATM   39  C   UNL     1     -45.312  61.916 -46.639  1.00  0.00     0.002 A 
HETATM   40  C   UNL     1     -45.028  63.274 -46.741  1.00  0.00     0.000 A 
HETATM   41  C   UNL     1     -44.654  63.809 -47.971  1.00  0.00     0.002 A 
HETATM   42  C   UNL     1     -44.568  62.985 -49.097  1.00  0.00     0.029 A 
ENDBRANCH  34  37
ENDBRANCH   9  33
TORSDOF 8
ENDMDL
MODEL 5
REMARK VINA RESULT:      -9.0      4.752      8.067
REMARK  8 active torsions:
REMARK  status: ('A' for Active; 'I' for Inactive)
REMARK    1  A    between atoms: C_4  and  S_5 
REMARK    2  A    between atoms: S_5  and  C_6 
REMARK    3  A    between atoms: C_6  and  C_7 
REMARK       I    between atoms: C_7  and  N_8 
REMARK    4  A    between atoms: N_8  and  C_9 
REMARK    5  A    between atoms: C_11  and  C_12 
REMARK    6  A    between atoms: C_23  and  C_24 
REMARK    7  A    between atoms: C_30  and  C_31 
REMARK       I    between atoms: C_31  and  N_32 
REMARK    8  A    between atoms: N_32  and  C_33 
ROOT
HETATM    1  C   UNL     1     -43.232  55.398 -58.824  1.00  0.00     0.069 C 
HETATM    2  C   UNL     1     -43.569  56.572 -57.943  1.00  0.00     0.019 C 
HETATM    3  N   UNL     1     -43.027  56.541 -56.666  1.00  0.00    -0.353 N 
HETATM    4  C   UNL     1     -43.273  57.458 -55.657  1.00  0.00     0.087 C 
HETATM    5  C   UNL     1     -44.020  58.548 -55.946  1.00  0.00     0.055 C 
HETATM    6  C   UNL     1     -44.513  59.545 -54.911  1.00  0.00     0.019 C 
HETATM    7  N   UNL     1     -44.922  60.374 -54.052  1.00  0.00    -0.096 N 
HETATM    8  C   UNL     1     -44.382  58.870 -57.399  1.00  0.00     0.104 C 
HETATM    9  C   UNL     1     -44.285  57.656 -58.326  1.00  0.00     0.046 C 
HETATM   10  H   UNL     1     -42.421  55.763 -56.412  1.00  0.00     0.166 HD
ENDROOT
BRANCH   4  11
HETATM   11  S   UNL     1     -42.408  57.293 -54.149  1.00  0.00    -0.102 SA
BRANCH  11  12
HETATM   12  C   UNL     1     -43.582  56.504 -53.007  1.00  0.00     0.184 C 
BRANCH  12  13
HETATM   13  C   UNL     1     -43.005  55.199 -52.437  1.00  0.00     0.231 C 
HETATM   14  N   UNL     1     -41.812  54.804 -53.020  1.00  0.00    -0.327 N 
HETATM   15  H   UNL     1     -41.510  55.377 -53.802  1.00  0.00     0.169 HD
HETATM   16  O   UNL     1     -43.576  54.627 -51.512  1.00  0.00    -0.272 OA
BRANCH  14  17
HETATM   17  C   UNL     1     -41.031  53.665 -52.757  1.00  0.00     0.035 A 
HETATM   18  C   UNL     1     -40.926  52.570 -53.615  1.00  0.00     0.045 A 
HETATM   19  C   UNL     1     -40.116  51.469 -53.278  1.00  0.00     0.050 A 
HETATM   20  C   UNL     1     -39.399  51.488 -52.071  1.00  0.00     0.016 A 
HETATM   21  C   UNL     1     -39.500  52.576 -51.211  1.00  0.00     0.003 A 
HETATM   22  C   UNL     1     -40.316  53.655 -51.551  1.00  0.00     0.029 A 
BRANCH  19  23
HETATM   23  C   UNL     1     -39.993  50.280 -54.199  1.00  0.00     0.417 C 
HETATM   24  F   UNL     1     -41.186  49.791 -54.635  1.00  0.00    -0.166 F 
HETATM   25  F   UNL     1     -39.275  50.569 -55.321  1.00  0.00    -0.166 F 
HETATM   26  F   UNL     1     -39.352  49.231 -53.612  1.00  0.00    -0.166 F 
ENDBRANCH  19  23
ENDBRANCH  14  17
ENDBRANCH  12  13
ENDBRANCH  11  12
ENDBRANCH   4  11
BRANCH   8  27
HETATM   27  C   UNL     1     -43.479  60.025 -57.863  1.00  0.00    -0.042 A 
HETATM   28  C   UNL     1     -42.079  59.912 -57.858  1.00  0.00     0.027 A 
HETATM   29  C   UNL     1     -41.315  61.002 -58.244  1.00  0.00     0.116 A 
HETATM   30  N   UNL     1     -41.834  62.188 -58.617  1.00  0.00    -0.273 NA
HETATM   31  C   UNL     1     -43.182  62.281 -58.620  1.00  0.00     0.116 A 
HETATM   32  C   UNL     1     -44.034  61.248 -58.256  1.00  0.00     0.027 A 
ENDBRANCH   8  27
BRANCH   9  33
HETATM   33  C   UNL     1     -44.974  57.829 -59.645  1.00  0.00     0.255 C 
HETATM   34  N   UNL     1     -46.337  57.630 -59.606  1.00  0.00    -0.323 N 
HETATM   35  H   UNL     1     -46.749  57.392 -58.714  1.00  0.00     0.169 HD
HETATM   36  O   UNL     1     -44.325  58.204 -60.614  1.00  0.00    -0.268 OA
BRANCH  34  37
HETATM   37  C   UNL     1     -47.236  57.701 -60.695  1.00  0.00     0.035 A 
HETATM   38  C   UNL     1     -47.679  56.591 -61.419  1.00  0.00     0.029 A 
HETATM   39  C   UNL     1     -48.578  56.746 -62.480  1.00  0.00     0.002 A 
HETATM   40  C   UNL     1     -49.048  58.009 -62.823  1.00  0.00     0.000 A 
HETATM   41  C   UNL     1     -48.615  59.123 -62.108  1.00  0.00     0.002 A 
HETATM   42  C   UNL     1     -47.709  58.970 -61.053  1.00  0.00     0.029 A 
ENDBRANCH  34  37
ENDBRANCH   9  33
TORSDOF 8
ENDMDL
MODEL 6
REMARK VINA RESULT:      -8.6      2.535      4.161
REMARK  8 active torsions:
REMARK  status: ('A' for Active; 'I' for Inactive)
REMARK    1  A    between atoms: C_4  and  S_5 
REMARK    2  A    between atoms: S_5  and  C_6 
REMARK    3  A    between atoms: C_6  and  C_7 
REMARK       I    between atoms: C_7  and  N_8 
REMARK    4  A    between atoms: N_8  and  C_9 
REMARK    5  A    between atoms: C_11  and  C_12 
REMARK    6  A    between atoms: C_23  and  C_24 
REMARK    7  A    between atoms: C_30  and  C_31 
REMARK       I    between atoms: C_31  and  N_32 
REMARK    8  A    between atoms: N_32  and  C_33 
ROOT
HETATM    1  C   UNL     1     -44.577  57.424 -51.330  1.00  0.00     0.069 C 
HETATM    2  C   UNL     1     -44.071  58.300 -52.446  1.00  0.00     0.019 C 
HETATM    3  N   UNL     1     -44.140  57.753 -53.719  1.00  0.00    -0.353 N 
HETATM    4  C   UNL     1     -43.652  58.333 -54.879  1.00  0.00     0.087 C 
HETATM    5  C   UNL     1     -43.153  59.588 -54.810  1.00  0.00     0.055 C 
HETATM    6  C   UNL     1     -42.433  60.285 -55.953  1.00  0.00     0.019 C 
HETATM    7  N   UNL     1     -41.835  60.864 -56.901  1.00  0.00    -0.096 N 
HETATM    8  C   UNL     1     -43.340  60.423 -53.539  1.00  0.00     0.104 C 
HETATM    9  C   UNL     1     -43.633  59.573 -52.300  1.00  0.00     0.046 C 
HETATM   10  H   UNL     1     -44.547  56.827 -53.830  1.00  0.00     0.166 HD
ENDROOT
BRANCH   4  11
HETATM   11  S   UNL     1     -43.932  57.522 -56.400  1.00  0.00    -0.102 SA
BRANCH  11  12
HETATM   12  C   UNL     1     -42.496  56.432 -56.634  1.00  0.00     0.184 C 
BRANCH  12  13
HETATM   13  C   UNL     1     -42.432  55.361 -55.534  1.00  0.00     0.231 C 
HETATM   14  N   UNL     1     -41.147  55.021 -55.146  1.00  0.00    -0.327 N 
HETATM   15  H   UNL     1     -40.408  55.458 -55.690  1.00  0.00     0.169 HD
HETATM   16  O   UNL     1     -43.469  54.917 -55.047  1.00  0.00    -0.272 OA
BRANCH  14  17
HETATM   17  C   UNL     1     -40.728  54.076 -54.193  1.00  0.00     0.035 A 
HETATM   18  C   UNL     1     -40.776  54.279 -52.813  1.00  0.00     0.045 A 
HETATM   19  C   UNL     1     -40.342  53.276 -51.925  1.00  0.00     0.050 A 
HETATM   20  C   UNL     1     -39.870  52.058 -52.441  1.00  0.00     0.016 A 
HETATM   21  C   UNL     1     -39.820  51.851 -53.816  1.00  0.00     0.003 A 
HETATM   22  C   UNL     1     -40.241  52.857 -54.685  1.00  0.00     0.029 A 
BRANCH  19  23
HETATM   23  C   UNL     1     -40.392  53.483 -50.431  1.00  0.00     0.417 C 
HETATM   24  F   UNL     1     -39.386  54.260 -49.946  1.00  0.00    -0.166 F 
HETATM   25  F   UNL     1     -41.551  54.076 -50.031  1.00  0.00    -0.166 F 
HETATM   26  F   UNL     1     -40.321  52.309 -49.741  1.00  0.00    -0.166 F 
ENDBRANCH  19  23
ENDBRANCH  14  17
ENDBRANCH  12  13
ENDBRANCH  11  12
ENDBRANCH   4  11
BRANCH   8  27
HETATM   27  C   UNL     1     -44.451  61.451 -53.811  1.00  0.00    -0.042 A 
HETATM   28  C   UNL     1     -45.765  61.053 -54.107  1.00  0.00     0.027 A 
HETATM   29  C   UNL     1     -46.714  62.023 -54.389  1.00  0.00     0.116 A 
HETATM   30  N   UNL     1     -46.452  63.345 -54.411  1.00  0.00    -0.273 NA
HETATM   31  C   UNL     1     -45.185  63.712 -54.121  1.00  0.00     0.116 A 
HETATM   32  C   UNL     1     -44.165  62.821 -53.823  1.00  0.00     0.027 A 
ENDBRANCH   8  27
BRANCH   9  33
HETATM   33  C   UNL     1     -43.454  60.296 -51.000  1.00  0.00     0.255 C 
HETATM   34  N   UNL     1     -44.612  60.839 -50.486  1.00  0.00    -0.323 N 
HETATM   35  H   UNL     1     -45.464  60.707 -51.014  1.00  0.00     0.169 HD
HETATM   36  O   UNL     1     -42.356  60.286 -50.457  1.00  0.00    -0.268 OA
BRANCH  34  37
HETATM   37  C   UNL     1     -44.741  61.591 -49.296  1.00  0.00     0.035 A 
HETATM   38  C   UNL     1     -45.189  61.066 -48.081  1.00  0.00     0.029 A 
HETATM   39  C   UNL     1     -45.280  61.877 -46.945  1.00  0.00     0.002 A 
HETATM   40  C   UNL     1     -44.917  63.218 -47.009  1.00  0.00     0.000 A 
HETATM   41  C   UNL     1     -44.467  63.753 -48.213  1.00  0.00     0.002 A 
HETATM   42  C   UNL     1     -44.385  62.945 -49.352  1.00  0.00     0.029 A 
ENDBRANCH  34  37
ENDBRANCH   9  33
TORSDOF 8
ENDMDL
MODEL 7
REMARK VINA RESULT:      -8.5      5.837      9.954
REMARK  8 active torsions:
REMARK  status: ('A' for Active; 'I' for Inactive)
REMARK    1  A    between atoms: C_4  and  S_5 
REMARK    2  A    between atoms: S_5  and  C_6 
REMARK    3  A    between atoms: C_6  and  C_7 
REMARK       I    between atoms: C_7  and  N_8 
REMARK    4  A    between atoms: N_8  and  C_9 
REMARK    5  A    between atoms: C_11  and  C_12 
REMARK    6  A    between atoms: C_23  and  C_24 
REMARK    7  A    between atoms: C_30  and  C_31 
REMARK       I    between atoms: C_31  and  N_32 
REMARK    8  A    between atoms: N_32  and  C_33 
ROOT
HETATM    1  C   UNL     1     -42.735  55.107 -56.498  1.00  0.00     0.069 C 
HETATM    2  C   UNL     1     -42.299  55.955 -55.333  1.00  0.00     0.019 C 
HETATM    3  N   UNL     1     -42.952  57.171 -55.195  1.00  0.00    -0.353 N 
HETATM    4  C   UNL     1     -42.657  58.150 -54.260  1.00  0.00     0.087 C 
HETATM    5  C   UNL     1     -41.724  57.881 -53.319  1.00  0.00     0.055 C 
HETATM    6  C   UNL     1     -41.176  58.907 -52.341  1.00  0.00     0.019 C 
HETATM    7  N   UNL     1     -40.721  59.758 -51.529  1.00  0.00    -0.096 N 
HETATM    8  C   UNL     1     -41.185  56.457 -53.154  1.00  0.00     0.104 C 
HETATM    9  C   UNL     1     -41.389  55.589 -54.399  1.00  0.00     0.046 C 
HETATM   10  H   UNL     1     -43.694  57.403 -55.853  1.00  0.00     0.166 HD
ENDROOT
BRANCH   4  11
HETATM   11  S   UNL     1     -43.671  59.571 -54.190  1.00  0.00    -0.102 SA
BRANCH  11  12
HETATM   12  C   UNL     1     -45.289  59.037 -54.824  1.00  0.00     0.184 C 
BRANCH  12  13
HETATM   13  C   UNL     1     -45.318  59.070 -56.359  1.00  0.00     0.231 C 
HETATM   14  N   UNL     1     -46.526  58.682 -56.913  1.00  0.00    -0.327 N 
HETATM   15  H   UNL     1     -47.213  58.347 -56.244  1.00  0.00     0.169 HD
HETATM   16  O   UNL     1     -44.336  59.463 -56.984  1.00  0.00    -0.272 OA
BRANCH  14  17
HETATM   17  C   UNL     1     -46.889  58.578 -58.268  1.00  0.00     0.035 A 
HETATM   18  C   UNL     1     -47.484  59.604 -59.002  1.00  0.00     0.045 A 
HETATM   19  C   UNL     1     -47.811  59.419 -60.359  1.00  0.00     0.050 A 
HETATM   20  C   UNL     1     -47.519  58.192 -60.975  1.00  0.00     0.016 A 
HETATM   21  C   UNL     1     -46.927  57.164 -60.247  1.00  0.00     0.003 A 
HETATM   22  C   UNL     1     -46.620  57.356 -58.900  1.00  0.00     0.029 A 
BRANCH  19  23
HETATM   23  C   UNL     1     -48.452  60.523 -61.164  1.00  0.00     0.417 C 
HETATM   24  F   UNL     1     -48.683  61.662 -60.456  1.00  0.00    -0.166 F 
HETATM   25  F   UNL     1     -47.691  60.892 -62.231  1.00  0.00    -0.166 F 
HETATM   26  F   UNL     1     -49.659  60.156 -61.680  1.00  0.00    -0.166 F 
ENDBRANCH  19  23
ENDBRANCH  14  17
ENDBRANCH  12  13
ENDBRANCH  11  12
ENDBRANCH   4  11
BRANCH   8  27
HETATM   27  C   UNL     1     -41.849  55.845 -51.908  1.00  0.00    -0.042 A 
HETATM   28  C   UNL     1     -41.114  55.565 -50.745  1.00  0.00     0.027 A 
HETATM   29  C   UNL     1     -41.756  54.971 -49.670  1.00  0.00     0.116 A 
HETATM   30  N   UNL     1     -43.059  54.627 -49.672  1.00  0.00    -0.273 NA
HETATM   31  C   UNL     1     -43.754  54.905 -50.796  1.00  0.00     0.116 A 
HETATM   32  C   UNL     1     -43.205  55.500 -51.923  1.00  0.00     0.027 A 
ENDBRANCH   8  27
BRANCH   9  33
HETATM   33  C   UNL     1     -40.564  54.338 -54.421  1.00  0.00     0.255 C 
HETATM   34  N   UNL     1     -41.035  53.331 -53.607  1.00  0.00    -0.323 N 
HETATM   35  H   UNL     1     -41.877  53.513 -53.079  1.00  0.00     0.169 HD
HETATM   36  O   UNL     1     -39.614  54.262 -55.190  1.00  0.00    -0.268 OA
BRANCH  34  37
HETATM   37  C   UNL     1     -40.453  52.058 -53.409  1.00  0.00     0.035 A 
HETATM   38  C   UNL     1     -39.875  51.639 -52.208  1.00  0.00     0.029 A 
HETATM   39  C   UNL     1     -39.325  50.358 -52.091  1.00  0.00     0.002 A 
HETATM   40  C   UNL     1     -39.355  49.481 -53.169  1.00  0.00     0.000 A 
HETATM   41  C   UNL     1     -39.930  49.885 -54.371  1.00  0.00     0.002 A 
HETATM   42  C   UNL     1     -40.471  51.170 -54.492  1.00  0.00     0.029 A 
ENDBRANCH  34  37
ENDBRANCH   9  33
TORSDOF 8
ENDMDL
MODEL 8
REMARK VINA RESULT:      -8.4      4.587      6.016
REMARK  8 active torsions:
REMARK  status: ('A' for Active; 'I' for Inactive)
REMARK    1  A    between atoms: C_4  and  S_5 
REMARK    2  A    between atoms: S_5  and  C_6 
REMARK    3  A    between atoms: C_6  and  C_7 
REMARK       I    between atoms: C_7  and  N_8 
REMARK    4  A    between atoms: N_8  and  C_9 
REMARK    5  A    between atoms: C_11  and  C_12 
REMARK    6  A    between atoms: C_23  and  C_24 
REMARK    7  A    between atoms: C_30  and  C_31 
REMARK       I    between atoms: C_31  and  N_32 
REMARK    8  A    between atoms: N_32  and  C_33 
ROOT
HETATM    1  C   UNL     1     -45.718  60.181 -53.442  1.00  0.00     0.069 C 
HETATM    2  C   UNL     1     -44.861  59.124 -52.796  1.00  0.00     0.019 C 
HETATM    3  N   UNL     1     -44.700  57.953 -53.522  1.00  0.00    -0.353 N 
HETATM    4  C   UNL     1     -44.036  56.815 -53.092  1.00  0.00     0.087 C 
HETATM    5  C   UNL     1     -43.389  56.858 -51.905  1.00  0.00     0.055 C 
HETATM    6  C   UNL     1     -42.766  55.649 -51.227  1.00  0.00     0.019 C 
HETATM    7  N   UNL     1     -42.249  54.646 -50.664  1.00  0.00    -0.096 N 
HETATM    8  C   UNL     1     -43.202  58.193 -51.177  1.00  0.00     0.104 C 
HETATM    9  C   UNL     1     -44.200  59.265 -51.622  1.00  0.00     0.046 C 
HETATM   10  H   UNL     1     -45.131  57.886 -54.441  1.00  0.00     0.166 HD
ENDROOT
BRANCH   4  11
HETATM   11  S   UNL     1     -43.859  55.480 -54.204  1.00  0.00    -0.102 SA
BRANCH  11  12
HETATM   12  C   UNL     1     -42.465  55.933 -55.279  1.00  0.00     0.184 C 
BRANCH  12  13
HETATM   13  C   UNL     1     -42.897  56.956 -56.340  1.00  0.00     0.231 C 
HETATM   14  N   UNL     1     -41.882  57.350 -57.195  1.00  0.00    -0.327 N 
HETATM   15  H   UNL     1     -40.964  56.980 -56.966  1.00  0.00     0.169 HD
HETATM   16  O   UNL     1     -44.070  57.318 -56.403  1.00  0.00    -0.272 OA
BRANCH  14  17
HETATM   17  C   UNL     1     -41.923  58.274 -58.255  1.00  0.00     0.035 A 
HETATM   18  C   UNL     1     -41.728  59.647 -58.107  1.00  0.00     0.045 A 
HETATM   19  C   UNL     1     -41.780  60.504 -59.223  1.00  0.00     0.050 A 
HETATM   20  C   UNL     1     -42.016  59.961 -60.496  1.00  0.00     0.016 A 
HETATM   21  C   UNL     1     -42.212  58.592 -60.649  1.00  0.00     0.003 A 
HETATM   22  C   UNL     1     -42.172  57.756 -59.534  1.00  0.00     0.029 A 
BRANCH  19  23
HETATM   23  C   UNL     1     -41.568  61.991 -59.075  1.00  0.00     0.417 C 
HETATM   24  F   UNL     1     -41.438  62.652 -60.257  1.00  0.00    -0.166 F 
HETATM   25  F   UNL     1     -42.596  62.596 -58.417  1.00  0.00    -0.166 F 
HETATM   26  F   UNL     1     -40.447  62.287 -58.358  1.00  0.00    -0.166 F 
ENDBRANCH  19  23
ENDBRANCH  14  17
ENDBRANCH  12  13
ENDBRANCH  11  12
ENDBRANCH   4  11
BRANCH   8  27
HETATM   27  C   UNL     1     -41.744  58.641 -51.384  1.00  0.00    -0.042 A 
HETATM   28  C   UNL     1     -41.133  58.596 -52.648  1.00  0.00     0.027 A 
HETATM   29  C   UNL     1     -39.803  58.968 -52.765  1.00  0.00     0.116 A 
HETATM   30  N   UNL     1     -39.041  59.364 -51.727  1.00  0.00    -0.273 NA
HETATM   31  C   UNL     1     -39.643  59.406 -50.519  1.00  0.00     0.116 A 
HETATM   32  C   UNL     1     -40.968  59.057 -50.297  1.00  0.00     0.027 A 
ENDBRANCH   8  27
BRANCH   9  33
HETATM   33  C   UNL     1     -44.299  60.439 -50.696  1.00  0.00     0.255 C 
HETATM   34  N   UNL     1     -45.120  60.238 -49.608  1.00  0.00    -0.323 N 
HETATM   35  H   UNL     1     -45.574  59.339 -49.525  1.00  0.00     0.169 HD
HETATM   36  O   UNL     1     -43.609  61.428 -50.909  1.00  0.00    -0.268 OA
BRANCH  34  37
HETATM   37  C   UNL     1     -45.421  61.171 -48.589  1.00  0.00     0.035 A 
HETATM   38  C   UNL     1     -46.292  62.252 -48.748  1.00  0.00     0.029 A 
HETATM   39  C   UNL     1     -46.543  63.127 -47.685  1.00  0.00     0.002 A 
HETATM   40  C   UNL     1     -45.933  62.925 -46.452  1.00  0.00     0.000 A 
HETATM   41  C   UNL     1     -45.064  61.851 -46.280  1.00  0.00     0.002 A 
HETATM   42  C   UNL     1     -44.805  60.981 -47.344  1.00  0.00     0.029 A 
ENDBRANCH  34  37
ENDBRANCH   9  33
TORSDOF 8
ENDMDL
MODEL 9
REMARK VINA RESULT:      -8.3      5.519      9.858
REMARK  8 active torsions:
REMARK  status: ('A' for Active; 'I' for Inactive)
REMARK    1  A    between atoms: C_4  and  S_5 
REMARK    2  A    between atoms: S_5  and  C_6 
REMARK    3  A    between atoms: C_6  and  C_7 
REMARK       I    between atoms: C_7  and  N_8 
REMARK    4  A    between atoms: N_8  and  C_9 
REMARK    5  A    between atoms: C_11  and  C_12 
REMARK    6  A    between atoms: C_23  and  C_24 
REMARK    7  A    between atoms: C_30  and  C_31 
REMARK       I    between atoms: C_31  and  N_32 
REMARK    8  A    between atoms: N_32  and  C_33 
ROOT
HETATM    1  C   UNL     1     -43.082  54.743 -56.366  1.00  0.00     0.069 C 
HETATM    2  C   UNL     1     -42.635  55.693 -55.286  1.00  0.00     0.019 C 
HETATM    3  N   UNL     1     -43.371  56.863 -55.171  1.00  0.00    -0.353 N 
HETATM    4  C   UNL     1     -43.090  57.919 -54.318  1.00  0.00     0.087 C 
HETATM    5  C   UNL     1     -42.076  57.778 -53.434  1.00  0.00     0.055 C 
HETATM    6  C   UNL     1     -41.544  58.902 -52.559  1.00  0.00     0.019 C 
HETATM    7  N   UNL     1     -41.102  59.833 -51.832  1.00  0.00    -0.096 N 
HETATM    8  C   UNL     1     -41.417  56.411 -53.227  1.00  0.00     0.104 C 
HETATM    9  C   UNL     1     -41.637  55.455 -54.402  1.00  0.00     0.046 C 
HETATM   10  H   UNL     1     -44.171  56.999 -55.785  1.00  0.00     0.166 HD
ENDROOT
BRANCH   4  11
HETATM   11  S   UNL     1     -44.204  59.262 -54.256  1.00  0.00    -0.102 SA
BRANCH  11  12
HETATM   12  C   UNL     1     -44.566  59.666 -55.991  1.00  0.00     0.184 C 
BRANCH  12  13
HETATM   13  C   UNL     1     -43.366  60.355 -56.658  1.00  0.00     0.231 C 
HETATM   14  N   UNL     1     -43.492  60.515 -58.027  1.00  0.00    -0.327 N 
HETATM   15  H   UNL     1     -44.320  60.087 -58.432  1.00  0.00     0.169 HD
HETATM   16  O   UNL     1     -42.424  60.749 -55.973  1.00  0.00    -0.272 OA
BRANCH  14  17
HETATM   17  C   UNL     1     -42.585  61.079 -58.942  1.00  0.00     0.035 A 
HETATM   18  C   UNL     1     -41.668  62.080 -58.622  1.00  0.00     0.045 A 
HETATM   19  C   UNL     1     -40.789  62.588 -59.598  1.00  0.00     0.050 A 
HETATM   20  C   UNL     1     -40.835  62.066 -60.901  1.00  0.00     0.016 A 
HETATM   21  C   UNL     1     -41.748  61.068 -61.226  1.00  0.00     0.003 A 
HETATM   22  C   UNL     1     -42.621  60.583 -60.253  1.00  0.00     0.029 A 
BRANCH  19  23
HETATM   23  C   UNL     1     -39.791  63.668 -59.263  1.00  0.00     0.417 C 
HETATM   24  F   UNL     1     -39.855  64.101 -57.974  1.00  0.00    -0.166 F 
HETATM   25  F   UNL     1     -38.505  63.262 -59.458  1.00  0.00    -0.166 F 
HETATM   26  F   UNL     1     -39.948  64.779 -60.037  1.00  0.00    -0.166 F 
ENDBRANCH  19  23
ENDBRANCH  14  17
ENDBRANCH  12  13
ENDBRANCH  11  12
ENDBRANCH   4  11
BRANCH   8  27
HETATM   27  C   UNL     1     -41.944  55.831 -51.904  1.00  0.00    -0.042 A 
HETATM   28  C   UNL     1     -41.102  55.643 -50.795  1.00  0.00     0.027 A 
HETATM   29  C   UNL     1     -41.623  55.073 -49.644  1.00  0.00     0.116 A 
HETATM   30  N   UNL     1     -42.902  54.669 -49.520  1.00  0.00    -0.273 NA
HETATM   31  C   UNL     1     -43.701  54.859 -50.593  1.00  0.00     0.116 A 
HETATM   32  C   UNL     1     -43.277  55.423 -51.788  1.00  0.00     0.027 A 
ENDBRANCH   8  27
BRANCH   9  33
HETATM   33  C   UNL     1     -40.721  54.269 -54.413  1.00  0.00     0.255 C 
HETATM   34  N   UNL     1     -41.138  53.220 -53.623  1.00  0.00    -0.323 N 
HETATM   35  H   UNL     1     -42.005  53.332 -53.117  1.00  0.00     0.169 HD
HETATM   36  O   UNL     1     -39.746  54.274 -55.155  1.00  0.00    -0.268 OA
BRANCH  34  37
HETATM   37  C   UNL     1     -40.467  51.992 -53.421  1.00  0.00     0.035 A 
HETATM   38  C   UNL     1     -39.834  51.632 -52.228  1.00  0.00     0.029 A 
HETATM   39  C   UNL     1     -39.198  50.392 -52.106  1.00  0.00     0.002 A 
HETATM   40  C   UNL     1     -39.195  49.497 -53.171  1.00  0.00     0.000 A 
HETATM   41  C   UNL     1     -39.823  49.843 -54.364  1.00  0.00     0.002 A 
HETATM   42  C   UNL     1     -40.451  51.087 -54.491  1.00  0.00     0.029 A 
ENDBRANCH  34  37
ENDBRANCH   9  33
TORSDOF 8
ENDMDL
MODEL 10
REMARK VINA RESULT:      -8.3      5.953      9.776
REMARK  8 active torsions:
REMARK  status: ('A' for Active; 'I' for Inactive)
REMARK    1  A    between atoms: C_4  and  S_5 
REMARK    2  A    between atoms: S_5  and  C_6 
REMARK    3  A    between atoms: C_6  and  C_7 
REMARK       I    between atoms: C_7  and  N_8 
REMARK    4  A    between atoms: N_8  and  C_9 
REMARK    5  A    between atoms: C_11  and  C_12 
REMARK    6  A    between atoms: C_23  and  C_24 
REMARK    7  A    between atoms: C_30  and  C_31 
REMARK       I    between atoms: C_31  and  N_32 
REMARK    8  A    between atoms: N_32  and  C_33 
ROOT
HETATM    1  C   UNL     1     -43.454  53.809 -56.230  1.00  0.00     0.069 C 
HETATM    2  C   UNL     1     -43.076  55.265 -56.144  1.00  0.00     0.019 C 
HETATM    3  N   UNL     1     -43.911  56.144 -56.819  1.00  0.00    -0.353 N 
HETATM    4  C   UNL     1     -43.711  57.508 -56.957  1.00  0.00     0.087 C 
HETATM    5  C   UNL     1     -42.676  58.077 -56.298  1.00  0.00     0.055 C 
HETATM    6  C   UNL     1     -42.233  59.519 -56.486  1.00  0.00     0.019 C 
HETATM    7  N   UNL     1     -41.865  60.715 -56.641  1.00  0.00    -0.096 N 
HETATM    8  C   UNL     1     -41.896  57.277 -55.251  1.00  0.00     0.104 C 
HETATM    9  C   UNL     1     -42.048  55.762 -55.416  1.00  0.00     0.046 C 
HETATM   10  H   UNL     1     -44.729  55.771 -57.295  1.00  0.00     0.166 HD
ENDROOT
BRANCH   4  11
HETATM   11  S   UNL     1     -44.939  58.454 -57.762  1.00  0.00    -0.102 SA
BRANCH  11  12
HETATM   12  C   UNL     1     -44.858  57.958 -59.509  1.00  0.00     0.184 C 
BRANCH  12  13
HETATM   13  C   UNL     1     -43.632  58.573 -60.200  1.00  0.00     0.231 C 
HETATM   14  N   UNL     1     -43.673  59.953 -60.309  1.00  0.00    -0.327 N 
HETATM   15  H   UNL     1     -44.540  60.379 -59.994  1.00  0.00     0.169 HD
HETATM   16  O   UNL     1     -42.704  57.852 -60.562  1.00  0.00    -0.272 OA
BRANCH  14  17
HETATM   17  C   UNL     1     -42.739  60.825 -60.896  1.00  0.00     0.035 A 
HETATM   18  C   UNL     1     -41.739  61.494 -60.190  1.00  0.00     0.045 A 
HETATM   19  C   UNL     1     -40.838  62.347 -60.856  1.00  0.00     0.050 A 
HETATM   20  C   UNL     1     -40.948  62.510 -62.247  1.00  0.00     0.016 A 
HETATM   21  C   UNL     1     -41.944  61.847 -62.955  1.00  0.00     0.003 A 
HETATM   22  C   UNL     1     -42.837  61.014 -62.281  1.00  0.00     0.029 A 
BRANCH  19  23
HETATM   23  C   UNL     1     -39.751  63.073 -60.104  1.00  0.00     0.417 C 
HETATM   24  F   UNL     1     -38.702  63.458 -60.881  1.00  0.00    -0.166 F 
HETATM   25  F   UNL     1     -40.208  64.206 -59.502  1.00  0.00    -0.166 F 
HETATM   26  F   UNL     1     -39.215  62.315 -59.106  1.00  0.00    -0.166 F 
ENDBRANCH  19  23
ENDBRANCH  14  17
ENDBRANCH  12  13
ENDBRANCH  11  12
ENDBRANCH   4  11
BRANCH   8  27
HETATM   27  C   UNL     1     -42.350  57.754 -53.860  1.00  0.00    -0.042 A 
HETATM   28  C   UNL     1     -43.697  57.698 -53.467  1.00  0.00     0.027 A 
HETATM   29  C   UNL     1     -44.054  58.185 -52.220  1.00  0.00     0.116 A 
HETATM   30  N   UNL     1     -43.181  58.731 -51.350  1.00  0.00    -0.273 NA
HETATM   31  C   UNL     1     -41.889  58.775 -51.741  1.00  0.00     0.116 A 
HETATM   32  C   UNL     1     -41.431  58.311 -52.965  1.00  0.00     0.027 A 
ENDBRANCH   8  27
BRANCH   9  33
HETATM   33  C   UNL     1     -41.031  54.955 -54.670  1.00  0.00     0.255 C 
HETATM   34  N   UNL     1     -41.558  53.915 -53.934  1.00  0.00    -0.323 N 
HETATM   35  H   UNL     1     -42.560  53.785 -53.960  1.00  0.00     0.169 HD
HETATM   36  O   UNL     1     -39.841  55.204 -54.820  1.00  0.00    -0.268 OA
BRANCH  34  37
HETATM   37  C   UNL     1     -40.845  53.008 -53.116  1.00  0.00     0.035 A 
HETATM   38  C   UNL     1     -40.686  53.155 -51.736  1.00  0.00     0.029 A 
HETATM   39  C   UNL     1     -39.972  52.207 -50.996  1.00  0.00     0.002 A 
HETATM   40  C   UNL     1     -39.416  51.099 -51.627  1.00  0.00     0.000 A 
HETATM   41  C   UNL     1     -39.567  50.940 -53.002  1.00  0.00     0.002 A 
HETATM   42  C   UNL     1     -40.274  51.893 -53.744  1.00  0.00     0.029 A 
ENDBRANCH  34  37
ENDBRANCH   9  33
TORSDOF 8
ENDMDL
