MODEL 1
REMARK VINA RESULT:      -8.0      0.000      0.000
REMARK  6 active torsions:
REMARK  status: ('A' for Active; 'I' for Inactive)
REMARK    1  A    between atoms: C_2  and  C_3 
REMARK    2  A    between atoms: C_3  and  C_4 
REMARK    3  A    between atoms: C_7  and  C_8 
REMARK    4  A    between atoms: C_8  and  C_9 
REMARK       I    between atoms: C_9  and  N_10 
REMARK    5  A    between atoms: N_10  and  C_11 
REMARK    6  A    between atoms: C_18  and  C_19 
REMARK       I    between atoms: C_19  and  N_20 
ROOT
HETATM    1  C   UNL     1     -43.940  57.784 -57.175  1.00  0.00     0.035 A 
HETATM    2  C   UNL     1     -44.149  56.803 -58.154  1.00  0.00     0.046 A 
HETATM    3  C   UNL     1     -45.193  56.962 -59.091  1.00  0.00     0.030 A 
HETATM    4  C   UNL     1     -45.993  58.094 -59.017  1.00  0.00     0.063 A 
HETATM    5  N   UNL     1     -46.897  57.967 -60.035  1.00  0.00    -0.277 N 
HETATM    6  H   UNL     1     -47.638  58.613 -60.283  1.00  0.00     0.189 HD
HETATM    7  N   UNL     1     -46.757  56.851 -60.769  1.00  0.00    -0.168 NA
HETATM    8  C   UNL     1     -45.706  56.218 -60.198  1.00  0.00     0.156 A 
HETATM    9  C   UNL     1     -45.815  59.092 -58.058  1.00  0.00     0.034 A 
HETATM   10  C   UNL     1     -44.771  58.913 -57.141  1.00  0.00     0.032 A 
ENDROOT
BRANCH   1  11
HETATM   11  N   UNL     1     -42.913  57.723 -56.208  1.00  0.00    -0.327 N 
HETATM   12  C   UNL     1     -43.014  57.292 -54.896  1.00  0.00     0.226 C 
HETATM   13  O   UNL     1     -44.037  56.931 -54.322  1.00  0.00    -0.273 OA
HETATM   14  H   UNL     1     -42.009  58.083 -56.489  1.00  0.00     0.169 HD
BRANCH  12  15
HETATM   15  C   UNL     1     -41.674  57.254 -54.176  1.00  0.00     0.141 C 
BRANCH  15  16
HETATM   16  C   UNL     1     -41.155  55.870 -53.865  1.00  0.00    -0.049 A 
HETATM   17  C   UNL     1     -41.290  55.312 -52.587  1.00  0.00     0.008 A 
HETATM   18  C   UNL     1     -40.858  54.008 -52.331  1.00  0.00     0.007 A 
HETATM   19  C   UNL     1     -40.306  53.224 -53.352  1.00  0.00    -0.058 A 
HETATM   20  C   UNL     1     -40.178  53.778 -54.630  1.00  0.00     0.007 A 
HETATM   21  C   UNL     1     -40.602  55.085 -54.886  1.00  0.00     0.008 A 
BRANCH  19  22
HETATM   22  C   UNL     1     -39.870  51.804 -53.083  1.00  0.00     0.042 C 
BRANCH  22  23
HETATM   23  C   UNL     1     -39.953  50.824 -54.274  1.00  0.00    -0.019 C 
HETATM   24  C   UNL     1     -41.365  50.281 -54.501  1.00  0.00     0.010 C 
HETATM   25  C   UNL     1     -38.949  49.676 -54.173  1.00  0.00     0.010 C 
ENDBRANCH  22  23
ENDBRANCH  19  22
ENDBRANCH  15  16
ENDBRANCH  12  15
ENDBRANCH   1  11
BRANCH   8  26
HETATM   26  C   UNL     1     -45.218  54.933 -60.720  1.00  0.00     0.270 C 
HETATM   27  N   UNL     1     -45.153  53.939 -59.781  1.00  0.00    -0.365 N 
HETATM   28  H   UNL     1     -45.436  54.148 -58.832  1.00  0.00     0.159 HD
HETATM   29  H   UNL     1     -44.831  53.022 -60.048  1.00  0.00     0.159 HD
HETATM   30  O   UNL     1     -44.889  54.728 -61.882  1.00  0.00    -0.266 OA
ENDBRANCH   8  26
TORSDOF 6
ENDMDL
MODEL 2
REMARK VINA RESULT:      -7.9      2.246      2.990
REMARK  6 active torsions:
REMARK  status: ('A' for Active; 'I' for Inactive)
REMARK    1  A    between atoms: C_2  and  C_3 
REMARK    2  A    between atoms: C_3  and  C_4 
REMARK    3  A    between atoms: C_7  and  C_8 
REMARK    4  A    between atoms: C_8  and  C_9 
REMARK       I    between atoms: C_9  and  N_10 
REMARK    5  A    between atoms: N_10  and  C_11 
REMARK    6  A    between atoms: C_18  and  C_19 
REMARK       I    between atoms: C_19  and  N_20 
ROOT
HETATM    1  C   UNL     1     -42.471  58.244 -55.575  1.00  0.00     0.035 A 
HETATM    2  C   UNL     1     -42.621  57.698 -56.856  1.00  0.00     0.046 A 
HETATM    3  C   UNL     1     -42.466  58.523 -57.991  1.00  0.00     0.030 A 
HETATM    4  C   UNL     1     -42.169  59.867 -57.807  1.00  0.00     0.063 A 
HETATM    5  N   UNL     1     -42.081  60.395 -59.064  1.00  0.00    -0.277 N 
HETATM    6  H   UNL     1     -41.877  61.357 -59.314  1.00  0.00     0.189 HD
HETATM    7  N   UNL     1     -42.295  59.515 -60.055  1.00  0.00    -0.168 NA
HETATM    8  C   UNL     1     -42.533  58.351 -59.408  1.00  0.00     0.156 A 
HETATM    9  C   UNL     1     -42.012  60.447 -56.547  1.00  0.00     0.034 A 
HETATM   10  C   UNL     1     -42.168  59.607 -55.437  1.00  0.00     0.032 A 
ENDROOT
BRANCH   1  11
HETATM   11  N   UNL     1     -42.590  57.497 -54.383  1.00  0.00    -0.327 N 
HETATM   12  C   UNL     1     -43.705  56.820 -53.918  1.00  0.00     0.226 C 
HETATM   13  O   UNL     1     -44.814  56.793 -54.442  1.00  0.00    -0.273 OA
HETATM   14  H   UNL     1     -41.783  57.497 -53.770  1.00  0.00     0.169 HD
BRANCH  12  15
HETATM   15  C   UNL     1     -43.434  56.025 -52.650  1.00  0.00     0.141 C 
BRANCH  15  16
HETATM   16  C   UNL     1     -42.466  54.877 -52.811  1.00  0.00    -0.049 A 
HETATM   17  C   UNL     1     -42.331  54.203 -54.032  1.00  0.00     0.008 A 
HETATM   18  C   UNL     1     -41.389  53.182 -54.182  1.00  0.00     0.007 A 
HETATM   19  C   UNL     1     -40.544  52.828 -53.123  1.00  0.00    -0.058 A 
HETATM   20  C   UNL     1     -40.673  53.505 -51.905  1.00  0.00     0.007 A 
HETATM   21  C   UNL     1     -41.620  54.522 -51.752  1.00  0.00     0.008 A 
BRANCH  19  22
HETATM   22  C   UNL     1     -39.504  51.747 -53.294  1.00  0.00     0.042 C 
BRANCH  22  23
HETATM   23  C   UNL     1     -40.034  50.302 -53.429  1.00  0.00    -0.019 C 
HETATM   24  C   UNL     1     -39.533  49.378 -52.317  1.00  0.00     0.010 C 
HETATM   25  C   UNL     1     -39.752  49.689 -54.800  1.00  0.00     0.010 C 
ENDBRANCH  22  23
ENDBRANCH  19  22
ENDBRANCH  15  16
ENDBRANCH  12  15
ENDBRANCH   1  11
BRANCH   8  26
HETATM   26  C   UNL     1     -42.814  57.113 -60.149  1.00  0.00     0.270 C 
HETATM   27  N   UNL     1     -44.086  57.037 -60.648  1.00  0.00    -0.365 N 
HETATM   28  H   UNL     1     -44.719  57.810 -60.482  1.00  0.00     0.159 HD
HETATM   29  H   UNL     1     -44.368  56.224 -61.172  1.00  0.00     0.159 HD
HETATM   30  O   UNL     1     -42.009  56.205 -60.327  1.00  0.00    -0.266 OA
ENDBRANCH   8  26
TORSDOF 6
ENDMDL
MODEL 3
REMARK VINA RESULT:      -7.7      1.717      2.812
REMARK  6 active torsions:
REMARK  status: ('A' for Active; 'I' for Inactive)
REMARK    1  A    between atoms: C_2  and  C_3 
REMARK    2  A    between atoms: C_3  and  C_4 
REMARK    3  A    between atoms: C_7  and  C_8 
REMARK    4  A    between atoms: C_8  and  C_9 
REMARK       I    between atoms: C_9  and  N_10 
REMARK    5  A    between atoms: N_10  and  C_11 
REMARK    6  A    between atoms: C_18  and  C_19 
REMARK       I    between atoms: C_19  and  N_20 
ROOT
HETATM    1  C   UNL     1     -43.552  56.498 -58.125  1.00  0.00     0.035 A 
HETATM    2  C   UNL     1     -44.621  57.374 -58.355  1.00  0.00     0.046 A 
HETATM    3  C   UNL     1     -45.503  57.134 -59.432  1.00  0.00     0.030 A 
HETATM    4  C   UNL     1     -45.286  56.028 -60.242  1.00  0.00     0.063 A 
HETATM    5  N   UNL     1     -46.282  56.061 -61.177  1.00  0.00    -0.277 N 
HETATM    6  H   UNL     1     -46.437  55.404 -61.933  1.00  0.00     0.189 HD
HETATM    7  N   UNL     1     -47.133  57.091 -61.049  1.00  0.00    -0.168 NA
HETATM    8  C   UNL     1     -46.666  57.765 -59.972  1.00  0.00     0.156 A 
HETATM    9  C   UNL     1     -44.233  55.132 -60.044  1.00  0.00     0.034 A 
HETATM   10  C   UNL     1     -43.374  55.391 -58.968  1.00  0.00     0.032 A 
ENDROOT
BRANCH   1  11
HETATM   11  N   UNL     1     -42.630  56.645 -57.066  1.00  0.00    -0.327 N 
HETATM   12  C   UNL     1     -42.869  56.493 -55.711  1.00  0.00     0.226 C 
HETATM   13  O   UNL     1     -43.949  56.250 -55.183  1.00  0.00    -0.273 OA
HETATM   14  H   UNL     1     -41.697  56.947 -57.322  1.00  0.00     0.169 HD
BRANCH  12  15
HETATM   15  C   UNL     1     -41.609  56.615 -54.867  1.00  0.00     0.141 C 
BRANCH  15  16
HETATM   16  C   UNL     1     -41.080  55.311 -54.318  1.00  0.00    -0.049 A 
HETATM   17  C   UNL     1     -40.434  54.382 -55.144  1.00  0.00     0.008 A 
HETATM   18  C   UNL     1     -39.898  53.207 -54.609  1.00  0.00     0.007 A 
HETATM   19  C   UNL     1     -39.973  52.947 -53.235  1.00  0.00    -0.058 A 
HETATM   20  C   UNL     1     -40.611  53.879 -52.409  1.00  0.00     0.007 A 
HETATM   21  C   UNL     1     -41.154  55.050 -52.943  1.00  0.00     0.008 A 
BRANCH  19  22
HETATM   22  C   UNL     1     -39.365  51.693 -52.654  1.00  0.00     0.042 C 
BRANCH  22  23
HETATM   23  C   UNL     1     -39.996  50.356 -53.099  1.00  0.00    -0.019 C 
HETATM   24  C   UNL     1     -39.732  49.215 -52.113  1.00  0.00     0.010 C 
HETATM   25  C   UNL     1     -39.587  49.944 -54.513  1.00  0.00     0.010 C 
ENDBRANCH  22  23
ENDBRANCH  19  22
ENDBRANCH  15  16
ENDBRANCH  12  15
ENDBRANCH   1  11
BRANCH   8  26
HETATM   26  C   UNL     1     -47.334  58.982 -59.488  1.00  0.00     0.270 C 
HETATM   27  N   UNL     1     -47.616  59.892 -60.470  1.00  0.00    -0.365 N 
HETATM   28  H   UNL     1     -47.358  59.672 -61.424  1.00  0.00     0.159 HD
HETATM   29  H   UNL     1     -48.076  60.756 -60.231  1.00  0.00     0.159 HD
HETATM   30  O   UNL     1     -47.630  59.199 -58.319  1.00  0.00    -0.266 OA
ENDBRANCH   8  26
TORSDOF 6
ENDMDL
MODEL 4
REMARK VINA RESULT:      -7.7      3.771      8.617
REMARK  6 active torsions:
REMARK  status: ('A' for Active; 'I' for Inactive)
REMARK    1  A    between atoms: C_2  and  C_3 
REMARK    2  A    between atoms: C_3  and  C_4 
REMARK    3  A    between atoms: C_7  and  C_8 
REMARK    4  A    between atoms: C_8  and  C_9 
REMARK       I    between atoms: C_9  and  N_10 
REMARK    5  A    between atoms: N_10  and  C_11 
REMARK    6  A    between atoms: C_18  and  C_19 
REMARK       I    between atoms: C_19  and  N_20 
ROOT
HETATM    1  C   UNL     1     -40.879  54.321 -52.640  1.00  0.00     0.035 A 
HETATM    2  C   UNL     1     -40.609  53.097 -53.266  1.00  0.00     0.046 A 
HETATM    3  C   UNL     1     -40.210  51.987 -52.489  1.00  0.00     0.030 A 
HETATM    4  C   UNL     1     -40.094  52.139 -51.114  1.00  0.00     0.063 A 
HETATM    5  N   UNL     1     -39.700  50.917 -50.646  1.00  0.00    -0.277 N 
HETATM    6  H   UNL     1     -39.517  50.658 -49.683  1.00  0.00     0.189 HD
HETATM    7  N   UNL     1     -39.548  49.979 -51.594  1.00  0.00    -0.168 NA
HETATM    8  C   UNL     1     -39.861  50.625 -52.741  1.00  0.00     0.156 A 
HETATM    9  C   UNL     1     -40.356  53.342 -50.455  1.00  0.00     0.034 A 
HETATM   10  C   UNL     1     -40.752  54.426 -51.248  1.00  0.00     0.032 A 
ENDROOT
BRANCH   1  11
HETATM   11  N   UNL     1     -41.300  55.480 -53.329  1.00  0.00    -0.327 N 
HETATM   12  C   UNL     1     -42.585  55.805 -53.729  1.00  0.00     0.226 C 
HETATM   13  O   UNL     1     -43.588  55.112 -53.596  1.00  0.00    -0.273 OA
HETATM   14  H   UNL     1     -40.570  56.125 -53.610  1.00  0.00     0.169 HD
BRANCH  12  15
HETATM   15  C   UNL     1     -42.683  57.192 -54.347  1.00  0.00     0.141 C 
BRANCH  15  16
HETATM   16  C   UNL     1     -43.190  57.221 -55.770  1.00  0.00    -0.049 A 
HETATM   17  C   UNL     1     -42.589  56.450 -56.774  1.00  0.00     0.008 A 
HETATM   18  C   UNL     1     -43.106  56.443 -58.071  1.00  0.00     0.007 A 
HETATM   19  C   UNL     1     -44.250  57.186 -58.390  1.00  0.00    -0.058 A 
HETATM   20  C   UNL     1     -44.855  57.951 -57.386  1.00  0.00     0.007 A 
HETATM   21  C   UNL     1     -44.334  57.965 -56.089  1.00  0.00     0.008 A 
BRANCH  19  22
HETATM   22  C   UNL     1     -44.828  57.154 -59.784  1.00  0.00     0.042 C 
BRANCH  22  23
HETATM   23  C   UNL     1     -45.711  55.935 -60.131  1.00  0.00    -0.019 C 
HETATM   24  C   UNL     1     -45.060  54.999 -61.151  1.00  0.00     0.010 C 
HETATM   25  C   UNL     1     -47.116  56.327 -60.587  1.00  0.00     0.010 C 
ENDBRANCH  22  23
ENDBRANCH  19  22
ENDBRANCH  15  16
ENDBRANCH  12  15
ENDBRANCH   1  11
BRANCH   8  26
HETATM   26  C   UNL     1     -39.824  49.933 -54.038  1.00  0.00     0.270 C 
HETATM   27  N   UNL     1     -41.030  49.892 -54.684  1.00  0.00    -0.365 N 
HETATM   28  H   UNL     1     -41.831  50.327 -54.243  1.00  0.00     0.159 HD
HETATM   29  H   UNL     1     -41.099  49.439 -55.581  1.00  0.00     0.159 HD
HETATM   30  O   UNL     1     -38.824  49.424 -54.531  1.00  0.00    -0.266 OA
ENDBRANCH   8  26
TORSDOF 6
ENDMDL
MODEL 5
REMARK VINA RESULT:      -7.6      4.400      8.972
REMARK  6 active torsions:
REMARK  status: ('A' for Active; 'I' for Inactive)
REMARK    1  A    between atoms: C_2  and  C_3 
REMARK    2  A    between atoms: C_3  and  C_4 
REMARK    3  A    between atoms: C_7  and  C_8 
REMARK    4  A    between atoms: C_8  and  C_9 
REMARK       I    between atoms: C_9  and  N_10 
REMARK    5  A    between atoms: N_10  and  C_11 
REMARK    6  A    between atoms: C_18  and  C_19 
REMARK       I    between atoms: C_19  and  N_20 
ROOT
HETATM    1  C   UNL     1     -41.152  54.368 -54.705  1.00  0.00     0.035 A 
HETATM    2  C   UNL     1     -40.717  53.048 -54.528  1.00  0.00     0.046 A 
HETATM    3  C   UNL     1     -40.324  52.607 -53.245  1.00  0.00     0.030 A 
HETATM    4  C   UNL     1     -40.379  53.502 -52.184  1.00  0.00     0.063 A 
HETATM    5  N   UNL     1     -39.946  52.799 -51.094  1.00  0.00    -0.277 N 
HETATM    6  H   UNL     1     -39.855  53.136 -50.142  1.00  0.00     0.189 HD
HETATM    7  N   UNL     1     -39.614  51.523 -51.349  1.00  0.00    -0.168 NA
HETATM    8  C   UNL     1     -39.844  51.388 -52.676  1.00  0.00     0.156 A 
HETATM    9  C   UNL     1     -40.808  54.823 -52.321  1.00  0.00     0.034 A 
HETATM   10  C   UNL     1     -41.194  55.234 -53.603  1.00  0.00     0.032 A 
ENDROOT
BRANCH   1  11
HETATM   11  N   UNL     1     -41.580  54.895 -55.943  1.00  0.00    -0.327 N 
HETATM   12  C   UNL     1     -42.800  55.483 -56.235  1.00  0.00     0.226 C 
HETATM   13  O   UNL     1     -43.752  55.607 -55.471  1.00  0.00    -0.273 OA
HETATM   14  H   UNL     1     -40.942  54.783 -56.723  1.00  0.00     0.169 HD
BRANCH  12  15
HETATM   15  C   UNL     1     -42.869  56.041 -57.648  1.00  0.00     0.141 C 
BRANCH  15  16
HETATM   16  C   UNL     1     -42.541  57.511 -57.771  1.00  0.00    -0.049 A 
HETATM   17  C   UNL     1     -42.457  58.335 -56.642  1.00  0.00     0.008 A 
HETATM   18  C   UNL     1     -42.094  59.679 -56.767  1.00  0.00     0.007 A 
HETATM   19  C   UNL     1     -41.783  60.222 -58.020  1.00  0.00    -0.058 A 
HETATM   20  C   UNL     1     -41.860  59.397 -59.147  1.00  0.00     0.007 A 
HETATM   21  C   UNL     1     -42.230  58.055 -59.025  1.00  0.00     0.008 A 
BRANCH  19  22
HETATM   22  C   UNL     1     -41.360  61.665 -58.151  1.00  0.00     0.042 C 
BRANCH  22  23
HETATM   23  C   UNL     1     -40.805  62.094 -59.527  1.00  0.00    -0.019 C 
HETATM   24  C   UNL     1     -39.497  62.880 -59.423  1.00  0.00     0.010 C 
HETATM   25  C   UNL     1     -41.824  62.863 -60.369  1.00  0.00     0.010 C 
ENDBRANCH  22  23
ENDBRANCH  19  22
ENDBRANCH  15  16
ENDBRANCH  12  15
ENDBRANCH   1  11
BRANCH   8  26
HETATM   26  C   UNL     1     -39.604  50.110 -53.363  1.00  0.00     0.270 C 
HETATM   27  N   UNL     1     -39.429  49.047 -52.519  1.00  0.00    -0.365 N 
HETATM   28  H   UNL     1     -39.477  49.208 -51.520  1.00  0.00     0.159 HD
HETATM   29  H   UNL     1     -39.261  48.131 -52.901  1.00  0.00     0.159 HD
HETATM   30  O   UNL     1     -39.558  49.967 -54.579  1.00  0.00    -0.266 OA
ENDBRANCH   8  26
TORSDOF 6
ENDMDL
MODEL 6
REMARK VINA RESULT:      -7.6      1.481      2.168
REMARK  6 active torsions:
REMARK  status: ('A' for Active; 'I' for Inactive)
REMARK    1  A    between atoms: C_2  and  C_3 
REMARK    2  A    between atoms: C_3  and  C_4 
REMARK    3  A    between atoms: C_7  and  C_8 
REMARK    4  A    between atoms: C_8  and  C_9 
REMARK       I    between atoms: C_9  and  N_10 
REMARK    5  A    between atoms: N_10  and  C_11 
REMARK    6  A    between atoms: C_18  and  C_19 
REMARK       I    between atoms: C_19  and  N_20 
ROOT
HETATM    1  C   UNL     1     -43.932  58.320 -55.637  1.00  0.00     0.035 A 
HETATM    2  C   UNL     1     -44.397  57.691 -56.800  1.00  0.00     0.046 A 
HETATM    3  C   UNL     1     -45.409  58.304 -57.570  1.00  0.00     0.030 A 
HETATM    4  C   UNL     1     -45.924  59.524 -57.150  1.00  0.00     0.063 A 
HETATM    5  N   UNL     1     -46.869  59.858 -58.079  1.00  0.00    -0.277 N 
HETATM    6  H   UNL     1     -47.450  60.688 -58.093  1.00  0.00     0.189 HD
HETATM    7  N   UNL     1     -47.017  58.965 -59.070  1.00  0.00    -0.168 NA
HETATM    8  C   UNL     1     -46.120  57.997 -58.771  1.00  0.00     0.156 A 
HETATM    9  C   UNL     1     -45.486  60.181 -55.998  1.00  0.00     0.034 A 
HETATM   10  C   UNL     1     -44.479  59.553 -55.254  1.00  0.00     0.032 A 
ENDROOT
BRANCH   1  11
HETATM   11  N   UNL     1     -42.912  57.795 -54.813  1.00  0.00    -0.327 N 
HETATM   12  C   UNL     1     -41.745  58.422 -54.410  1.00  0.00     0.226 C 
HETATM   13  O   UNL     1     -41.364  59.540 -54.743  1.00  0.00    -0.273 OA
HETATM   14  H   UNL     1     -43.021  56.829 -54.525  1.00  0.00     0.169 HD
BRANCH  12  15
HETATM   15  C   UNL     1     -40.932  57.592 -53.428  1.00  0.00     0.141 C 
BRANCH  15  16
HETATM   16  C   UNL     1     -40.966  56.101 -53.671  1.00  0.00    -0.049 A 
HETATM   17  C   UNL     1     -40.277  55.522 -54.744  1.00  0.00     0.008 A 
HETATM   18  C   UNL     1     -40.271  54.136 -54.920  1.00  0.00     0.007 A 
HETATM   19  C   UNL     1     -40.931  53.296 -54.014  1.00  0.00    -0.058 A 
HETATM   20  C   UNL     1     -41.613  53.874 -52.937  1.00  0.00     0.007 A 
HETATM   21  C   UNL     1     -41.627  55.261 -52.764  1.00  0.00     0.008 A 
BRANCH  19  22
HETATM   22  C   UNL     1     -40.897  51.797 -54.186  1.00  0.00     0.042 C 
BRANCH  22  23
HETATM   23  C   UNL     1     -39.595  51.087 -53.751  1.00  0.00    -0.019 C 
HETATM   24  C   UNL     1     -39.439  49.697 -54.372  1.00  0.00     0.010 C 
HETATM   25  C   UNL     1     -39.434  51.014 -52.233  1.00  0.00     0.010 C 
ENDBRANCH  22  23
ENDBRANCH  19  22
ENDBRANCH  15  16
ENDBRANCH  12  15
ENDBRANCH   1  11
BRANCH   8  26
HETATM   26  C   UNL     1     -45.960  56.815 -59.630  1.00  0.00     0.270 C 
HETATM   27  N   UNL     1     -47.127  56.144 -59.879  1.00  0.00    -0.365 N 
HETATM   28  H   UNL     1     -47.985  56.496 -59.472  1.00  0.00     0.159 HD
HETATM   29  H   UNL     1     -47.115  55.322 -60.460  1.00  0.00     0.159 HD
HETATM   30  O   UNL     1     -44.897  56.431 -60.102  1.00  0.00    -0.266 OA
ENDBRANCH   8  26
TORSDOF 6
ENDMDL
MODEL 7
REMARK VINA RESULT:      -7.5      2.943      4.007
REMARK  6 active torsions:
REMARK  status: ('A' for Active; 'I' for Inactive)
REMARK    1  A    between atoms: C_2  and  C_3 
REMARK    2  A    between atoms: C_3  and  C_4 
REMARK    3  A    between atoms: C_7  and  C_8 
REMARK    4  A    between atoms: C_8  and  C_9 
REMARK       I    between atoms: C_9  and  N_10 
REMARK    5  A    between atoms: N_10  and  C_11 
REMARK    6  A    between atoms: C_18  and  C_19 
REMARK       I    between atoms: C_19  and  N_20 
ROOT
HETATM    1  C   UNL     1     -42.602  57.177 -56.387  1.00  0.00     0.035 A 
HETATM    2  C   UNL     1     -42.158  58.477 -56.660  1.00  0.00     0.046 A 
HETATM    3  C   UNL     1     -42.132  58.942 -57.993  1.00  0.00     0.030 A 
HETATM    4  C   UNL     1     -42.548  58.090 -59.008  1.00  0.00     0.063 A 
HETATM    5  N   UNL     1     -42.411  58.807 -60.163  1.00  0.00    -0.277 N 
HETATM    6  H   UNL     1     -42.623  58.500 -61.106  1.00  0.00     0.189 HD
HETATM    7  N   UNL     1     -41.942  60.053 -59.993  1.00  0.00    -0.168 NA
HETATM    8  C   UNL     1     -41.765  60.153 -58.656  1.00  0.00     0.156 A 
HETATM    9  C   UNL     1     -42.997  56.789 -58.775  1.00  0.00     0.034 A 
HETATM   10  C   UNL     1     -43.017  56.353 -57.444  1.00  0.00     0.032 A 
ENDROOT
BRANCH   1  11
HETATM   11  N   UNL     1     -42.680  56.630 -55.087  1.00  0.00    -0.327 N 
HETATM   12  C   UNL     1     -43.788  56.580 -54.258  1.00  0.00     0.226 C 
HETATM   13  O   UNL     1     -44.896  57.052 -54.490  1.00  0.00    -0.273 OA
HETATM   14  H   UNL     1     -41.814  56.279 -54.694  1.00  0.00     0.169 HD
BRANCH  12  15
HETATM   15  C   UNL     1     -43.533  55.811 -52.969  1.00  0.00     0.141 C 
BRANCH  15  16
HETATM   16  C   UNL     1     -42.423  54.789 -53.045  1.00  0.00    -0.049 A 
HETATM   17  C   UNL     1     -41.448  54.697 -52.044  1.00  0.00     0.008 A 
HETATM   18  C   UNL     1     -40.463  53.708 -52.099  1.00  0.00     0.007 A 
HETATM   19  C   UNL     1     -40.445  52.773 -53.142  1.00  0.00    -0.058 A 
HETATM   20  C   UNL     1     -41.424  52.860 -54.139  1.00  0.00     0.007 A 
HETATM   21  C   UNL     1     -42.405  53.854 -54.089  1.00  0.00     0.008 A 
BRANCH  19  22
HETATM   22  C   UNL     1     -39.400  51.684 -53.184  1.00  0.00     0.042 C 
BRANCH  22  23
HETATM   23  C   UNL     1     -39.920  50.242 -53.367  1.00  0.00    -0.019 C 
HETATM   24  C   UNL     1     -39.446  49.294 -52.264  1.00  0.00     0.010 C 
HETATM   25  C   UNL     1     -39.600  49.661 -54.744  1.00  0.00     0.010 C 
ENDBRANCH  22  23
ENDBRANCH  19  22
ENDBRANCH  15  16
ENDBRANCH  12  15
ENDBRANCH   1  11
BRANCH   8  26
HETATM   26  C   UNL     1     -41.258  61.391 -58.046  1.00  0.00     0.270 C 
HETATM   27  N   UNL     1     -42.057  61.893 -57.055  1.00  0.00    -0.365 N 
HETATM   28  H   UNL     1     -42.907  61.395 -56.817  1.00  0.00     0.159 HD
HETATM   29  H   UNL     1     -41.788  62.739 -56.579  1.00  0.00     0.159 HD
HETATM   30  O   UNL     1     -40.218  61.955 -58.367  1.00  0.00    -0.266 OA
ENDBRANCH   8  26
TORSDOF 6
ENDMDL
MODEL 8
REMARK VINA RESULT:      -7.5      3.471      9.318
REMARK  6 active torsions:
REMARK  status: ('A' for Active; 'I' for Inactive)
REMARK    1  A    between atoms: C_2  and  C_3 
REMARK    2  A    between atoms: C_3  and  C_4 
REMARK    3  A    between atoms: C_7  and  C_8 
REMARK    4  A    between atoms: C_8  and  C_9 
REMARK       I    between atoms: C_9  and  N_10 
REMARK    5  A    between atoms: N_10  and  C_11 
REMARK    6  A    between atoms: C_18  and  C_19 
REMARK       I    between atoms: C_19  and  N_20 
ROOT
HETATM    1  C   UNL     1     -40.850  54.359 -54.286  1.00  0.00     0.035 A 
HETATM    2  C   UNL     1     -41.113  54.503 -52.917  1.00  0.00     0.046 A 
HETATM    3  C   UNL     1     -40.722  53.486 -52.018  1.00  0.00     0.030 A 
HETATM    4  C   UNL     1     -40.084  52.359 -52.520  1.00  0.00     0.063 A 
HETATM    5  N   UNL     1     -39.835  51.569 -51.432  1.00  0.00    -0.277 N 
HETATM    6  H   UNL     1     -39.380  50.664 -51.422  1.00  0.00     0.189 HD
HETATM    7  N   UNL     1     -40.253  52.081 -50.264  1.00  0.00    -0.168 NA
HETATM    8  C   UNL     1     -40.803  53.268 -50.609  1.00  0.00     0.156 A 
HETATM    9  C   UNL     1     -39.806  52.180 -53.876  1.00  0.00     0.034 A 
HETATM   10  C   UNL     1     -40.201  53.204 -54.745  1.00  0.00     0.032 A 
ENDROOT
BRANCH   1  11
HETATM   11  N   UNL     1     -41.186  55.328 -55.256  1.00  0.00    -0.327 N 
HETATM   12  C   UNL     1     -42.452  55.756 -55.618  1.00  0.00     0.226 C 
HETATM   13  O   UNL     1     -43.519  55.328 -55.189  1.00  0.00    -0.273 OA
HETATM   14  H   UNL     1     -40.416  55.719 -55.786  1.00  0.00     0.169 HD
BRANCH  12  15
HETATM   15  C   UNL     1     -42.430  56.900 -56.622  1.00  0.00     0.141 C 
BRANCH  15  16
HETATM   16  C   UNL     1     -43.370  56.740 -57.793  1.00  0.00    -0.049 A 
HETATM   17  C   UNL     1     -43.147  55.770 -58.779  1.00  0.00     0.008 A 
HETATM   18  C   UNL     1     -44.058  55.596 -59.824  1.00  0.00     0.007 A 
HETATM   19  C   UNL     1     -45.224  56.368 -59.893  1.00  0.00    -0.058 A 
HETATM   20  C   UNL     1     -45.451  57.331 -58.904  1.00  0.00     0.007 A 
HETATM   21  C   UNL     1     -44.537  57.513 -57.862  1.00  0.00     0.008 A 
BRANCH  19  22
HETATM   22  C   UNL     1     -46.225  56.157 -61.004  1.00  0.00     0.042 C 
BRANCH  22  23
HETATM   23  C   UNL     1     -47.472  57.067 -60.985  1.00  0.00    -0.019 C 
HETATM   24  C   UNL     1     -48.518  56.666 -62.027  1.00  0.00     0.010 C 
HETATM   25  C   UNL     1     -47.131  58.551 -61.115  1.00  0.00     0.010 C 
ENDBRANCH  22  23
ENDBRANCH  19  22
ENDBRANCH  15  16
ENDBRANCH  12  15
ENDBRANCH   1  11
BRANCH   8  26
HETATM   26  C   UNL     1     -41.386  54.160 -49.595  1.00  0.00     0.270 C 
HETATM   27  N   UNL     1     -40.527  54.488 -48.581  1.00  0.00    -0.365 N 
HETATM   28  H   UNL     1     -39.587  54.112 -48.601  1.00  0.00     0.159 HD
HETATM   29  H   UNL     1     -40.839  55.097 -47.842  1.00  0.00     0.159 HD
HETATM   30  O   UNL     1     -42.532  54.593 -49.619  1.00  0.00    -0.266 OA
ENDBRANCH   8  26
TORSDOF 6
ENDMDL
MODEL 9
REMARK VINA RESULT:      -7.4     15.852     18.372
REMARK  6 active torsions:
REMARK  status: ('A' for Active; 'I' for Inactive)
REMARK    1  A    between atoms: C_2  and  C_3 
REMARK    2  A    between atoms: C_3  and  C_4 
REMARK    3  A    between atoms: C_7  and  C_8 
REMARK    4  A    between atoms: C_8  and  C_9 
REMARK       I    between atoms: C_9  and  N_10 
REMARK    5  A    between atoms: N_10  and  C_11 
REMARK    6  A    between atoms: C_18  and  C_19 
REMARK       I    between atoms: C_19  and  N_20 
ROOT
HETATM    1  C   UNL     1     -34.461  40.178 -56.549  1.00  0.00     0.035 A 
HETATM    2  C   UNL     1     -35.173  39.690 -57.653  1.00  0.00     0.046 A 
HETATM    3  C   UNL     1     -36.034  40.552 -58.367  1.00  0.00     0.030 A 
HETATM    4  C   UNL     1     -36.155  41.872 -57.952  1.00  0.00     0.063 A 
HETATM    5  N   UNL     1     -37.041  42.445 -58.821  1.00  0.00    -0.277 N 
HETATM    6  H   UNL     1     -37.367  43.405 -58.820  1.00  0.00     0.189 HD
HETATM    7  N   UNL     1     -37.509  41.617 -59.768  1.00  0.00    -0.168 NA
HETATM    8  C   UNL     1     -36.895  40.441 -59.502  1.00  0.00     0.156 A 
HETATM    9  C   UNL     1     -35.462  42.394 -56.859  1.00  0.00     0.034 A 
HETATM   10  C   UNL     1     -34.612  41.519 -56.169  1.00  0.00     0.032 A 
ENDROOT
BRANCH   1  11
HETATM   11  N   UNL     1     -33.565  39.398 -55.785  1.00  0.00    -0.327 N 
HETATM   12  C   UNL     1     -32.186  39.512 -55.725  1.00  0.00     0.226 C 
HETATM   13  O   UNL     1     -31.489  40.287 -56.371  1.00  0.00    -0.273 OA
HETATM   14  H   UNL     1     -33.972  38.634 -55.258  1.00  0.00     0.169 HD
BRANCH  12  15
HETATM   15  C   UNL     1     -31.556  38.577 -54.704  1.00  0.00     0.141 C 
BRANCH  15  16
HETATM   16  C   UNL     1     -31.822  38.935 -53.260  1.00  0.00    -0.049 A 
HETATM   17  C   UNL     1     -31.918  37.949 -52.270  1.00  0.00     0.008 A 
HETATM   18  C   UNL     1     -32.106  38.301 -50.931  1.00  0.00     0.007 A 
HETATM   19  C   UNL     1     -32.176  39.646 -50.548  1.00  0.00    -0.058 A 
HETATM   20  C   UNL     1     -32.073  40.632 -51.536  1.00  0.00     0.007 A 
HETATM   21  C   UNL     1     -31.893  40.282 -52.877  1.00  0.00     0.008 A 
BRANCH  19  22
HETATM   22  C   UNL     1     -32.347  40.027 -49.097  1.00  0.00     0.042 C 
BRANCH  22  23
HETATM   23  C   UNL     1     -31.728  39.065 -48.059  1.00  0.00    -0.019 C 
HETATM   24  C   UNL     1     -32.779  38.251 -47.302  1.00  0.00     0.010 C 
HETATM   25  C   UNL     1     -30.790  39.768 -47.079  1.00  0.00     0.010 C 
ENDBRANCH  22  23
ENDBRANCH  19  22
ENDBRANCH  15  16
ENDBRANCH  12  15
ENDBRANCH   1  11
BRANCH   8  26
HETATM   26  C   UNL     1     -37.139  39.251 -60.330  1.00  0.00     0.270 C 
HETATM   27  N   UNL     1     -37.149  39.500 -61.676  1.00  0.00    -0.365 N 
HETATM   28  H   UNL     1     -36.991  40.448 -61.995  1.00  0.00     0.159 HD
HETATM   29  H   UNL     1     -37.307  38.744 -62.321  1.00  0.00     0.159 HD
HETATM   30  O   UNL     1     -37.322  38.120 -59.894  1.00  0.00    -0.266 OA
ENDBRANCH   8  26
TORSDOF 6
ENDMDL
MODEL 10
REMARK VINA RESULT:      -7.3     15.893     19.254
REMARK  6 active torsions:
REMARK  status: ('A' for Active; 'I' for Inactive)
REMARK    1  A    between atoms: C_2  and  C_3 
REMARK    2  A    between atoms: C_3  and  C_4 
REMARK    3  A    between atoms: C_7  and  C_8 
REMARK    4  A    between atoms: C_8  and  C_9 
REMARK       I    between atoms: C_9  and  N_10 
REMARK    5  A    between atoms: N_10  and  C_11 
REMARK    6  A    between atoms: C_18  and  C_19 
REMARK       I    between atoms: C_19  and  N_20 
ROOT
HETATM    1  C   UNL     1     -35.741  40.690 -51.482  1.00  0.00     0.035 A 
HETATM    2  C   UNL     1     -34.470  40.551 -50.909  1.00  0.00     0.046 A 
HETATM    3  C   UNL     1     -34.281  39.658 -49.833  1.00  0.00     0.030 A 
HETATM    4  C   UNL     1     -35.371  38.935 -49.364  1.00  0.00     0.063 A 
HETATM    5  N   UNL     1     -34.886  38.172 -48.339  1.00  0.00    -0.277 N 
HETATM    6  H   UNL     1     -35.403  37.517 -47.762  1.00  0.00     0.189 HD
HETATM    7  N   UNL     1     -33.575  38.331 -48.097  1.00  0.00    -0.168 NA
HETATM    8  C   UNL     1     -33.185  39.247 -49.013  1.00  0.00     0.156 A 
HETATM    9  C   UNL     1     -36.651  39.046 -49.908  1.00  0.00     0.034 A 
HETATM   10  C   UNL     1     -36.811  39.937 -50.977  1.00  0.00     0.032 A 
ENDROOT
BRANCH   1  11
HETATM   11  N   UNL     1     -36.023  41.544 -52.571  1.00  0.00    -0.327 N 
HETATM   12  C   UNL     1     -35.509  41.474 -53.854  1.00  0.00     0.226 C 
HETATM   13  O   UNL     1     -34.669  40.678 -54.262  1.00  0.00    -0.273 OA
HETATM   14  H   UNL     1     -36.634  42.330 -52.379  1.00  0.00     0.169 HD
BRANCH  12  15
HETATM   15  C   UNL     1     -36.127  42.492 -54.800  1.00  0.00     0.141 C 
BRANCH  15  16
HETATM   16  C   UNL     1     -36.669  41.919 -56.089  1.00  0.00    -0.049 A 
HETATM   17  C   UNL     1     -36.099  42.242 -57.327  1.00  0.00     0.008 A 
HETATM   18  C   UNL     1     -36.575  41.657 -58.504  1.00  0.00     0.007 A 
HETATM   19  C   UNL     1     -37.614  40.719 -58.467  1.00  0.00    -0.058 A 
HETATM   20  C   UNL     1     -38.179  40.391 -57.229  1.00  0.00     0.007 A 
HETATM   21  C   UNL     1     -37.709  40.980 -56.052  1.00  0.00     0.008 A 
BRANCH  19  22
HETATM   22  C   UNL     1     -38.106  40.063 -59.734  1.00  0.00     0.042 C 
BRANCH  22  23
HETATM   23  C   UNL     1     -37.024  39.477 -60.667  1.00  0.00    -0.019 C 
HETATM   24  C   UNL     1     -37.593  38.962 -61.991  1.00  0.00     0.010 C 
HETATM   25  C   UNL     1     -36.178  38.396 -59.995  1.00  0.00     0.010 C 
ENDBRANCH  22  23
ENDBRANCH  19  22
ENDBRANCH  15  16
ENDBRANCH  12  15
ENDBRANCH   1  11
BRANCH   8  26
HETATM   26  C   UNL     1     -31.789  39.702 -49.088  1.00  0.00     0.270 C 
HETATM   27  N   UNL     1     -31.253  40.058 -47.880  1.00  0.00    -0.365 N 
HETATM   28  H   UNL     1     -31.831  39.984 -47.052  1.00  0.00     0.159 HD
HETATM   29  H   UNL     1     -30.300  40.381 -47.834  1.00  0.00     0.159 HD
HETATM   30  O   UNL     1     -31.129  39.771 -50.118  1.00  0.00    -0.266 OA
ENDBRANCH   8  26
TORSDOF 6
ENDMDL
