MODEL 1
REMARK VINA RESULT:      -8.5      0.000      0.000
REMARK  3 active torsions:
REMARK  status: ('A' for Active; 'I' for Inactive)
REMARK    1  A    between atoms: N_4  and  C_5 
REMARK    2  A    between atoms: C_15  and  C_16 
REMARK       I    between atoms: C_16  and  N_17 
REMARK    3  A    between atoms: N_17  and  C_18 
ROOT
HETATM    1  C   UNL     1     -42.048  59.851 -55.237  1.00  0.00     0.073 C 
HETATM    2  C   UNL     1     -42.454  59.709 -53.817  1.00  0.00     0.069 A 
HETATM    3  N   UNL     1     -42.639  60.792 -53.051  1.00  0.00    -0.170 NA
HETATM    4  N   UNL     1     -43.045  60.317 -51.834  1.00  0.00    -0.216 N 
HETATM    5  C   UNL     1     -42.970  58.932 -51.817  1.00  0.00     0.145 A 
HETATM    6  C   UNL     1     -42.640  58.521 -53.087  1.00  0.00     0.087 A 
HETATM    7  N   UNL     1     -43.110  58.063 -50.786  1.00  0.00    -0.349 N 
HETATM    8  C   UNL     1     -42.896  56.717 -51.033  1.00  0.00     0.111 A 
HETATM    9  C   UNL     1     -42.610  56.188 -52.244  1.00  0.00     0.098 A 
HETATM   10  C   UNL     1     -42.492  57.119 -53.419  1.00  0.00     0.205 A 
HETATM   11  O   UNL     1     -42.270  56.713 -54.557  1.00  0.00    -0.286 OA
HETATM   12  H   UNL     1     -43.107  58.347 -49.807  1.00  0.00     0.167 HD
ENDROOT
BRANCH   9  13
HETATM   13  C   UNL     1     -42.391  54.709 -52.335  1.00  0.00     0.261 C 
HETATM   14  N   UNL     1     -41.176  54.340 -52.871  1.00  0.00    -0.323 N 
HETATM   15  H   UNL     1     -40.563  55.095 -53.183  1.00  0.00     0.169 HD
HETATM   16  O   UNL     1     -43.266  53.939 -51.948  1.00  0.00    -0.267 OA
BRANCH  14  17
HETATM   17  C   UNL     1     -40.659  53.039 -53.035  1.00  0.00     0.035 A 
HETATM   18  C   UNL     1     -40.732  52.310 -54.226  1.00  0.00     0.032 A 
HETATM   19  C   UNL     1     -40.208  51.015 -54.296  1.00  0.00     0.044 A 
HETATM   20  C   UNL     1     -39.606  50.454 -53.178  1.00  0.00     0.116 A 
HETATM   21  F   UNL     1     -39.105  49.213 -53.247  1.00  0.00    -0.206 F 
HETATM   22  C   UNL     1     -39.520  51.161 -51.987  1.00  0.00     0.044 A 
HETATM   23  C   UNL     1     -40.049  52.452 -51.915  1.00  0.00     0.032 A 
ENDBRANCH  14  17
ENDBRANCH   9  13
BRANCH   4  24
HETATM   24  C   UNL     1     -43.472  61.223 -50.823  1.00  0.00     0.060 A 
HETATM   25  C   UNL     1     -44.496  60.898 -49.923  1.00  0.00     0.031 A 
HETATM   26  C   UNL     1     -44.884  61.815 -48.942  1.00  0.00     0.002 A 
HETATM   27  C   UNL     1     -44.263  63.059 -48.857  1.00  0.00     0.000 A 
HETATM   28  C   UNL     1     -43.261  63.400 -49.762  1.00  0.00     0.002 A 
HETATM   29  C   UNL     1     -42.872  62.491 -50.748  1.00  0.00     0.031 A 
ENDBRANCH   4  24
TORSDOF 3
ENDMDL
MODEL 2
REMARK VINA RESULT:      -8.5      5.602      9.102
REMARK  3 active torsions:
REMARK  status: ('A' for Active; 'I' for Inactive)
REMARK    1  A    between atoms: N_4  and  C_5 
REMARK    2  A    between atoms: C_15  and  C_16 
REMARK       I    between atoms: C_16  and  N_17 
REMARK    3  A    between atoms: N_17  and  C_18 
ROOT
HETATM    1  C   UNL     1     -41.439  59.017 -53.611  1.00  0.00     0.073 C 
HETATM    2  C   UNL     1     -41.499  57.623 -54.115  1.00  0.00     0.069 A 
HETATM    3  N   UNL     1     -40.824  56.646 -53.494  1.00  0.00    -0.170 NA
HETATM    4  N   UNL     1     -41.129  55.499 -54.176  1.00  0.00    -0.216 N 
HETATM    5  C   UNL     1     -41.879  55.802 -55.302  1.00  0.00     0.145 A 
HETATM    6  C   UNL     1     -42.167  57.146 -55.257  1.00  0.00     0.087 A 
HETATM    7  N   UNL     1     -42.253  55.014 -56.340  1.00  0.00    -0.349 N 
HETATM    8  C   UNL     1     -42.936  55.601 -57.392  1.00  0.00     0.111 A 
HETATM    9  C   UNL     1     -43.314  56.898 -57.443  1.00  0.00     0.098 A 
HETATM   10  C   UNL     1     -42.954  57.792 -56.287  1.00  0.00     0.205 A 
HETATM   11  O   UNL     1     -43.292  58.972 -56.242  1.00  0.00    -0.286 OA
HETATM   12  H   UNL     1     -41.851  54.094 -56.521  1.00  0.00     0.167 HD
ENDROOT
BRANCH   9  13
HETATM   13  C   UNL     1     -44.034  57.377 -58.666  1.00  0.00     0.261 C 
HETATM   14  N   UNL     1     -45.358  57.001 -58.738  1.00  0.00    -0.323 N 
HETATM   15  H   UNL     1     -45.710  56.412 -57.981  1.00  0.00     0.169 HD
HETATM   16  O   UNL     1     -43.433  58.045 -59.503  1.00  0.00    -0.267 OA
BRANCH  14  17
HETATM   17  C   UNL     1     -46.303  57.338 -59.727  1.00  0.00     0.035 A 
HETATM   18  C   UNL     1     -46.787  58.632 -59.942  1.00  0.00     0.032 A 
HETATM   19  C   UNL     1     -47.740  58.875 -60.936  1.00  0.00     0.044 A 
HETATM   20  C   UNL     1     -48.203  57.826 -61.719  1.00  0.00     0.116 A 
HETATM   21  F   UNL     1     -49.116  58.062 -62.670  1.00  0.00    -0.206 F 
HETATM   22  C   UNL     1     -47.733  56.534 -61.525  1.00  0.00     0.044 A 
HETATM   23  C   UNL     1     -46.787  56.290 -60.527  1.00  0.00     0.032 A 
ENDBRANCH  14  17
ENDBRANCH   9  13
BRANCH   4  24
HETATM   24  C   UNL     1     -40.687  54.239 -53.682  1.00  0.00     0.060 A 
HETATM   25  C   UNL     1     -40.292  53.206 -54.541  1.00  0.00     0.031 A 
HETATM   26  C   UNL     1     -39.861  51.984 -54.017  1.00  0.00     0.002 A 
HETATM   27  C   UNL     1     -39.830  51.782 -52.639  1.00  0.00     0.000 A 
HETATM   28  C   UNL     1     -40.244  52.795 -51.777  1.00  0.00     0.002 A 
HETATM   29  C   UNL     1     -40.680  54.016 -52.295  1.00  0.00     0.031 A 
ENDBRANCH   4  24
TORSDOF 3
ENDMDL
MODEL 3
REMARK VINA RESULT:      -8.4      4.808      8.949
REMARK  3 active torsions:
REMARK  status: ('A' for Active; 'I' for Inactive)
REMARK    1  A    between atoms: N_4  and  C_5 
REMARK    2  A    between atoms: C_15  and  C_16 
REMARK       I    between atoms: C_16  and  N_17 
REMARK    3  A    between atoms: N_17  and  C_18 
ROOT
HETATM    1  C   UNL     1     -41.342  56.470 -50.762  1.00  0.00     0.073 C 
HETATM    2  C   UNL     1     -41.196  55.397 -51.776  1.00  0.00     0.069 A 
HETATM    3  N   UNL     1     -40.593  54.243 -51.462  1.00  0.00    -0.170 NA
HETATM    4  N   UNL     1     -40.668  53.471 -52.590  1.00  0.00    -0.216 N 
HETATM    5  C   UNL     1     -41.192  54.213 -53.638  1.00  0.00     0.145 A 
HETATM    6  C   UNL     1     -41.580  55.430 -53.129  1.00  0.00     0.087 A 
HETATM    7  N   UNL     1     -41.287  53.914 -54.957  1.00  0.00    -0.349 N 
HETATM    8  C   UNL     1     -41.781  54.885 -55.812  1.00  0.00     0.111 A 
HETATM    9  C   UNL     1     -42.234  56.099 -55.427  1.00  0.00     0.098 A 
HETATM   10  C   UNL     1     -42.184  56.447 -53.964  1.00  0.00     0.205 A 
HETATM   11  O   UNL     1     -42.609  57.515 -53.530  1.00  0.00    -0.286 OA
HETATM   12  H   UNL     1     -40.791  53.138 -55.395  1.00  0.00     0.167 HD
ENDROOT
BRANCH   9  13
HETATM   13  C   UNL     1     -42.721  57.040 -56.485  1.00  0.00     0.261 C 
HETATM   14  N   UNL     1     -41.734  57.543 -57.306  1.00  0.00    -0.323 N 
HETATM   15  H   UNL     1     -40.775  57.259 -57.098  1.00  0.00     0.169 HD
HETATM   16  O   UNL     1     -43.918  57.304 -56.560  1.00  0.00    -0.267 OA
BRANCH  14  17
HETATM   17  C   UNL     1     -41.881  58.400 -58.415  1.00  0.00     0.035 A 
HETATM   18  C   UNL     1     -42.047  57.957 -59.731  1.00  0.00     0.032 A 
HETATM   19  C   UNL     1     -42.169  58.878 -60.777  1.00  0.00     0.044 A 
HETATM   20  C   UNL     1     -42.130  60.239 -60.505  1.00  0.00     0.116 A 
HETATM   21  F   UNL     1     -42.246  61.119 -61.509  1.00  0.00    -0.206 F 
HETATM   22  C   UNL     1     -41.970  60.700 -59.205  1.00  0.00     0.044 A 
HETATM   23  C   UNL     1     -41.842  59.780 -58.162  1.00  0.00     0.032 A 
ENDBRANCH  14  17
ENDBRANCH   9  13
BRANCH   4  24
HETATM   24  C   UNL     1     -40.245  52.112 -52.552  1.00  0.00     0.060 A 
HETATM   25  C   UNL     1     -39.880  51.485 -51.354  1.00  0.00     0.031 A 
HETATM   26  C   UNL     1     -39.473  50.148 -51.357  1.00  0.00     0.002 A 
HETATM   27  C   UNL     1     -39.419  49.433 -52.552  1.00  0.00     0.000 A 
HETATM   28  C   UNL     1     -39.756  50.055 -53.751  1.00  0.00     0.002 A 
HETATM   29  C   UNL     1     -40.158  51.392 -53.755  1.00  0.00     0.031 A 
ENDBRANCH   4  24
TORSDOF 3
ENDMDL
MODEL 4
REMARK VINA RESULT:      -8.3      3.617      9.429
REMARK  3 active torsions:
REMARK  status: ('A' for Active; 'I' for Inactive)
REMARK    1  A    between atoms: N_4  and  C_5 
REMARK    2  A    between atoms: C_15  and  C_16 
REMARK       I    between atoms: C_16  and  N_17 
REMARK    3  A    between atoms: N_17  and  C_18 
ROOT
HETATM    1  C   UNL     1     -40.563  54.302 -48.333  1.00  0.00     0.073 C 
HETATM    2  C   UNL     1     -40.536  54.050 -49.795  1.00  0.00     0.069 A 
HETATM    3  N   UNL     1     -40.118  52.870 -50.273  1.00  0.00    -0.170 NA
HETATM    4  N   UNL     1     -40.262  52.954 -51.632  1.00  0.00    -0.216 N 
HETATM    5  C   UNL     1     -40.635  54.241 -51.991  1.00  0.00     0.145 A 
HETATM    6  C   UNL     1     -40.861  54.944 -50.831  1.00  0.00     0.087 A 
HETATM    7  N   UNL     1     -40.725  54.813 -53.217  1.00  0.00    -0.349 N 
HETATM    8  C   UNL     1     -41.042  56.159 -53.286  1.00  0.00     0.111 A 
HETATM    9  C   UNL     1     -41.328  56.944 -52.222  1.00  0.00     0.098 A 
HETATM   10  C   UNL     1     -41.282  56.329 -50.850  1.00  0.00     0.205 A 
HETATM   11  O   UNL     1     -41.564  56.965 -49.838  1.00  0.00    -0.286 OA
HETATM   12  H   UNL     1     -40.330  54.399 -54.061  1.00  0.00     0.167 HD
ENDROOT
BRANCH   9  13
HETATM   13  C   UNL     1     -41.635  58.388 -52.472  1.00  0.00     0.261 C 
HETATM   14  N   UNL     1     -42.600  58.922 -51.644  1.00  0.00    -0.323 N 
HETATM   15  H   UNL     1     -43.033  58.286 -50.972  1.00  0.00     0.169 HD
HETATM   16  O   UNL     1     -41.042  58.991 -53.362  1.00  0.00    -0.267 OA
BRANCH  14  17
HETATM   17  C   UNL     1     -43.064  60.252 -51.598  1.00  0.00     0.035 A 
HETATM   18  C   UNL     1     -43.972  60.799 -52.509  1.00  0.00     0.032 A 
HETATM   19  C   UNL     1     -44.365  62.137 -52.399  1.00  0.00     0.044 A 
HETATM   20  C   UNL     1     -43.855  62.923 -51.375  1.00  0.00     0.116 A 
HETATM   21  F   UNL     1     -44.233  64.205 -51.272  1.00  0.00    -0.206 F 
HETATM   22  C   UNL     1     -42.955  62.399 -50.458  1.00  0.00     0.044 A 
HETATM   23  C   UNL     1     -42.557  61.065 -50.572  1.00  0.00     0.032 A 
ENDBRANCH  14  17
ENDBRANCH   9  13
BRANCH   4  24
HETATM   24  C   UNL     1     -40.042  51.804 -52.442  1.00  0.00     0.060 A 
HETATM   25  C   UNL     1     -40.233  51.831 -53.830  1.00  0.00     0.031 A 
HETATM   26  C   UNL     1     -40.004  50.682 -54.591  1.00  0.00     0.002 A 
HETATM   27  C   UNL     1     -39.593  49.501 -53.976  1.00  0.00     0.000 A 
HETATM   28  C   UNL     1     -39.424  49.458 -52.594  1.00  0.00     0.002 A 
HETATM   29  C   UNL     1     -39.657  50.601 -51.827  1.00  0.00     0.031 A 
ENDBRANCH   4  24
TORSDOF 3
ENDMDL
MODEL 5
REMARK VINA RESULT:      -8.2      3.808      8.977
REMARK  3 active torsions:
REMARK  status: ('A' for Active; 'I' for Inactive)
REMARK    1  A    between atoms: N_4  and  C_5 
REMARK    2  A    between atoms: C_15  and  C_16 
REMARK       I    between atoms: C_16  and  N_17 
REMARK    3  A    between atoms: N_17  and  C_18 
ROOT
HETATM    1  C   UNL     1     -42.254  57.100 -56.164  1.00  0.00     0.073 C 
HETATM    2  C   UNL     1     -42.150  56.272 -54.937  1.00  0.00     0.069 A 
HETATM    3  N   UNL     1     -41.547  55.076 -54.973  1.00  0.00    -0.170 NA
HETATM    4  N   UNL     1     -41.582  54.609 -53.687  1.00  0.00    -0.216 N 
HETATM    5  C   UNL     1     -42.336  55.461 -52.893  1.00  0.00     0.145 A 
HETATM    6  C   UNL     1     -42.668  56.553 -53.660  1.00  0.00     0.087 A 
HETATM    7  N   UNL     1     -42.772  55.307 -51.619  1.00  0.00    -0.349 N 
HETATM    8  C   UNL     1     -43.594  56.289 -51.088  1.00  0.00     0.111 A 
HETATM    9  C   UNL     1     -43.954  57.426 -51.726  1.00  0.00     0.098 A 
HETATM   10  C   UNL     1     -43.450  57.648 -53.126  1.00  0.00     0.205 A 
HETATM   11  O   UNL     1     -43.703  58.671 -53.757  1.00  0.00    -0.286 OA
HETATM   12  H   UNL     1     -42.754  54.418 -51.121  1.00  0.00     0.167 HD
ENDROOT
BRANCH   9  13
HETATM   13  C   UNL     1     -44.865  58.377 -51.013  1.00  0.00     0.261 C 
HETATM   14  N   UNL     1     -44.327  59.626 -50.785  1.00  0.00    -0.323 N 
HETATM   15  H   UNL     1     -43.363  59.774 -51.089  1.00  0.00     0.169 HD
HETATM   16  O   UNL     1     -45.988  58.009 -50.681  1.00  0.00    -0.267 OA
BRANCH  14  17
HETATM   17  C   UNL     1     -44.950  60.743 -50.193  1.00  0.00     0.035 A 
HETATM   18  C   UNL     1     -46.048  61.413 -50.741  1.00  0.00     0.032 A 
HETATM   19  C   UNL     1     -46.593  62.525 -50.093  1.00  0.00     0.044 A 
HETATM   20  C   UNL     1     -46.044  62.964 -48.896  1.00  0.00     0.116 A 
HETATM   21  F   UNL     1     -46.568  64.031 -48.278  1.00  0.00    -0.206 F 
HETATM   22  C   UNL     1     -44.955  62.312 -48.333  1.00  0.00     0.044 A 
HETATM   23  C   UNL     1     -44.407  61.205 -48.983  1.00  0.00     0.032 A 
ENDBRANCH  14  17
ENDBRANCH   9  13
BRANCH   4  24
HETATM   24  C   UNL     1     -40.889  53.413 -53.346  1.00  0.00     0.060 A 
HETATM   25  C   UNL     1     -40.342  53.213 -52.072  1.00  0.00     0.031 A 
HETATM   26  C   UNL     1     -39.672  52.023 -51.775  1.00  0.00     0.002 A 
HETATM   27  C   UNL     1     -39.535  51.032 -52.745  1.00  0.00     0.000 A 
HETATM   28  C   UNL     1     -40.054  51.232 -54.022  1.00  0.00     0.002 A 
HETATM   29  C   UNL     1     -40.721  52.421 -54.326  1.00  0.00     0.031 A 
ENDBRANCH   4  24
TORSDOF 3
ENDMDL
MODEL 6
REMARK VINA RESULT:      -8.2      2.929      5.492
REMARK  3 active torsions:
REMARK  status: ('A' for Active; 'I' for Inactive)
REMARK    1  A    between atoms: N_4  and  C_5 
REMARK    2  A    between atoms: C_15  and  C_16 
REMARK       I    between atoms: C_16  and  N_17 
REMARK    3  A    between atoms: N_17  and  C_18 
ROOT
HETATM    1  C   UNL     1     -42.089  60.211 -53.513  1.00  0.00     0.073 C 
HETATM    2  C   UNL     1     -42.174  59.454 -54.787  1.00  0.00     0.069 A 
HETATM    3  N   UNL     1     -42.455  60.086 -55.935  1.00  0.00    -0.170 NA
HETATM    4  N   UNL     1     -42.411  59.121 -56.904  1.00  0.00    -0.216 N 
HETATM    5  C   UNL     1     -42.243  57.872 -56.324  1.00  0.00     0.145 A 
HETATM    6  C   UNL     1     -42.043  58.067 -54.977  1.00  0.00     0.087 A 
HETATM    7  N   UNL     1     -42.312  56.636 -56.877  1.00  0.00    -0.349 N 
HETATM    8  C   UNL     1     -42.189  55.540 -56.040  1.00  0.00     0.111 A 
HETATM    9  C   UNL     1     -41.946  55.602 -54.711  1.00  0.00     0.098 A 
HETATM   10  C   UNL     1     -41.819  56.959 -54.073  1.00  0.00     0.205 A 
HETATM   11  O   UNL     1     -41.564  57.099 -52.879  1.00  0.00    -0.286 OA
HETATM   12  H   UNL     1     -42.699  56.455 -57.803  1.00  0.00     0.167 HD
ENDROOT
BRANCH   9  13
HETATM   13  C   UNL     1     -41.858  54.317 -53.948  1.00  0.00     0.261 C 
HETATM   14  N   UNL     1     -40.734  53.564 -54.217  1.00  0.00    -0.323 N 
HETATM   15  H   UNL     1     -40.094  53.931 -54.924  1.00  0.00     0.169 HD
HETATM   16  O   UNL     1     -42.751  54.013 -53.162  1.00  0.00    -0.267 OA
BRANCH  14  17
HETATM   17  C   UNL     1     -40.343  52.346 -53.625  1.00  0.00     0.035 A 
HETATM   18  C   UNL     1     -39.913  52.220 -52.301  1.00  0.00     0.032 A 
HETATM   19  C   UNL     1     -39.526  50.973 -51.799  1.00  0.00     0.044 A 
HETATM   20  C   UNL     1     -39.575  49.854 -52.620  1.00  0.00     0.116 A 
HETATM   21  F   UNL     1     -39.203  48.661 -52.137  1.00  0.00    -0.206 F 
HETATM   22  C   UNL     1     -40.002  49.957 -53.937  1.00  0.00     0.044 A 
HETATM   23  C   UNL     1     -40.382  51.204 -54.440  1.00  0.00     0.032 A 
ENDBRANCH  14  17
ENDBRANCH   9  13
BRANCH   4  24
HETATM   24  C   UNL     1     -42.522  59.485 -58.276  1.00  0.00     0.060 A 
HETATM   25  C   UNL     1     -43.475  58.902 -59.121  1.00  0.00     0.031 A 
HETATM   26  C   UNL     1     -43.554  59.288 -60.462  1.00  0.00     0.002 A 
HETATM   27  C   UNL     1     -42.681  60.249 -60.969  1.00  0.00     0.000 A 
HETATM   28  C   UNL     1     -41.715  60.817 -60.142  1.00  0.00     0.002 A 
HETATM   29  C   UNL     1     -41.627  60.431 -58.803  1.00  0.00     0.031 A 
ENDBRANCH   4  24
TORSDOF 3
ENDMDL
MODEL 7
REMARK VINA RESULT:      -8.1      4.857      9.025
REMARK  3 active torsions:
REMARK  status: ('A' for Active; 'I' for Inactive)
REMARK    1  A    between atoms: N_4  and  C_5 
REMARK    2  A    between atoms: C_15  and  C_16 
REMARK       I    between atoms: C_16  and  N_17 
REMARK    3  A    between atoms: N_17  and  C_18 
ROOT
HETATM    1  C   UNL     1     -41.326  56.492 -50.754  1.00  0.00     0.073 C 
HETATM    2  C   UNL     1     -41.218  55.455 -51.810  1.00  0.00     0.069 A 
HETATM    3  N   UNL     1     -40.605  54.290 -51.558  1.00  0.00    -0.170 NA
HETATM    4  N   UNL     1     -40.721  53.558 -52.709  1.00  0.00    -0.216 N 
HETATM    5  C   UNL     1     -41.282  54.336 -53.711  1.00  0.00     0.145 A 
HETATM    6  C   UNL     1     -41.650  55.534 -53.146  1.00  0.00     0.087 A 
HETATM    7  N   UNL     1     -41.426  54.082 -55.035  1.00  0.00    -0.349 N 
HETATM    8  C   UNL     1     -41.950  55.082 -55.837  1.00  0.00     0.111 A 
HETATM    9  C   UNL     1     -42.387  56.283 -55.394  1.00  0.00     0.098 A 
HETATM   10  C   UNL     1     -42.284  56.579 -53.922  1.00  0.00     0.205 A 
HETATM   11  O   UNL     1     -42.691  57.631 -53.437  1.00  0.00    -0.286 OA
HETATM   12  H   UNL     1     -40.946  53.323 -55.517  1.00  0.00     0.167 HD
ENDROOT
BRANCH   9  13
HETATM   13  C   UNL     1     -42.911  57.260 -56.400  1.00  0.00     0.261 C 
HETATM   14  N   UNL     1     -43.985  56.806 -57.137  1.00  0.00    -0.323 N 
HETATM   15  H   UNL     1     -44.296  55.850 -56.954  1.00  0.00     0.169 HD
HETATM   16  O   UNL     1     -42.379  58.361 -56.514  1.00  0.00    -0.267 OA
BRANCH  14  17
HETATM   17  C   UNL     1     -44.725  57.504 -58.112  1.00  0.00     0.035 A 
HETATM   18  C   UNL     1     -44.296  57.707 -59.427  1.00  0.00     0.032 A 
HETATM   19  C   UNL     1     -45.087  58.428 -60.326  1.00  0.00     0.044 A 
HETATM   20  C   UNL     1     -46.309  58.940 -59.911  1.00  0.00     0.116 A 
HETATM   21  F   UNL     1     -47.066  59.631 -60.775  1.00  0.00    -0.206 F 
HETATM   22  C   UNL     1     -46.756  58.748 -58.611  1.00  0.00     0.044 A 
HETATM   23  C   UNL     1     -45.963  58.033 -57.712  1.00  0.00     0.032 A 
ENDBRANCH  14  17
ENDBRANCH   9  13
BRANCH   4  24
HETATM   24  C   UNL     1     -40.299  52.199 -52.733  1.00  0.00     0.060 A 
HETATM   25  C   UNL     1     -39.890  51.531 -51.571  1.00  0.00     0.031 A 
HETATM   26  C   UNL     1     -39.485  50.195 -51.636  1.00  0.00     0.002 A 
HETATM   27  C   UNL     1     -39.477  49.521 -52.855  1.00  0.00     0.000 A 
HETATM   28  C   UNL     1     -39.858  50.184 -54.019  1.00  0.00     0.002 A 
HETATM   29  C   UNL     1     -40.259  51.520 -53.962  1.00  0.00     0.031 A 
ENDBRANCH   4  24
TORSDOF 3
ENDMDL
MODEL 8
REMARK VINA RESULT:      -7.9      4.471      9.174
REMARK  3 active torsions:
REMARK  status: ('A' for Active; 'I' for Inactive)
REMARK    1  A    between atoms: N_4  and  C_5 
REMARK    2  A    between atoms: C_15  and  C_16 
REMARK       I    between atoms: C_16  and  N_17 
REMARK    3  A    between atoms: N_17  and  C_18 
ROOT
HETATM    1  C   UNL     1     -41.502  55.278 -49.161  1.00  0.00     0.073 C 
HETATM    2  C   UNL     1     -41.162  54.785 -50.518  1.00  0.00     0.069 A 
HETATM    3  N   UNL     1     -40.733  53.528 -50.696  1.00  0.00    -0.170 NA
HETATM    4  N   UNL     1     -40.557  53.389 -52.047  1.00  0.00    -0.216 N 
HETATM    5  C   UNL     1     -40.744  54.609 -52.678  1.00  0.00     0.145 A 
HETATM    6  C   UNL     1     -41.177  55.504 -51.727  1.00  0.00     0.087 A 
HETATM    7  N   UNL     1     -40.511  54.972 -53.963  1.00  0.00    -0.349 N 
HETATM    8  C   UNL     1     -40.706  56.298 -54.313  1.00  0.00     0.111 A 
HETATM    9  C   UNL     1     -41.169  57.258 -53.481  1.00  0.00     0.098 A 
HETATM   10  C   UNL     1     -41.481  56.880 -52.059  1.00  0.00     0.205 A 
HETATM   11  O   UNL     1     -41.939  57.686 -51.253  1.00  0.00    -0.286 OA
HETATM   12  H   UNL     1     -39.965  54.409 -54.616  1.00  0.00     0.167 HD
ENDROOT
BRANCH   9  13
HETATM   13  C   UNL     1     -41.306  58.650 -54.016  1.00  0.00     0.261 C 
HETATM   14  N   UNL     1     -42.156  58.770 -55.095  1.00  0.00    -0.323 N 
HETATM   15  H   UNL     1     -42.580  57.909 -55.443  1.00  0.00     0.169 HD
HETATM   16  O   UNL     1     -40.679  59.568 -53.493  1.00  0.00    -0.267 OA
BRANCH  14  17
HETATM   17  C   UNL     1     -42.531  59.945 -55.778  1.00  0.00     0.035 A 
HETATM   18  C   UNL     1     -41.909  60.408 -56.941  1.00  0.00     0.032 A 
HETATM   19  C   UNL     1     -42.333  61.595 -57.546  1.00  0.00     0.044 A 
HETATM   20  C   UNL     1     -43.382  62.315 -56.989  1.00  0.00     0.116 A 
HETATM   21  F   UNL     1     -43.787  63.453 -57.570  1.00  0.00    -0.206 F 
HETATM   22  C   UNL     1     -44.016  61.872 -55.837  1.00  0.00     0.044 A 
HETATM   23  C   UNL     1     -43.587  60.689 -55.230  1.00  0.00     0.032 A 
ENDBRANCH  14  17
ENDBRANCH   9  13
BRANCH   4  24
HETATM   24  C   UNL     1     -40.242  52.113 -52.595  1.00  0.00     0.060 A 
HETATM   25  C   UNL     1     -40.472  51.811 -53.943  1.00  0.00     0.031 A 
HETATM   26  C   UNL     1     -40.147  50.547 -54.444  1.00  0.00     0.002 A 
HETATM   27  C   UNL     1     -39.600  49.578 -53.605  1.00  0.00     0.000 A 
HETATM   28  C   UNL     1     -39.390  49.861 -52.258  1.00  0.00     0.002 A 
HETATM   29  C   UNL     1     -39.719  51.120 -51.750  1.00  0.00     0.031 A 
ENDBRANCH   4  24
TORSDOF 3
ENDMDL
MODEL 9
REMARK VINA RESULT:      -7.8      4.023      6.151
REMARK  3 active torsions:
REMARK  status: ('A' for Active; 'I' for Inactive)
REMARK    1  A    between atoms: N_4  and  C_5 
REMARK    2  A    between atoms: C_15  and  C_16 
REMARK       I    between atoms: C_16  and  N_17 
REMARK    3  A    between atoms: N_17  and  C_18 
ROOT
HETATM    1  C   UNL     1     -44.938  59.602 -54.030  1.00  0.00     0.073 C 
HETATM    2  C   UNL     1     -44.824  58.790 -55.267  1.00  0.00     0.069 A 
HETATM    3  N   UNL     1     -45.690  58.962 -56.275  1.00  0.00    -0.170 NA
HETATM    4  N   UNL     1     -45.280  58.105 -57.260  1.00  0.00    -0.216 N 
HETATM    5  C   UNL     1     -44.246  57.307 -56.795  1.00  0.00     0.145 A 
HETATM    6  C   UNL     1     -43.908  57.759 -55.541  1.00  0.00     0.087 A 
HETATM    7  N   UNL     1     -43.658  56.224 -57.361  1.00  0.00    -0.349 N 
HETATM    8  C   UNL     1     -42.692  55.551 -56.630  1.00  0.00     0.111 A 
HETATM    9  C   UNL     1     -42.244  55.923 -55.410  1.00  0.00     0.098 A 
HETATM   10  C   UNL     1     -42.844  57.147 -54.772  1.00  0.00     0.205 A 
HETATM   11  O   UNL     1     -42.466  57.569 -53.683  1.00  0.00    -0.286 OA
HETATM   12  H   UNL     1     -44.048  55.725 -58.159  1.00  0.00     0.167 HD
ENDROOT
BRANCH   9  13
HETATM   13  C   UNL     1     -41.204  55.072 -54.749  1.00  0.00     0.261 C 
HETATM   14  N   UNL     1     -41.707  54.074 -53.940  1.00  0.00    -0.323 N 
HETATM   15  H   UNL     1     -42.723  54.031 -53.841  1.00  0.00     0.169 HD
HETATM   16  O   UNL     1     -40.014  55.298 -54.950  1.00  0.00    -0.267 OA
BRANCH  14  17
HETATM   17  C   UNL     1     -40.991  53.087 -53.233  1.00  0.00     0.035 A 
HETATM   18  C   UNL     1     -40.727  53.141 -51.862  1.00  0.00     0.032 A 
HETATM   19  C   UNL     1     -39.992  52.125 -51.242  1.00  0.00     0.044 A 
HETATM   20  C   UNL     1     -39.528  51.054 -51.995  1.00  0.00     0.116 A 
HETATM   21  F   UNL     1     -38.824  50.082 -51.399  1.00  0.00    -0.206 F 
HETATM   22  C   UNL     1     -39.783  50.979 -53.357  1.00  0.00     0.044 A 
HETATM   23  C   UNL     1     -40.511  51.997 -53.976  1.00  0.00     0.032 A 
ENDBRANCH  14  17
ENDBRANCH   9  13
BRANCH   4  24
HETATM   24  C   UNL     1     -45.905  58.142 -58.539  1.00  0.00     0.060 A 
HETATM   25  C   UNL     1     -46.463  56.998 -59.123  1.00  0.00     0.031 A 
HETATM   26  C   UNL     1     -47.069  57.075 -60.379  1.00  0.00     0.002 A 
HETATM   27  C   UNL     1     -47.115  58.288 -61.064  1.00  0.00     0.000 A 
HETATM   28  C   UNL     1     -46.541  59.426 -60.503  1.00  0.00     0.002 A 
HETATM   29  C   UNL     1     -45.929  59.354 -59.250  1.00  0.00     0.031 A 
ENDBRANCH   4  24
TORSDOF 3
ENDMDL
MODEL 10
REMARK VINA RESULT:      -7.7      4.059      9.258
REMARK  3 active torsions:
REMARK  status: ('A' for Active; 'I' for Inactive)
REMARK    1  A    between atoms: N_4  and  C_5 
REMARK    2  A    between atoms: C_15  and  C_16 
REMARK       I    between atoms: C_16  and  N_17 
REMARK    3  A    between atoms: N_17  and  C_18 
ROOT
HETATM    1  C   UNL     1     -40.895  55.600 -49.474  1.00  0.00     0.073 C 
HETATM    2  C   UNL     1     -41.117  54.843 -50.731  1.00  0.00     0.069 A 
HETATM    3  N   UNL     1     -40.368  53.770 -51.019  1.00  0.00    -0.170 NA
HETATM    4  N   UNL     1     -40.857  53.290 -52.204  1.00  0.00    -0.216 N 
HETATM    5  C   UNL     1     -41.813  54.158 -52.710  1.00  0.00     0.145 A 
HETATM    6  C   UNL     1     -42.029  55.131 -51.763  1.00  0.00     0.087 A 
HETATM    7  N   UNL     1     -42.428  54.171 -53.918  1.00  0.00    -0.349 N 
HETATM    8  C   UNL     1     -43.291  55.217 -54.199  1.00  0.00     0.111 A 
HETATM    9  C   UNL     1     -43.617  56.206 -53.336  1.00  0.00     0.098 A 
HETATM   10  C   UNL     1     -42.986  56.197 -51.970  1.00  0.00     0.205 A 
HETATM   11  O   UNL     1     -43.258  57.040 -51.118  1.00  0.00    -0.286 OA
HETATM   12  H   UNL     1     -42.112  53.621 -54.716  1.00  0.00     0.167 HD
ENDROOT
BRANCH   9  13
HETATM   13  C   UNL     1     -44.556  57.273 -53.807  1.00  0.00     0.261 C 
HETATM   14  N   UNL     1     -44.387  58.498 -53.197  1.00  0.00    -0.323 N 
HETATM   15  H   UNL     1     -43.672  58.555 -52.470  1.00  0.00     0.169 HD
HETATM   16  O   UNL     1     -45.391  57.012 -54.668  1.00  0.00    -0.267 OA
BRANCH  14  17
HETATM   17  C   UNL     1     -45.073  59.701 -53.460  1.00  0.00     0.035 A 
HETATM   18  C   UNL     1     -44.912  60.457 -54.625  1.00  0.00     0.032 A 
HETATM   19  C   UNL     1     -45.621  61.650 -54.798  1.00  0.00     0.044 A 
HETATM   20  C   UNL     1     -46.494  62.082 -53.808  1.00  0.00     0.116 A 
HETATM   21  F   UNL     1     -47.172  63.226 -53.976  1.00  0.00    -0.206 F 
HETATM   22  C   UNL     1     -46.671  61.345 -52.646  1.00  0.00     0.044 A 
HETATM   23  C   UNL     1     -45.958  60.157 -52.471  1.00  0.00     0.032 A 
ENDBRANCH  14  17
ENDBRANCH   9  13
BRANCH   4  24
HETATM   24  C   UNL     1     -40.374  52.056 -52.725  1.00  0.00     0.060 A 
HETATM   25  C   UNL     1     -40.395  51.773 -54.096  1.00  0.00     0.031 A 
HETATM   26  C   UNL     1     -39.909  50.551 -54.569  1.00  0.00     0.002 A 
HETATM   27  C   UNL     1     -39.409  49.602 -53.679  1.00  0.00     0.000 A 
HETATM   28  C   UNL     1     -39.406  49.864 -52.311  1.00  0.00     0.002 A 
HETATM   29  C   UNL     1     -39.895  51.082 -51.833  1.00  0.00     0.031 A 
ENDBRANCH   4  24
TORSDOF 3
ENDMDL
