MODEL 1
REMARK VINA RESULT:      -8.9      0.000      0.000
REMARK  3 active torsions:
REMARK  status: ('A' for Active; 'I' for Inactive)
REMARK    1  A    between atoms: C_9  and  N_10 
REMARK       I    between atoms: N_10  and  C_11 
REMARK    2  A    between atoms: C_11  and  C_12 
REMARK    3  A    between atoms: N_14  and  C_15 
ROOT
HETATM    1  N   UNL     1     -41.939  55.939 -54.826  1.00  0.00    -0.322 N 
HETATM    2  C   UNL     1     -42.307  56.513 -53.625  1.00  0.00     0.276 C 
HETATM    3  O   UNL     1     -43.125  57.398 -53.427  1.00  0.00    -0.266 OA
HETATM    4  H   UNL     1     -41.224  55.218 -54.758  1.00  0.00     0.169 HD
ENDROOT
BRANCH   2   5
HETATM    5  C   UNL     1     -41.609  55.875 -52.427  1.00  0.00     0.145 A 
HETATM    6  N   UNL     1     -41.294  54.620 -52.499  1.00  0.00    -0.159 NA
HETATM    7  N   UNL     1     -40.678  54.040 -51.390  1.00  0.00    -0.197 N 
HETATM    8  C   UNL     1     -40.435  54.751 -50.202  1.00  0.00     0.268 A 
HETATM    9  O   UNL     1     -39.919  54.340 -49.166  1.00  0.00    -0.266 OA
HETATM   10  C   UNL     1     -40.832  56.180 -50.206  1.00  0.00     0.079 A 
HETATM   11  C   UNL     1     -41.388  56.751 -51.271  1.00  0.00     0.044 A 
BRANCH   7  12
HETATM   12  C   UNL     1     -40.306  52.660 -51.589  1.00  0.00     0.062 A 
HETATM   13  C   UNL     1     -40.232  51.730 -50.538  1.00  0.00     0.035 A 
HETATM   14  C   UNL     1     -39.848  50.400 -50.763  1.00  0.00     0.044 A 
HETATM   15  C   UNL     1     -39.530  49.984 -52.045  1.00  0.00     0.116 A 
HETATM   16  F   UNL     1     -39.157  48.715 -52.257  1.00  0.00    -0.206 F 
HETATM   17  C   UNL     1     -39.594  50.869 -53.109  1.00  0.00     0.044 A 
HETATM   18  C   UNL     1     -39.983  52.194 -52.882  1.00  0.00     0.035 A 
ENDBRANCH   7  12
ENDBRANCH   2   5
BRANCH   1  19
HETATM   19  C   UNL     1     -42.455  56.236 -56.102  1.00  0.00     0.035 A 
HETATM   20  C   UNL     1     -42.967  55.264 -56.967  1.00  0.00     0.039 A 
HETATM   21  C   UNL     1     -43.437  55.654 -58.213  1.00  0.00    -0.022 A 
HETATM   22  C   UNL     1     -44.054  54.801 -59.267  1.00  0.00     0.274 C 
HETATM   23  C   UNL     1     -43.409  56.991 -58.614  1.00  0.00    -0.025 A 
HETATM   24  N   UNL     1     -44.157  55.710 -60.485  1.00  0.00    -0.067 N 
HETATM   25  C   UNL     1     -45.365  55.485 -61.322  1.00  0.00     0.270 C 
HETATM   26  H   UNL     1     -43.323  55.513 -61.052  1.00  0.00     0.280 HD
HETATM   27  C   UNL     1     -43.993  57.139 -59.978  1.00  0.00     0.273 C 
HETATM   28  C   UNL     1     -42.916  57.970 -57.769  1.00  0.00     0.012 A 
HETATM   29  C   UNL     1     -42.441  57.584 -56.509  1.00  0.00     0.030 A 
ENDBRANCH   1  19
TORSDOF 3
ENDMDL
MODEL 2
REMARK VINA RESULT:      -8.7      1.195      1.893
REMARK  3 active torsions:
REMARK  status: ('A' for Active; 'I' for Inactive)
REMARK    1  A    between atoms: C_9  and  N_10 
REMARK       I    between atoms: N_10  and  C_11 
REMARK    2  A    between atoms: C_11  and  C_12 
REMARK    3  A    between atoms: N_14  and  C_15 
ROOT
HETATM    1  N   UNL     1     -41.986  56.340 -55.227  1.00  0.00    -0.322 N 
HETATM    2  C   UNL     1     -42.363  56.859 -54.005  1.00  0.00     0.276 C 
HETATM    3  O   UNL     1     -43.160  57.757 -53.775  1.00  0.00    -0.266 OA
HETATM    4  H   UNL     1     -41.293  55.595 -55.184  1.00  0.00     0.169 HD
ENDROOT
BRANCH   2   5
HETATM    5  C   UNL     1     -41.709  56.138 -52.830  1.00  0.00     0.145 A 
HETATM    6  N   UNL     1     -41.364  54.899 -52.987  1.00  0.00    -0.159 NA
HETATM    7  N   UNL     1     -40.789  54.241 -51.900  1.00  0.00    -0.197 N 
HETATM    8  C   UNL     1     -40.620  54.855 -50.647  1.00  0.00     0.268 A 
HETATM    9  O   UNL     1     -40.145  54.370 -49.624  1.00  0.00    -0.266 OA
HETATM   10  C   UNL     1     -41.048  56.272 -50.555  1.00  0.00     0.079 A 
HETATM   11  C   UNL     1     -41.565  56.919 -51.596  1.00  0.00     0.044 A 
BRANCH   7  12
HETATM   12  C   UNL     1     -40.377  52.889 -52.192  1.00  0.00     0.062 A 
HETATM   13  C   UNL     1     -39.958  51.986 -51.200  1.00  0.00     0.035 A 
HETATM   14  C   UNL     1     -39.545  50.686 -51.519  1.00  0.00     0.044 A 
HETATM   15  C   UNL     1     -39.543  50.270 -52.841  1.00  0.00     0.116 A 
HETATM   16  F   UNL     1     -39.142  49.030 -53.146  1.00  0.00    -0.206 F 
HETATM   17  C   UNL     1     -39.952  51.128 -53.849  1.00  0.00     0.044 A 
HETATM   18  C   UNL     1     -40.368  52.424 -53.525  1.00  0.00     0.035 A 
ENDBRANCH   7  12
ENDBRANCH   2   5
BRANCH   1  19
HETATM   19  C   UNL     1     -42.465  56.720 -56.495  1.00  0.00     0.035 A 
HETATM   20  C   UNL     1     -42.476  58.044 -56.946  1.00  0.00     0.039 A 
HETATM   21  C   UNL     1     -42.986  58.321 -58.206  1.00  0.00    -0.022 A 
HETATM   22  C   UNL     1     -43.058  59.640 -58.895  1.00  0.00     0.274 C 
HETATM   23  C   UNL     1     -43.485  57.307 -59.027  1.00  0.00    -0.025 A 
HETATM   24  N   UNL     1     -43.912  59.381 -60.131  1.00  0.00    -0.067 N 
HETATM   25  C   UNL     1     -43.505  60.154 -61.334  1.00  0.00     0.270 C 
HETATM   26  H   UNL     1     -44.868  59.655 -59.872  1.00  0.00     0.280 HD
HETATM   27  C   UNL     1     -43.946  57.870 -60.329  1.00  0.00     0.273 C 
HETATM   28  C   UNL     1     -43.475  55.989 -58.604  1.00  0.00     0.012 A 
HETATM   29  C   UNL     1     -42.960  55.702 -57.334  1.00  0.00     0.030 A 
ENDBRANCH   1  19
TORSDOF 3
ENDMDL
MODEL 3
REMARK VINA RESULT:      -8.6      3.529      8.707
REMARK  3 active torsions:
REMARK  status: ('A' for Active; 'I' for Inactive)
REMARK    1  A    between atoms: C_9  and  N_10 
REMARK       I    between atoms: N_10  and  C_11 
REMARK    2  A    between atoms: C_11  and  C_12 
REMARK    3  A    between atoms: N_14  and  C_15 
ROOT
HETATM    1  N   UNL     1     -41.903  55.902 -54.811  1.00  0.00    -0.322 N 
HETATM    2  C   UNL     1     -41.657  57.222 -54.490  1.00  0.00     0.276 C 
HETATM    3  O   UNL     1     -40.938  57.667 -53.607  1.00  0.00    -0.266 OA
HETATM    4  H   UNL     1     -42.549  55.760 -55.584  1.00  0.00     0.169 HD
ENDROOT
BRANCH   2   5
HETATM    5  C   UNL     1     -42.356  58.199 -55.431  1.00  0.00     0.145 A 
HETATM    6  N   UNL     1     -43.193  57.722 -56.297  1.00  0.00    -0.159 NA
HETATM    7  N   UNL     1     -43.810  58.620 -57.169  1.00  0.00    -0.197 N 
HETATM    8  C   UNL     1     -43.519  59.995 -57.168  1.00  0.00     0.268 A 
HETATM    9  O   UNL     1     -43.985  60.868 -57.895  1.00  0.00    -0.266 OA
HETATM   10  C   UNL     1     -42.546  60.453 -56.147  1.00  0.00     0.079 A 
HETATM   11  C   UNL     1     -41.979  59.610 -55.288  1.00  0.00     0.044 A 
BRANCH   7  12
HETATM   12  C   UNL     1     -44.774  58.004 -58.049  1.00  0.00     0.062 A 
HETATM   13  C   UNL     1     -46.157  58.232 -57.946  1.00  0.00     0.035 A 
HETATM   14  C   UNL     1     -47.069  57.603 -58.804  1.00  0.00     0.044 A 
HETATM   15  C   UNL     1     -46.609  56.733 -59.778  1.00  0.00     0.116 A 
HETATM   16  F   UNL     1     -47.481  56.128 -60.594  1.00  0.00    -0.206 F 
HETATM   17  C   UNL     1     -45.253  56.484 -59.916  1.00  0.00     0.044 A 
HETATM   18  C   UNL     1     -44.345  57.118 -59.060  1.00  0.00     0.035 A 
ENDBRANCH   7  12
ENDBRANCH   2   5
BRANCH   1  19
HETATM   19  C   UNL     1     -41.348  54.762 -54.198  1.00  0.00     0.035 A 
HETATM   20  C   UNL     1     -41.464  54.493 -52.830  1.00  0.00     0.039 A 
HETATM   21  C   UNL     1     -40.866  53.351 -52.317  1.00  0.00    -0.022 A 
HETATM   22  C   UNL     1     -40.897  52.855 -50.913  1.00  0.00     0.274 C 
HETATM   23  C   UNL     1     -40.156  52.472 -53.137  1.00  0.00    -0.025 A 
HETATM   24  N   UNL     1     -39.893  51.708 -50.890  1.00  0.00    -0.067 N 
HETATM   25  C   UNL     1     -40.270  50.577 -50.003  1.00  0.00     0.270 C 
HETATM   26  H   UNL     1     -39.013  52.114 -50.548  1.00  0.00     0.280 HD
HETATM   27  C   UNL     1     -39.641  51.320 -52.342  1.00  0.00     0.273 C 
HETATM   28  C   UNL     1     -40.039  52.713 -54.495  1.00  0.00     0.012 A 
HETATM   29  C   UNL     1     -40.640  53.864 -55.020  1.00  0.00     0.030 A 
ENDBRANCH   1  19
TORSDOF 3
ENDMDL
MODEL 4
REMARK VINA RESULT:      -8.5      4.803      8.716
REMARK  3 active torsions:
REMARK  status: ('A' for Active; 'I' for Inactive)
REMARK    1  A    between atoms: C_9  and  N_10 
REMARK       I    between atoms: N_10  and  C_11 
REMARK    2  A    between atoms: C_11  and  C_12 
REMARK    3  A    between atoms: N_14  and  C_15 
ROOT
HETATM    1  N   UNL     1     -41.351  56.291 -53.452  1.00  0.00    -0.322 N 
HETATM    2  C   UNL     1     -42.646  56.762 -53.365  1.00  0.00     0.276 C 
HETATM    3  O   UNL     1     -43.678  56.121 -53.230  1.00  0.00    -0.266 OA
HETATM    4  H   UNL     1     -40.639  57.008 -53.572  1.00  0.00     0.169 HD
ENDROOT
BRANCH   2   5
HETATM    5  C   UNL     1     -42.723  58.285 -53.387  1.00  0.00     0.145 A 
HETATM    6  N   UNL     1     -43.405  58.877 -52.457  1.00  0.00    -0.159 NA
HETATM    7  N   UNL     1     -43.490  60.269 -52.499  1.00  0.00    -0.197 N 
HETATM    8  C   UNL     1     -42.910  61.031 -53.528  1.00  0.00     0.268 A 
HETATM    9  O   UNL     1     -42.937  62.250 -53.674  1.00  0.00    -0.266 OA
HETATM   10  C   UNL     1     -42.154  60.272 -54.554  1.00  0.00     0.079 A 
HETATM   11  C   UNL     1     -42.037  58.947 -54.503  1.00  0.00     0.044 A 
BRANCH   7  12
HETATM   12  C   UNL     1     -44.211  60.840 -51.387  1.00  0.00     0.062 A 
HETATM   13  C   UNL     1     -43.636  61.023 -50.118  1.00  0.00     0.035 A 
HETATM   14  C   UNL     1     -44.370  61.563 -49.052  1.00  0.00     0.044 A 
HETATM   15  C   UNL     1     -45.693  61.924 -49.242  1.00  0.00     0.116 A 
HETATM   16  F   UNL     1     -46.395  62.434 -48.222  1.00  0.00    -0.206 F 
HETATM   17  C   UNL     1     -46.296  61.763 -50.479  1.00  0.00     0.044 A 
HETATM   18  C   UNL     1     -45.559  61.229 -51.542  1.00  0.00     0.035 A 
ENDBRANCH   7  12
ENDBRANCH   2   5
BRANCH   1  19
HETATM   19  C   UNL     1     -40.928  54.950 -53.376  1.00  0.00     0.035 A 
HETATM   20  C   UNL     1     -40.732  54.274 -52.167  1.00  0.00     0.039 A 
HETATM   21  C   UNL     1     -40.297  52.957 -52.197  1.00  0.00    -0.022 A 
HETATM   22  C   UNL     1     -40.063  52.044 -51.043  1.00  0.00     0.274 C 
HETATM   23  C   UNL     1     -40.052  52.299 -53.404  1.00  0.00    -0.025 A 
HETATM   24  N   UNL     1     -39.379  50.826 -51.650  1.00  0.00    -0.067 N 
HETATM   25  C   UNL     1     -39.754  49.531 -51.021  1.00  0.00     0.270 C 
HETATM   26  H   UNL     1     -38.372  50.975 -51.518  1.00  0.00     0.280 HD
HETATM   27  C   UNL     1     -39.621  50.894 -53.154  1.00  0.00     0.273 C 
HETATM   28  C   UNL     1     -40.250  52.946 -54.611  1.00  0.00     0.012 A 
HETATM   29  C   UNL     1     -40.691  54.275 -54.590  1.00  0.00     0.030 A 
ENDBRANCH   1  19
TORSDOF 3
ENDMDL
MODEL 5
REMARK VINA RESULT:      -8.4      3.446      4.495
REMARK  3 active torsions:
REMARK  status: ('A' for Active; 'I' for Inactive)
REMARK    1  A    between atoms: C_9  and  N_10 
REMARK       I    between atoms: N_10  and  C_11 
REMARK    2  A    between atoms: C_11  and  C_12 
REMARK    3  A    between atoms: N_14  and  C_15 
ROOT
HETATM    1  N   UNL     1     -42.965  57.073 -52.354  1.00  0.00    -0.322 N 
HETATM    2  C   UNL     1     -41.833  57.213 -51.577  1.00  0.00     0.276 C 
HETATM    3  O   UNL     1     -41.222  58.236 -51.304  1.00  0.00    -0.266 OA
HETATM    4  H   UNL     1     -43.302  56.119 -52.457  1.00  0.00     0.169 HD
ENDROOT
BRANCH   2   5
HETATM    5  C   UNL     1     -41.369  55.894 -50.965  1.00  0.00     0.145 A 
HETATM    6  N   UNL     1     -41.133  54.900 -51.762  1.00  0.00    -0.159 NA
HETATM    7  N   UNL     1     -40.733  53.691 -51.191  1.00  0.00    -0.197 N 
HETATM    8  C   UNL     1     -40.626  53.509 -49.801  1.00  0.00     0.268 A 
HETATM    9  O   UNL     1     -40.302  52.492 -49.194  1.00  0.00    -0.266 OA
HETATM   10  C   UNL     1     -40.920  54.698 -48.965  1.00  0.00     0.079 A 
HETATM   11  C   UNL     1     -41.269  55.865 -49.502  1.00  0.00     0.044 A 
BRANCH   7  12
HETATM   12  C   UNL     1     -40.429  52.665 -52.160  1.00  0.00     0.062 A 
HETATM   13  C   UNL     1     -39.749  51.481 -51.830  1.00  0.00     0.035 A 
HETATM   14  C   UNL     1     -39.451  50.513 -52.799  1.00  0.00     0.044 A 
HETATM   15  C   UNL     1     -39.830  50.718 -54.116  1.00  0.00     0.116 A 
HETATM   16  F   UNL     1     -39.541  49.796 -55.042  1.00  0.00    -0.206 F 
HETATM   17  C   UNL     1     -40.507  51.871 -54.481  1.00  0.00     0.044 A 
HETATM   18  C   UNL     1     -40.806  52.833 -53.510  1.00  0.00     0.035 A 
ENDBRANCH   7  12
ENDBRANCH   2   5
BRANCH   1  19
HETATM   19  C   UNL     1     -43.691  58.099 -52.988  1.00  0.00     0.035 A 
HETATM   20  C   UNL     1     -44.655  58.874 -52.335  1.00  0.00     0.039 A 
HETATM   21  C   UNL     1     -45.331  59.852 -53.052  1.00  0.00    -0.022 A 
HETATM   22  C   UNL     1     -46.357  60.808 -52.552  1.00  0.00     0.274 C 
HETATM   23  C   UNL     1     -45.066  60.073 -54.405  1.00  0.00    -0.025 A 
HETATM   24  N   UNL     1     -46.907  61.471 -53.809  1.00  0.00    -0.067 N 
HETATM   25  C   UNL     1     -47.262  62.906 -53.643  1.00  0.00     0.270 C 
HETATM   26  H   UNL     1     -47.758  60.949 -54.051  1.00  0.00     0.280 HD
HETATM   27  C   UNL     1     -45.907  61.189 -54.925  1.00  0.00     0.273 C 
HETATM   28  C   UNL     1     -44.109  59.325 -55.068  1.00  0.00     0.012 A 
HETATM   29  C   UNL     1     -43.422  58.337 -54.351  1.00  0.00     0.030 A 
ENDBRANCH   1  19
TORSDOF 3
ENDMDL
MODEL 6
REMARK VINA RESULT:      -8.4      2.468      2.917
REMARK  3 active torsions:
REMARK  status: ('A' for Active; 'I' for Inactive)
REMARK    1  A    between atoms: C_9  and  N_10 
REMARK       I    between atoms: N_10  and  C_11 
REMARK    2  A    between atoms: C_11  and  C_12 
REMARK    3  A    between atoms: N_14  and  C_15 
ROOT
HETATM    1  N   UNL     1     -42.059  58.033 -54.927  1.00  0.00    -0.322 N 
HETATM    2  C   UNL     1     -41.246  58.227 -53.828  1.00  0.00     0.276 C 
HETATM    3  O   UNL     1     -40.489  59.159 -53.601  1.00  0.00    -0.266 OA
HETATM    4  H   UNL     1     -42.604  57.173 -54.913  1.00  0.00     0.169 HD
ENDROOT
BRANCH   2   5
HETATM    5  C   UNL     1     -41.402  57.133 -52.776  1.00  0.00     0.145 A 
HETATM    6  N   UNL     1     -41.031  55.930 -53.085  1.00  0.00    -0.159 NA
HETATM    7  N   UNL     1     -41.200  54.931 -52.125  1.00  0.00    -0.197 N 
HETATM    8  C   UNL     1     -41.792  55.177 -50.874  1.00  0.00     0.268 A 
HETATM    9  O   UNL     1     -42.004  54.377 -49.967  1.00  0.00    -0.266 OA
HETATM   10  C   UNL     1     -42.191  56.580 -50.608  1.00  0.00     0.079 A 
HETATM   11  C   UNL     1     -42.003  57.546 -51.503  1.00  0.00     0.044 A 
BRANCH   7  12
HETATM   12  C   UNL     1     -40.697  53.642 -52.535  1.00  0.00     0.062 A 
HETATM   13  C   UNL     1     -39.907  52.831 -51.703  1.00  0.00     0.035 A 
HETATM   14  C   UNL     1     -39.417  51.592 -52.139  1.00  0.00     0.044 A 
HETATM   15  C   UNL     1     -39.710  51.148 -53.418  1.00  0.00     0.116 A 
HETATM   16  F   UNL     1     -39.237  49.967 -53.836  1.00  0.00    -0.206 F 
HETATM   17  C   UNL     1     -40.489  51.916 -54.268  1.00  0.00     0.044 A 
HETATM   18  C   UNL     1     -40.980  53.150 -53.828  1.00  0.00     0.035 A 
ENDBRANCH   7  12
ENDBRANCH   2   5
BRANCH   1  19
HETATM   19  C   UNL     1     -42.217  58.894 -56.029  1.00  0.00     0.035 A 
HETATM   20  C   UNL     1     -42.059  58.479 -57.356  1.00  0.00     0.039 A 
HETATM   21  C   UNL     1     -42.218  59.408 -58.374  1.00  0.00    -0.022 A 
HETATM   22  C   UNL     1     -42.135  59.178 -59.843  1.00  0.00     0.274 C 
HETATM   23  C   UNL     1     -42.531  60.741 -58.099  1.00  0.00    -0.025 A 
HETATM   24  N   UNL     1     -42.158  60.575 -60.452  1.00  0.00    -0.067 N 
HETATM   25  C   UNL     1     -42.884  60.672 -61.746  1.00  0.00     0.270 C 
HETATM   26  H   UNL     1     -41.175  60.829 -60.607  1.00  0.00     0.280 HD
HETATM   27  C   UNL     1     -42.669  61.515 -59.366  1.00  0.00     0.273 C 
HETATM   28  C   UNL     1     -42.702  61.170 -56.794  1.00  0.00     0.012 A 
HETATM   29  C   UNL     1     -42.544  60.237 -55.761  1.00  0.00     0.030 A 
ENDBRANCH   1  19
TORSDOF 3
ENDMDL
MODEL 7
REMARK VINA RESULT:      -8.4      4.300      9.024
REMARK  3 active torsions:
REMARK  status: ('A' for Active; 'I' for Inactive)
REMARK    1  A    between atoms: C_9  and  N_10 
REMARK       I    between atoms: N_10  and  C_11 
REMARK    2  A    between atoms: C_11  and  C_12 
REMARK    3  A    between atoms: N_14  and  C_15 
ROOT
HETATM    1  N   UNL     1     -41.628  56.828 -54.258  1.00  0.00    -0.322 N 
HETATM    2  C   UNL     1     -41.130  58.032 -53.801  1.00  0.00     0.276 C 
HETATM    3  O   UNL     1     -40.204  58.225 -53.028  1.00  0.00    -0.266 OA
HETATM    4  H   UNL     1     -42.418  56.902 -54.896  1.00  0.00     0.169 HD
ENDROOT
BRANCH   2   5
HETATM    5  C   UNL     1     -41.832  59.236 -54.423  1.00  0.00     0.145 A 
HETATM    6  N   UNL     1     -41.619  59.489 -55.676  1.00  0.00    -0.159 NA
HETATM    7  N   UNL     1     -42.247  60.605 -56.229  1.00  0.00    -0.197 N 
HETATM    8  C   UNL     1     -43.050  61.475 -55.471  1.00  0.00     0.268 A 
HETATM    9  O   UNL     1     -43.633  62.488 -55.848  1.00  0.00    -0.266 OA
HETATM   10  C   UNL     1     -43.235  61.112 -54.045  1.00  0.00     0.079 A 
HETATM   11  C   UNL     1     -42.669  60.030 -53.516  1.00  0.00     0.044 A 
BRANCH   7  12
HETATM   12  C   UNL     1     -42.004  60.765 -57.643  1.00  0.00     0.062 A 
HETATM   13  C   UNL     1     -41.184  61.779 -58.167  1.00  0.00     0.035 A 
HETATM   14  C   UNL     1     -40.984  61.920 -59.547  1.00  0.00     0.044 A 
HETATM   15  C   UNL     1     -41.605  61.047 -60.424  1.00  0.00     0.116 A 
HETATM   16  F   UNL     1     -41.418  61.185 -61.743  1.00  0.00    -0.206 F 
HETATM   17  C   UNL     1     -42.418  60.031 -59.948  1.00  0.00     0.044 A 
HETATM   18  C   UNL     1     -42.611  59.890 -58.569  1.00  0.00     0.035 A 
ENDBRANCH   7  12
ENDBRANCH   2   5
BRANCH   1  19
HETATM   19  C   UNL     1     -41.150  55.540 -53.949  1.00  0.00     0.035 A 
HETATM   20  C   UNL     1     -41.064  55.047 -52.643  1.00  0.00     0.039 A 
HETATM   21  C   UNL     1     -40.562  53.769 -52.439  1.00  0.00    -0.022 A 
HETATM   22  C   UNL     1     -40.420  53.038 -51.149  1.00  0.00     0.274 C 
HETATM   23  C   UNL     1     -40.146  52.973 -53.507  1.00  0.00    -0.025 A 
HETATM   24  N   UNL     1     -39.610  51.796 -51.500  1.00  0.00    -0.067 N 
HETATM   25  C   UNL     1     -39.990  50.576 -50.740  1.00  0.00     0.270 C 
HETATM   26  H   UNL     1     -38.633  52.028 -51.281  1.00  0.00     0.280 HD
HETATM   27  C   UNL     1     -39.677  51.646 -53.016  1.00  0.00     0.273 C 
HETATM   28  C   UNL     1     -40.233  53.437 -54.808  1.00  0.00     0.012 A 
HETATM   29  C   UNL     1     -40.739  54.726 -55.023  1.00  0.00     0.030 A 
ENDBRANCH   1  19
TORSDOF 3
ENDMDL
MODEL 8
REMARK VINA RESULT:      -8.4      4.044      9.478
REMARK  3 active torsions:
REMARK  status: ('A' for Active; 'I' for Inactive)
REMARK    1  A    between atoms: C_9  and  N_10 
REMARK       I    between atoms: N_10  and  C_11 
REMARK    2  A    between atoms: C_11  and  C_12 
REMARK    3  A    between atoms: N_14  and  C_15 
ROOT
HETATM    1  N   UNL     1     -41.639  55.362 -55.708  1.00  0.00    -0.322 N 
HETATM    2  C   UNL     1     -42.742  55.059 -56.481  1.00  0.00     0.276 C 
HETATM    3  O   UNL     1     -43.558  54.164 -56.319  1.00  0.00    -0.266 OA
HETATM    4  H   UNL     1     -41.087  56.152 -56.036  1.00  0.00     0.169 HD
ENDROOT
BRANCH   2   5
HETATM    5  C   UNL     1     -42.944  56.039 -57.633  1.00  0.00     0.145 A 
HETATM    6  N   UNL     1     -42.853  57.306 -57.381  1.00  0.00    -0.159 NA
HETATM    7  N   UNL     1     -43.062  58.195 -58.436  1.00  0.00    -0.197 N 
HETATM    8  C   UNL     1     -43.409  57.766 -59.729  1.00  0.00     0.268 A 
HETATM    9  O   UNL     1     -43.631  58.455 -60.721  1.00  0.00    -0.266 OA
HETATM   10  C   UNL     1     -43.496  56.299 -59.926  1.00  0.00     0.079 A 
HETATM   11  C   UNL     1     -43.264  55.442 -58.935  1.00  0.00     0.044 A 
BRANCH   7  12
HETATM   12  C   UNL     1     -42.874  59.579 -58.074  1.00  0.00     0.062 A 
HETATM   13  C   UNL     1     -43.891  60.366 -57.506  1.00  0.00     0.035 A 
HETATM   14  C   UNL     1     -43.681  61.713 -57.184  1.00  0.00     0.044 A 
HETATM   15  C   UNL     1     -42.448  62.295 -57.429  1.00  0.00     0.116 A 
HETATM   16  F   UNL     1     -42.251  63.584 -57.126  1.00  0.00    -0.206 F 
HETATM   17  C   UNL     1     -41.418  61.554 -57.984  1.00  0.00     0.044 A 
HETATM   18  C   UNL     1     -41.630  60.207 -58.300  1.00  0.00     0.035 A 
ENDBRANCH   7  12
ENDBRANCH   2   5
BRANCH   1  19
HETATM   19  C   UNL     1     -41.223  54.712 -54.530  1.00  0.00     0.035 A 
HETATM   20  C   UNL     1     -41.329  55.286 -53.259  1.00  0.00     0.039 A 
HETATM   21  C   UNL     1     -40.873  54.571 -52.159  1.00  0.00    -0.022 A 
HETATM   22  C   UNL     1     -40.924  54.970 -50.725  1.00  0.00     0.274 C 
HETATM   23  C   UNL     1     -40.316  53.299 -52.300  1.00  0.00    -0.025 A 
HETATM   24  N   UNL     1     -40.083  53.921 -50.007  1.00  0.00    -0.067 N 
HETATM   25  C   UNL     1     -40.580  53.554 -48.654  1.00  0.00     0.270 C 
HETATM   26  H   UNL     1     -39.146  54.331 -49.912  1.00  0.00     0.280 HD
HETATM   27  C   UNL     1     -39.935  52.747 -50.968  1.00  0.00     0.273 C 
HETATM   28  C   UNL     1     -40.212  52.709 -53.547  1.00  0.00     0.012 A 
HETATM   29  C   UNL     1     -40.670  53.423 -54.662  1.00  0.00     0.030 A 
ENDBRANCH   1  19
TORSDOF 3
ENDMDL
MODEL 9
REMARK VINA RESULT:      -8.4      2.587      3.480
REMARK  3 active torsions:
REMARK  status: ('A' for Active; 'I' for Inactive)
REMARK    1  A    between atoms: C_9  and  N_10 
REMARK       I    between atoms: N_10  and  C_11 
REMARK    2  A    between atoms: C_11  and  C_12 
REMARK    3  A    between atoms: N_14  and  C_15 
ROOT
HETATM    1  N   UNL     1     -42.481  57.567 -55.896  1.00  0.00    -0.322 N 
HETATM    2  C   UNL     1     -43.524  57.718 -55.003  1.00  0.00     0.276 C 
HETATM    3  O   UNL     1     -44.539  58.387 -55.129  1.00  0.00    -0.266 OA
HETATM    4  H   UNL     1     -41.726  56.963 -55.578  1.00  0.00     0.169 HD
ENDROOT
BRANCH   2   5
HETATM    5  C   UNL     1     -43.352  56.871 -53.746  1.00  0.00     0.145 A 
HETATM    6  N   UNL     1     -42.626  55.800 -53.823  1.00  0.00    -0.159 NA
HETATM    7  N   UNL     1     -42.495  55.019 -52.675  1.00  0.00    -0.197 N 
HETATM    8  C   UNL     1     -43.153  55.328 -51.471  1.00  0.00     0.268 A 
HETATM    9  O   UNL     1     -43.123  54.707 -50.412  1.00  0.00    -0.266 OA
HETATM   10  C   UNL     1     -43.967  56.567 -51.474  1.00  0.00     0.079 A 
HETATM   11  C   UNL     1     -44.071  57.337 -52.554  1.00  0.00     0.044 A 
BRANCH   7  12
HETATM   12  C   UNL     1     -41.615  53.888 -52.840  1.00  0.00     0.062 A 
HETATM   13  C   UNL     1     -40.736  53.450 -51.835  1.00  0.00     0.035 A 
HETATM   14  C   UNL     1     -39.880  52.359 -52.035  1.00  0.00     0.044 A 
HETATM   15  C   UNL     1     -39.888  51.691 -53.248  1.00  0.00     0.116 A 
HETATM   16  F   UNL     1     -39.066  50.652 -53.441  1.00  0.00    -0.206 F 
HETATM   17  C   UNL     1     -40.743  52.088 -54.264  1.00  0.00     0.044 A 
HETATM   18  C   UNL     1     -41.600  53.175 -54.059  1.00  0.00     0.035 A 
ENDBRANCH   7  12
ENDBRANCH   2   5
BRANCH   1  19
HETATM   19  C   UNL     1     -42.372  58.138 -57.178  1.00  0.00     0.035 A 
HETATM   20  C   UNL     1     -42.019  59.474 -57.394  1.00  0.00     0.039 A 
HETATM   21  C   UNL     1     -41.955  59.950 -58.697  1.00  0.00    -0.022 A 
HETATM   22  C   UNL     1     -41.566  61.313 -59.155  1.00  0.00     0.274 C 
HETATM   23  C   UNL     1     -42.235  59.124 -59.787  1.00  0.00    -0.025 A 
HETATM   24  N   UNL     1     -41.901  61.328 -60.641  1.00  0.00    -0.067 N 
HETATM   25  C   UNL     1     -40.953  62.111 -61.478  1.00  0.00     0.270 C 
HETATM   26  H   UNL     1     -42.832  61.754 -60.714  1.00  0.00     0.280 HD
HETATM   27  C   UNL     1     -42.069  59.873 -61.065  1.00  0.00     0.273 C 
HETATM   28  C   UNL     1     -42.576  57.796 -59.595  1.00  0.00     0.012 A 
HETATM   29  C   UNL     1     -42.641  57.308 -58.284  1.00  0.00     0.030 A 
ENDBRANCH   1  19
TORSDOF 3
ENDMDL
MODEL 10
REMARK VINA RESULT:      -8.2      2.656      4.440
REMARK  3 active torsions:
REMARK  status: ('A' for Active; 'I' for Inactive)
REMARK    1  A    between atoms: C_9  and  N_10 
REMARK       I    between atoms: N_10  and  C_11 
REMARK    2  A    between atoms: C_11  and  C_12 
REMARK    3  A    between atoms: N_14  and  C_15 
ROOT
HETATM    1  N   UNL     1     -44.302  57.045 -57.851  1.00  0.00    -0.322 N 
HETATM    2  C   UNL     1     -43.093  57.711 -57.815  1.00  0.00     0.276 C 
HETATM    3  O   UNL     1     -42.545  58.337 -58.710  1.00  0.00    -0.266 OA
HETATM    4  H   UNL     1     -44.563  56.579 -56.985  1.00  0.00     0.169 HD
ENDROOT
BRANCH   2   5
HETATM    5  C   UNL     1     -42.436  57.670 -56.438  1.00  0.00     0.145 A 
HETATM    6  N   UNL     1     -42.120  56.514 -55.945  1.00  0.00    -0.159 NA
HETATM    7  N   UNL     1     -41.542  56.485 -54.675  1.00  0.00    -0.197 N 
HETATM    8  C   UNL     1     -41.340  57.647 -53.910  1.00  0.00     0.268 A 
HETATM    9  O   UNL     1     -40.860  57.736 -52.783  1.00  0.00    -0.266 OA
HETATM   10  C   UNL     1     -41.736  58.925 -54.549  1.00  0.00     0.079 A 
HETATM   11  C   UNL     1     -42.256  58.966 -55.774  1.00  0.00     0.044 A 
BRANCH   7  12
HETATM   12  C   UNL     1     -41.164  55.162 -54.241  1.00  0.00     0.062 A 
HETATM   13  C   UNL     1     -41.320  54.719 -52.916  1.00  0.00     0.035 A 
HETATM   14  C   UNL     1     -40.924  53.434 -52.522  1.00  0.00     0.044 A 
HETATM   15  C   UNL     1     -40.362  52.573 -53.450  1.00  0.00     0.116 A 
HETATM   16  F   UNL     1     -39.978  51.347 -53.071  1.00  0.00    -0.206 F 
HETATM   17  C   UNL     1     -40.195  52.969 -54.767  1.00  0.00     0.044 A 
HETATM   18  C   UNL     1     -40.596  54.251 -55.158  1.00  0.00     0.035 A 
ENDBRANCH   7  12
ENDBRANCH   2   5
BRANCH   1  19
HETATM   19  C   UNL     1     -45.194  56.964 -58.937  1.00  0.00     0.035 A 
HETATM   20  C   UNL     1     -46.029  58.018 -59.324  1.00  0.00     0.039 A 
HETATM   21  C   UNL     1     -46.888  57.835 -60.398  1.00  0.00    -0.022 A 
HETATM   22  C   UNL     1     -47.826  58.824 -60.999  1.00  0.00     0.274 C 
HETATM   23  C   UNL     1     -46.933  56.626 -61.095  1.00  0.00    -0.025 A 
HETATM   24  N   UNL     1     -48.664  58.012 -61.978  1.00  0.00    -0.067 N 
HETATM   25  C   UNL     1     -49.041  58.740 -63.219  1.00  0.00     0.270 C 
HETATM   26  H   UNL     1     -49.522  57.761 -61.471  1.00  0.00     0.280 HD
HETATM   27  C   UNL     1     -47.917  56.704 -62.212  1.00  0.00     0.273 C 
HETATM   28  C   UNL     1     -46.107  55.574 -60.735  1.00  0.00     0.012 A 
HETATM   29  C   UNL     1     -45.237  55.752 -59.652  1.00  0.00     0.030 A 
ENDBRANCH   1  19
TORSDOF 3
ENDMDL
