MODEL 1
REMARK VINA RESULT:      -8.1      0.000      0.000
REMARK  5 active torsions:
REMARK  status: ('A' for Active; 'I' for Inactive)
REMARK    1  A    between atoms: C_3  and  N_4 
REMARK       I    between atoms: N_4  and  C_5 
REMARK       I    between atoms: C_5  and  N_6 
REMARK    2  A    between atoms: N_6  and  C_7 
REMARK    3  A    between atoms: C_7  and  C_8 
REMARK    4  A    between atoms: C_11  and  N_12 
REMARK       I    between atoms: N_12  and  C_13 
REMARK    5  A    between atoms: C_13  and  C_14 
ROOT
HETATM    1  C   UNL     1     -43.117  57.989 -52.006  1.00  0.00    -0.040 A 
HETATM    2  C   UNL     1     -41.912  57.709 -51.352  1.00  0.00     0.011 A 
HETATM    3  C   UNL     1     -41.326  56.440 -51.442  1.00  0.00     0.030 A 
HETATM    4  C   UNL     1     -41.931  55.429 -52.189  1.00  0.00     0.035 A 
HETATM    5  C   UNL     1     -43.126  55.716 -52.861  1.00  0.00     0.030 A 
HETATM    6  C   UNL     1     -43.712  56.984 -52.776  1.00  0.00     0.011 A 
ENDROOT
BRANCH   1   7
HETATM    7  C   UNL     1     -43.740  59.355 -51.906  1.00  0.00     0.162 C 
BRANCH   7   8
HETATM    8  N   UNL     1     -43.569  59.907 -50.581  1.00  0.00    -0.339 N 
HETATM    9  C   UNL     1     -44.662  60.455 -49.942  1.00  0.00     0.321 C 
HETATM   10  N   UNL     1     -44.293  60.979 -48.724  1.00  0.00    -0.307 N 
HETATM   11  O   UNL     1     -45.789  60.417 -50.413  1.00  0.00    -0.247 OA
HETATM   12  H   UNL     1     -43.538  60.456 -48.300  1.00  0.00     0.170 HD
HETATM   13  H   UNL     1     -42.688  60.362 -50.395  1.00  0.00     0.164 HD
BRANCH  10  14
HETATM   14  C   UNL     1     -45.131  61.692 -47.833  1.00  0.00     0.059 A 
HETATM   15  C   UNL     1     -45.166  63.085 -47.669  1.00  0.00    -0.032 A 
HETATM   16  C   UNL     1     -44.259  64.054 -48.371  1.00  0.00     0.050 C 
HETATM   17  C   UNL     1     -46.098  63.624 -46.763  1.00  0.00     0.028 A 
HETATM   18  C   UNL     1     -46.901  62.774 -46.018  1.00  0.00     0.117 A 
HETATM   19  N   UNL     1     -46.841  61.434 -46.102  1.00  0.00    -0.271 NA
HETATM   20  C   UNL     1     -45.962  60.932 -47.001  1.00  0.00     0.146 A 
ENDBRANCH  10  14
ENDBRANCH   7   8
ENDBRANCH   1   7
BRANCH   4  21
HETATM   21  N   UNL     1     -41.415  54.121 -52.321  1.00  0.00    -0.323 N 
HETATM   22  C   UNL     1     -40.646  53.623 -53.359  1.00  0.00     0.257 C 
HETATM   23  O   UNL     1     -40.243  54.253 -54.331  1.00  0.00    -0.267 OA
HETATM   24  H   UNL     1     -41.586  53.513 -51.533  1.00  0.00     0.169 HD
BRANCH  22  25
HETATM   25  C   UNL     1     -40.263  52.190 -53.255  1.00  0.00     0.049 A 
HETATM   26  C   UNL     1     -39.852  51.703 -52.018  1.00  0.00     0.133 A 
HETATM   27  N   UNL     1     -39.476  50.418 -51.794  1.00  0.00    -0.272 NA
HETATM   28  C   UNL     1     -39.495  49.585 -52.855  1.00  0.00     0.116 A 
HETATM   29  C   UNL     1     -39.873  49.976 -54.129  1.00  0.00     0.020 A 
HETATM   30  C   UNL     1     -40.258  51.302 -54.334  1.00  0.00     0.020 A 
ENDBRANCH  22  25
ENDBRANCH   4  21
TORSDOF 5
ENDMDL
MODEL 2
REMARK VINA RESULT:      -7.6      6.044      8.582
REMARK  5 active torsions:
REMARK  status: ('A' for Active; 'I' for Inactive)
REMARK    1  A    between atoms: C_3  and  N_4 
REMARK       I    between atoms: N_4  and  C_5 
REMARK       I    between atoms: C_5  and  N_6 
REMARK    2  A    between atoms: N_6  and  C_7 
REMARK    3  A    between atoms: C_7  and  C_8 
REMARK    4  A    between atoms: C_11  and  N_12 
REMARK       I    between atoms: N_12  and  C_13 
REMARK    5  A    between atoms: C_13  and  C_14 
ROOT
HETATM    1  C   UNL     1     -43.868  57.173 -55.545  1.00  0.00    -0.040 A 
HETATM    2  C   UNL     1     -44.275  56.537 -54.368  1.00  0.00     0.011 A 
HETATM    3  C   UNL     1     -43.665  55.349 -53.947  1.00  0.00     0.030 A 
HETATM    4  C   UNL     1     -42.636  54.776 -54.693  1.00  0.00     0.035 A 
HETATM    5  C   UNL     1     -42.213  55.425 -55.862  1.00  0.00     0.030 A 
HETATM    6  C   UNL     1     -42.819  56.613 -56.282  1.00  0.00     0.011 A 
ENDROOT
BRANCH   1   7
HETATM    7  C   UNL     1     -44.528  58.450 -55.990  1.00  0.00     0.162 C 
BRANCH   7   8
HETATM    8  N   UNL     1     -44.592  58.526 -57.432  1.00  0.00    -0.339 N 
HETATM    9  C   UNL     1     -45.788  58.250 -58.061  1.00  0.00     0.321 C 
HETATM   10  N   UNL     1     -45.638  58.314 -59.428  1.00  0.00    -0.307 N 
HETATM   11  O   UNL     1     -46.821  58.028 -57.447  1.00  0.00    -0.247 OA
HETATM   12  H   UNL     1     -44.951  59.005 -59.701  1.00  0.00     0.170 HD
HETATM   13  H   UNL     1     -43.765  58.238 -57.934  1.00  0.00     0.164 HD
BRANCH  10  14
HETATM   14  C   UNL     1     -46.629  58.009 -60.392  1.00  0.00     0.059 A 
HETATM   15  C   UNL     1     -47.525  58.920 -60.973  1.00  0.00    -0.032 A 
HETATM   16  C   UNL     1     -47.625  60.373 -60.609  1.00  0.00     0.050 C 
HETATM   17  C   UNL     1     -48.417  58.443 -61.950  1.00  0.00     0.028 A 
HETATM   18  C   UNL     1     -48.434  57.093 -62.263  1.00  0.00     0.117 A 
HETATM   19  N   UNL     1     -47.637  56.184 -61.674  1.00  0.00    -0.271 NA
HETATM   20  C   UNL     1     -46.762  56.664 -60.759  1.00  0.00     0.146 A 
ENDBRANCH  10  14
ENDBRANCH   7   8
ENDBRANCH   1   7
BRANCH   4  21
HETATM   21  N   UNL     1     -41.977  53.575 -54.348  1.00  0.00    -0.323 N 
HETATM   22  C   UNL     1     -40.926  53.421 -53.460  1.00  0.00     0.257 C 
HETATM   23  O   UNL     1     -40.412  54.304 -52.782  1.00  0.00    -0.267 OA
HETATM   24  H   UNL     1     -42.367  52.740 -54.760  1.00  0.00     0.169 HD
BRANCH  22  25
HETATM   25  C   UNL     1     -40.402  52.037 -53.309  1.00  0.00     0.049 A 
HETATM   26  C   UNL     1     -39.923  51.642 -52.064  1.00  0.00     0.133 A 
HETATM   27  N   UNL     1     -39.419  50.410 -51.799  1.00  0.00    -0.272 NA
HETATM   28  C   UNL     1     -39.374  49.537 -52.826  1.00  0.00     0.116 A 
HETATM   29  C   UNL     1     -39.810  49.838 -54.107  1.00  0.00     0.020 A 
HETATM   30  C   UNL     1     -40.328  51.111 -54.354  1.00  0.00     0.020 A 
ENDBRANCH  22  25
ENDBRANCH   4  21
TORSDOF 5
ENDMDL
MODEL 3
REMARK VINA RESULT:      -7.3      1.764     10.680
REMARK  5 active torsions:
REMARK  status: ('A' for Active; 'I' for Inactive)
REMARK    1  A    between atoms: C_3  and  N_4 
REMARK       I    between atoms: N_4  and  C_5 
REMARK       I    between atoms: C_5  and  N_6 
REMARK    2  A    between atoms: N_6  and  C_7 
REMARK    3  A    between atoms: C_7  and  C_8 
REMARK    4  A    between atoms: C_11  and  N_12 
REMARK       I    between atoms: N_12  and  C_13 
REMARK    5  A    between atoms: C_13  and  C_14 
ROOT
HETATM    1  C   UNL     1     -43.056  56.796 -54.288  1.00  0.00    -0.040 A 
HETATM    2  C   UNL     1     -44.395  57.200 -54.263  1.00  0.00     0.011 A 
HETATM    3  C   UNL     1     -44.833  58.173 -53.357  1.00  0.00     0.030 A 
HETATM    4  C   UNL     1     -43.942  58.762 -52.460  1.00  0.00     0.035 A 
HETATM    5  C   UNL     1     -42.596  58.372 -52.498  1.00  0.00     0.030 A 
HETATM    6  C   UNL     1     -42.155  57.403 -53.405  1.00  0.00     0.011 A 
ENDROOT
BRANCH   1   7
HETATM    7  C   UNL     1     -42.592  55.750 -55.266  1.00  0.00     0.162 C 
BRANCH   7   8
HETATM    8  N   UNL     1     -41.403  55.082 -54.786  1.00  0.00    -0.339 N 
HETATM    9  C   UNL     1     -41.500  53.771 -54.366  1.00  0.00     0.321 C 
HETATM   10  N   UNL     1     -40.286  53.329 -53.891  1.00  0.00    -0.307 N 
HETATM   11  O   UNL     1     -42.530  53.121 -54.463  1.00  0.00    -0.247 OA
HETATM   12  H   UNL     1     -39.510  53.757 -54.378  1.00  0.00     0.170 HD
HETATM   13  H   UNL     1     -40.744  55.651 -54.275  1.00  0.00     0.164 HD
BRANCH  10  14
HETATM   14  C   UNL     1     -40.029  52.067 -53.303  1.00  0.00     0.059 A 
HETATM   15  C   UNL     1     -39.827  51.818 -51.937  1.00  0.00    -0.032 A 
HETATM   16  C   UNL     1     -39.780  52.875 -50.871  1.00  0.00     0.050 C 
HETATM   17  C   UNL     1     -39.626  50.488 -51.527  1.00  0.00     0.028 A 
HETATM   18  C   UNL     1     -39.567  49.478 -52.475  1.00  0.00     0.117 A 
HETATM   19  N   UNL     1     -39.688  49.694 -53.797  1.00  0.00    -0.271 NA
HETATM   20  C   UNL     1     -39.913  50.975 -54.173  1.00  0.00     0.146 A 
ENDBRANCH  10  14
ENDBRANCH   7   8
ENDBRANCH   1   7
BRANCH   4  21
HETATM   21  N   UNL     1     -44.304  59.739 -51.505  1.00  0.00    -0.323 N 
HETATM   22  C   UNL     1     -45.309  59.654 -50.558  1.00  0.00     0.257 C 
HETATM   23  O   UNL     1     -46.037  58.688 -50.356  1.00  0.00    -0.267 OA
HETATM   24  H   UNL     1     -43.714  60.558 -51.489  1.00  0.00     0.169 HD
BRANCH  22  25
HETATM   25  C   UNL     1     -45.492  60.851 -49.695  1.00  0.00     0.049 A 
HETATM   26  C   UNL     1     -46.274  61.898 -50.172  1.00  0.00     0.133 A 
HETATM   27  N   UNL     1     -46.515  63.042 -49.482  1.00  0.00    -0.272 NA
HETATM   28  C   UNL     1     -45.935  63.155 -48.269  1.00  0.00     0.116 A 
HETATM   29  C   UNL     1     -45.126  62.178 -47.713  1.00  0.00     0.020 A 
HETATM   30  C   UNL     1     -44.895  61.009 -48.441  1.00  0.00     0.020 A 
ENDBRANCH  22  25
ENDBRANCH   4  21
TORSDOF 5
ENDMDL
MODEL 4
REMARK VINA RESULT:      -7.3      1.771     10.550
REMARK  5 active torsions:
REMARK  status: ('A' for Active; 'I' for Inactive)
REMARK    1  A    between atoms: C_3  and  N_4 
REMARK       I    between atoms: N_4  and  C_5 
REMARK       I    between atoms: C_5  and  N_6 
REMARK    2  A    between atoms: N_6  and  C_7 
REMARK    3  A    between atoms: C_7  and  C_8 
REMARK    4  A    between atoms: C_11  and  N_12 
REMARK       I    between atoms: N_12  and  C_13 
REMARK    5  A    between atoms: C_13  and  C_14 
ROOT
HETATM    1  C   UNL     1     -42.230  56.422 -54.536  1.00  0.00    -0.040 A 
HETATM    2  C   UNL     1     -42.307  57.753 -54.961  1.00  0.00     0.011 A 
HETATM    3  C   UNL     1     -42.839  58.742 -54.125  1.00  0.00     0.030 A 
HETATM    4  C   UNL     1     -43.301  58.421 -52.849  1.00  0.00     0.035 A 
HETATM    5  C   UNL     1     -43.204  57.092 -52.415  1.00  0.00     0.030 A 
HETATM    6  C   UNL     1     -42.670  56.103 -53.247  1.00  0.00     0.011 A 
ENDROOT
BRANCH   1   7
HETATM    7  C   UNL     1     -41.656  55.364 -55.440  1.00  0.00     0.162 C 
BRANCH   7   8
HETATM    8  N   UNL     1     -40.612  54.622 -54.771  1.00  0.00    -0.339 N 
HETATM    9  C   UNL     1     -40.928  53.421 -54.170  1.00  0.00     0.321 C 
HETATM   10  N   UNL     1     -39.824  52.895 -53.538  1.00  0.00    -0.307 N 
HETATM   11  O   UNL     1     -42.037  52.914 -54.252  1.00  0.00    -0.247 OA
HETATM   12  H   UNL     1     -38.965  53.128 -54.019  1.00  0.00     0.170 HD
HETATM   13  H   UNL     1     -39.905  55.167 -54.299  1.00  0.00     0.164 HD
BRANCH  10  14
HETATM   14  C   UNL     1     -39.795  51.720 -52.750  1.00  0.00     0.059 A 
HETATM   15  C   UNL     1     -39.670  50.407 -53.229  1.00  0.00    -0.032 A 
HETATM   16  C   UNL     1     -39.617  50.026 -54.680  1.00  0.00     0.050 C 
HETATM   17  C   UNL     1     -39.616  49.360 -52.291  1.00  0.00     0.028 A 
HETATM   18  C   UNL     1     -39.752  49.640 -50.940  1.00  0.00     0.117 A 
HETATM   19  N   UNL     1     -39.943  50.880 -50.455  1.00  0.00    -0.271 NA
HETATM   20  C   UNL     1     -39.960  51.880 -51.368  1.00  0.00     0.146 A 
ENDBRANCH  10  14
ENDBRANCH   7   8
ENDBRANCH   1   7
BRANCH   4  21
HETATM   21  N   UNL     1     -43.863  59.354 -51.949  1.00  0.00    -0.323 N 
HETATM   22  C   UNL     1     -43.191  60.141 -51.029  1.00  0.00     0.257 C 
HETATM   23  O   UNL     1     -41.977  60.193 -50.867  1.00  0.00    -0.267 OA
HETATM   24  H   UNL     1     -44.858  59.492 -52.043  1.00  0.00     0.169 HD
BRANCH  22  25
HETATM   25  C   UNL     1     -44.042  61.019 -50.182  1.00  0.00     0.049 A 
HETATM   26  C   UNL     1     -45.295  60.556 -49.797  1.00  0.00     0.133 A 
HETATM   27  N   UNL     1     -46.164  61.261 -49.028  1.00  0.00    -0.272 NA
HETATM   28  C   UNL     1     -45.770  62.491 -48.638  1.00  0.00     0.116 A 
HETATM   29  C   UNL     1     -44.550  63.049 -48.981  1.00  0.00     0.020 A 
HETATM   30  C   UNL     1     -43.673  62.303 -49.771  1.00  0.00     0.020 A 
ENDBRANCH  22  25
ENDBRANCH   4  21
TORSDOF 5
ENDMDL
MODEL 5
REMARK VINA RESULT:      -7.2     18.055     20.328
REMARK  5 active torsions:
REMARK  status: ('A' for Active; 'I' for Inactive)
REMARK    1  A    between atoms: C_3  and  N_4 
REMARK       I    between atoms: N_4  and  C_5 
REMARK       I    between atoms: C_5  and  N_6 
REMARK    2  A    between atoms: N_6  and  C_7 
REMARK    3  A    between atoms: C_7  and  C_8 
REMARK    4  A    between atoms: C_11  and  N_12 
REMARK       I    between atoms: N_12  and  C_13 
REMARK    5  A    between atoms: C_13  and  C_14 
ROOT
HETATM    1  C   UNL     1     -36.379  41.929 -56.057  1.00  0.00    -0.040 A 
HETATM    2  C   UNL     1     -35.824  41.885 -57.340  1.00  0.00     0.011 A 
HETATM    3  C   UNL     1     -36.514  41.284 -58.399  1.00  0.00     0.030 A 
HETATM    4  C   UNL     1     -37.772  40.717 -58.197  1.00  0.00     0.035 A 
HETATM    5  C   UNL     1     -38.338  40.780 -56.916  1.00  0.00     0.030 A 
HETATM    6  C   UNL     1     -37.652  41.383 -55.857  1.00  0.00     0.011 A 
ENDROOT
BRANCH   1   7
HETATM    7  C   UNL     1     -35.632  42.579 -54.923  1.00  0.00     0.162 C 
BRANCH   7   8
HETATM    8  N   UNL     1     -34.772  41.628 -54.257  1.00  0.00    -0.339 N 
HETATM    9  C   UNL     1     -35.130  41.169 -53.006  1.00  0.00     0.321 C 
HETATM   10  N   UNL     1     -34.165  40.323 -52.510  1.00  0.00    -0.307 N 
HETATM   11  O   UNL     1     -36.189  41.467 -52.472  1.00  0.00    -0.247 OA
HETATM   12  H   UNL     1     -33.709  39.797 -53.244  1.00  0.00     0.170 HD
HETATM   13  H   UNL     1     -33.780  41.736 -54.408  1.00  0.00     0.164 HD
BRANCH  10  14
HETATM   14  C   UNL     1     -34.154  39.731 -51.224  1.00  0.00     0.059 A 
HETATM   15  C   UNL     1     -33.039  39.610 -50.380  1.00  0.00    -0.032 A 
HETATM   16  C   UNL     1     -31.644  40.033 -50.737  1.00  0.00     0.050 C 
HETATM   17  C   UNL     1     -33.226  39.027 -49.113  1.00  0.00     0.028 A 
HETATM   18  C   UNL     1     -34.473  38.534 -48.761  1.00  0.00     0.117 A 
HETATM   19  N   UNL     1     -35.542  38.572 -49.575  1.00  0.00    -0.271 NA
HETATM   20  C   UNL     1     -35.354  39.165 -50.777  1.00  0.00     0.146 A 
ENDBRANCH  10  14
ENDBRANCH   7   8
ENDBRANCH   1   7
BRANCH   4  21
HETATM   21  N   UNL     1     -38.529  40.080 -59.206  1.00  0.00    -0.323 N 
HETATM   22  C   UNL     1     -38.635  38.720 -59.441  1.00  0.00     0.257 C 
HETATM   23  O   UNL     1     -38.118  37.825 -58.781  1.00  0.00    -0.267 OA
HETATM   24  H   UNL     1     -39.094  40.697 -59.769  1.00  0.00     0.169 HD
BRANCH  22  25
HETATM   25  C   UNL     1     -39.482  38.325 -60.598  1.00  0.00     0.049 A 
HETATM   26  C   UNL     1     -38.872  38.141 -61.834  1.00  0.00     0.133 A 
HETATM   27  N   UNL     1     -39.535  37.783 -62.964  1.00  0.00    -0.272 NA
HETATM   28  C   UNL     1     -40.870  37.618 -62.859  1.00  0.00     0.116 A 
HETATM   29  C   UNL     1     -41.573  37.793 -61.678  1.00  0.00     0.020 A 
HETATM   30  C   UNL     1     -40.869  38.159 -60.530  1.00  0.00     0.020 A 
ENDBRANCH  22  25
ENDBRANCH   4  21
TORSDOF 5
ENDMDL
MODEL 6
REMARK VINA RESULT:      -7.2      1.663      2.133
REMARK  5 active torsions:
REMARK  status: ('A' for Active; 'I' for Inactive)
REMARK    1  A    between atoms: C_3  and  N_4 
REMARK       I    between atoms: N_4  and  C_5 
REMARK       I    between atoms: C_5  and  N_6 
REMARK    2  A    between atoms: N_6  and  C_7 
REMARK    3  A    between atoms: C_7  and  C_8 
REMARK    4  A    between atoms: C_11  and  N_12 
REMARK       I    between atoms: N_12  and  C_13 
REMARK    5  A    between atoms: C_13  and  C_14 
ROOT
HETATM    1  C   UNL     1     -42.711  59.543 -52.133  1.00  0.00    -0.040 A 
HETATM    2  C   UNL     1     -41.561  59.354 -52.907  1.00  0.00     0.011 A 
HETATM    3  C   UNL     1     -41.001  58.079 -53.060  1.00  0.00     0.030 A 
HETATM    4  C   UNL     1     -41.581  56.970 -52.445  1.00  0.00     0.035 A 
HETATM    5  C   UNL     1     -42.745  57.156 -51.687  1.00  0.00     0.030 A 
HETATM    6  C   UNL     1     -43.308  58.428 -51.535  1.00  0.00     0.011 A 
ENDROOT
BRANCH   1   7
HETATM    7  C   UNL     1     -43.307  60.916 -51.974  1.00  0.00     0.162 C 
BRANCH   7   8
HETATM    8  N   UNL     1     -44.500  60.872 -51.160  1.00  0.00    -0.339 N 
HETATM    9  C   UNL     1     -44.657  61.807 -50.158  1.00  0.00     0.321 C 
HETATM   10  N   UNL     1     -45.817  61.569 -49.457  1.00  0.00    -0.307 N 
HETATM   11  O   UNL     1     -43.870  62.726 -49.984  1.00  0.00    -0.247 OA
HETATM   12  H   UNL     1     -46.542  61.179 -50.045  1.00  0.00     0.170 HD
HETATM   13  H   UNL     1     -44.871  59.956 -50.956  1.00  0.00     0.164 HD
BRANCH  10  14
HETATM   14  C   UNL     1     -46.260  62.274 -48.312  1.00  0.00     0.059 A 
HETATM   15  C   UNL     1     -45.823  62.067 -46.994  1.00  0.00    -0.032 A 
HETATM   16  C   UNL     1     -44.852  61.003 -46.571  1.00  0.00     0.050 C 
HETATM   17  C   UNL     1     -46.346  62.894 -45.984  1.00  0.00     0.028 A 
HETATM   18  C   UNL     1     -47.314  63.835 -46.299  1.00  0.00     0.117 A 
HETATM   19  N   UNL     1     -47.804  64.009 -47.539  1.00  0.00    -0.271 NA
HETATM   20  C   UNL     1     -47.267  63.228 -48.506  1.00  0.00     0.146 A 
ENDBRANCH  10  14
ENDBRANCH   7   8
ENDBRANCH   1   7
BRANCH   4  21
HETATM   21  N   UNL     1     -41.075  55.654 -52.537  1.00  0.00    -0.323 N 
HETATM   22  C   UNL     1     -41.571  54.617 -53.307  1.00  0.00     0.257 C 
HETATM   23  O   UNL     1     -42.520  54.676 -54.081  1.00  0.00    -0.267 OA
HETATM   24  H   UNL     1     -40.222  55.489 -52.023  1.00  0.00     0.169 HD
BRANCH  22  25
HETATM   25  C   UNL     1     -40.855  53.319 -53.188  1.00  0.00     0.049 A 
HETATM   26  C   UNL     1     -40.921  52.425 -54.251  1.00  0.00     0.133 A 
HETATM   27  N   UNL     1     -40.313  51.211 -54.263  1.00  0.00    -0.272 NA
HETATM   28  C   UNL     1     -39.621  50.867 -53.158  1.00  0.00     0.116 A 
HETATM   29  C   UNL     1     -39.507  51.678 -52.041  1.00  0.00     0.020 A 
HETATM   30  C   UNL     1     -40.139  52.923 -52.053  1.00  0.00     0.020 A 
ENDBRANCH  22  25
ENDBRANCH   4  21
TORSDOF 5
ENDMDL
MODEL 7
REMARK VINA RESULT:      -7.1     17.998     21.050
REMARK  5 active torsions:
REMARK  status: ('A' for Active; 'I' for Inactive)
REMARK    1  A    between atoms: C_3  and  N_4 
REMARK       I    between atoms: N_4  and  C_5 
REMARK       I    between atoms: C_5  and  N_6 
REMARK    2  A    between atoms: N_6  and  C_7 
REMARK    3  A    between atoms: C_7  and  C_8 
REMARK    4  A    between atoms: C_11  and  N_12 
REMARK       I    between atoms: N_12  and  C_13 
REMARK    5  A    between atoms: C_13  and  C_14 
ROOT
HETATM    1  C   UNL     1     -35.326  41.620 -53.289  1.00  0.00    -0.040 A 
HETATM    2  C   UNL     1     -34.924  40.281 -53.336  1.00  0.00     0.011 A 
HETATM    3  C   UNL     1     -34.343  39.668 -52.219  1.00  0.00     0.030 A 
HETATM    4  C   UNL     1     -34.157  40.380 -51.034  1.00  0.00     0.035 A 
HETATM    5  C   UNL     1     -34.580  41.715 -50.980  1.00  0.00     0.030 A 
HETATM    6  C   UNL     1     -35.162  42.329 -52.094  1.00  0.00     0.011 A 
ENDROOT
BRANCH   1   7
HETATM    7  C   UNL     1     -35.950  42.272 -54.493  1.00  0.00     0.162 C 
BRANCH   7   8
HETATM    8  N   UNL     1     -35.462  41.677 -55.716  1.00  0.00    -0.339 N 
HETATM    9  C   UNL     1     -36.374  41.218 -56.644  1.00  0.00     0.321 C 
HETATM   10  N   UNL     1     -35.724  40.634 -57.708  1.00  0.00    -0.307 N 
HETATM   11  O   UNL     1     -37.580  41.369 -56.515  1.00  0.00    -0.247 OA
HETATM   12  H   UNL     1     -34.834  41.075 -57.896  1.00  0.00     0.170 HD
HETATM   13  H   UNL     1     -34.611  41.139 -55.645  1.00  0.00     0.164 HD
BRANCH  10  14
HETATM   14  C   UNL     1     -36.337  39.981 -58.804  1.00  0.00     0.059 A 
HETATM   15  C   UNL     1     -37.045  40.601 -59.844  1.00  0.00    -0.032 A 
HETATM   16  C   UNL     1     -37.331  42.073 -59.927  1.00  0.00     0.050 C 
HETATM   17  C   UNL     1     -37.552  39.792 -60.878  1.00  0.00     0.028 A 
HETATM   18  C   UNL     1     -37.399  38.417 -60.810  1.00  0.00     0.117 A 
HETATM   19  N   UNL     1     -36.786  37.787 -59.792  1.00  0.00    -0.271 NA
HETATM   20  C   UNL     1     -36.276  38.582 -58.822  1.00  0.00     0.146 A 
ENDBRANCH  10  14
ENDBRANCH   7   8
ENDBRANCH   1   7
BRANCH   4  21
HETATM   21  N   UNL     1     -33.568  39.842 -49.867  1.00  0.00    -0.323 N 
HETATM   22  C   UNL     1     -32.218  39.725 -49.587  1.00  0.00     0.257 C 
HETATM   23  O   UNL     1     -31.293  40.111 -50.293  1.00  0.00    -0.267 OA
HETATM   24  H   UNL     1     -34.221  39.573 -49.145  1.00  0.00     0.169 HD
BRANCH  22  25
HETATM   25  C   UNL     1     -31.877  39.088 -48.287  1.00  0.00     0.049 A 
HETATM   26  C   UNL     1     -32.506  37.894 -47.950  1.00  0.00     0.133 A 
HETATM   27  N   UNL     1     -32.282  37.217 -46.794  1.00  0.00    -0.272 NA
HETATM   28  C   UNL     1     -31.404  37.765 -45.929  1.00  0.00     0.116 A 
HETATM   29  C   UNL     1     -30.739  38.957 -46.163  1.00  0.00     0.020 A 
HETATM   30  C   UNL     1     -30.984  39.633 -47.360  1.00  0.00     0.020 A 
ENDBRANCH  22  25
ENDBRANCH   4  21
TORSDOF 5
ENDMDL
MODEL 8
REMARK VINA RESULT:      -7.1      2.620      3.479
REMARK  5 active torsions:
REMARK  status: ('A' for Active; 'I' for Inactive)
REMARK    1  A    between atoms: C_3  and  N_4 
REMARK       I    between atoms: N_4  and  C_5 
REMARK       I    between atoms: C_5  and  N_6 
REMARK    2  A    between atoms: N_6  and  C_7 
REMARK    3  A    between atoms: C_7  and  C_8 
REMARK    4  A    between atoms: C_11  and  N_12 
REMARK       I    between atoms: N_12  and  C_13 
REMARK    5  A    between atoms: C_13  and  C_14 
ROOT
HETATM    1  C   UNL     1     -43.825  57.411 -55.591  1.00  0.00    -0.040 A 
HETATM    2  C   UNL     1     -44.338  56.693 -54.505  1.00  0.00     0.011 A 
HETATM    3  C   UNL     1     -43.733  55.503 -54.083  1.00  0.00     0.030 A 
HETATM    4  C   UNL     1     -42.604  55.009 -54.735  1.00  0.00     0.035 A 
HETATM    5  C   UNL     1     -42.077  55.739 -55.809  1.00  0.00     0.030 A 
HETATM    6  C   UNL     1     -42.677  56.930 -56.231  1.00  0.00     0.011 A 
ENDROOT
BRANCH   1   7
HETATM    7  C   UNL     1     -44.479  58.690 -56.038  1.00  0.00     0.162 C 
BRANCH   7   8
HETATM    8  N   UNL     1     -45.492  59.111 -55.097  1.00  0.00    -0.339 N 
HETATM    9  C   UNL     1     -45.118  59.892 -54.023  1.00  0.00     0.321 C 
HETATM   10  N   UNL     1     -46.201  60.140 -53.210  1.00  0.00    -0.307 N 
HETATM   11  O   UNL     1     -43.981  60.316 -53.879  1.00  0.00    -0.247 OA
HETATM   12  H   UNL     1     -47.063  60.200 -53.736  1.00  0.00     0.170 HD
HETATM   13  H   UNL     1     -46.236  58.454 -54.914  1.00  0.00     0.164 HD
BRANCH  10  14
HETATM   14  C   UNL     1     -46.178  60.834 -51.977  1.00  0.00     0.059 A 
HETATM   15  C   UNL     1     -46.347  62.217 -51.803  1.00  0.00    -0.032 A 
HETATM   16  C   UNL     1     -46.513  63.206 -52.920  1.00  0.00     0.050 C 
HETATM   17  C   UNL     1     -46.336  62.728 -50.493  1.00  0.00     0.028 A 
HETATM   18  C   UNL     1     -46.095  61.876 -49.426  1.00  0.00     0.117 A 
HETATM   19  N   UNL     1     -45.860  60.560 -49.565  1.00  0.00    -0.271 NA
HETATM   20  C   UNL     1     -45.906  60.078 -50.830  1.00  0.00     0.146 A 
ENDBRANCH  10  14
ENDBRANCH   7   8
ENDBRANCH   1   7
BRANCH   4  21
HETATM   21  N   UNL     1     -41.941  53.812 -54.383  1.00  0.00    -0.323 N 
HETATM   22  C   UNL     1     -41.001  53.637 -53.382  1.00  0.00     0.257 C 
HETATM   23  O   UNL     1     -40.610  54.493 -52.595  1.00  0.00    -0.267 OA
HETATM   24  H   UNL     1     -42.244  52.992 -54.888  1.00  0.00     0.169 HD
BRANCH  22  25
HETATM   25  C   UNL     1     -40.441  52.266 -53.249  1.00  0.00     0.049 A 
HETATM   26  C   UNL     1     -40.549  51.399 -54.331  1.00  0.00     0.133 A 
HETATM   27  N   UNL     1     -40.080  50.124 -54.334  1.00  0.00    -0.272 NA
HETATM   28  C   UNL     1     -39.492  49.690 -53.201  1.00  0.00     0.116 A 
HETATM   29  C   UNL     1     -39.349  50.470 -52.064  1.00  0.00     0.020 A 
HETATM   30  C   UNL     1     -39.837  51.778 -52.087  1.00  0.00     0.020 A 
ENDBRANCH  22  25
ENDBRANCH   4  21
TORSDOF 5
ENDMDL
MODEL 9
REMARK VINA RESULT:      -7.0      4.285     10.274
REMARK  5 active torsions:
REMARK  status: ('A' for Active; 'I' for Inactive)
REMARK    1  A    between atoms: C_3  and  N_4 
REMARK       I    between atoms: N_4  and  C_5 
REMARK       I    between atoms: C_5  and  N_6 
REMARK    2  A    between atoms: N_6  and  C_7 
REMARK    3  A    between atoms: C_7  and  C_8 
REMARK    4  A    between atoms: C_11  and  N_12 
REMARK       I    between atoms: N_12  and  C_13 
REMARK    5  A    between atoms: C_13  and  C_14 
ROOT
HETATM    1  C   UNL     1     -42.145  56.913 -50.841  1.00  0.00    -0.040 A 
HETATM    2  C   UNL     1     -43.473  56.944 -51.283  1.00  0.00     0.011 A 
HETATM    3  C   UNL     1     -43.900  57.912 -52.200  1.00  0.00     0.030 A 
HETATM    4  C   UNL     1     -43.010  58.866 -52.693  1.00  0.00     0.035 A 
HETATM    5  C   UNL     1     -41.676  58.823 -52.266  1.00  0.00     0.030 A 
HETATM    6  C   UNL     1     -41.245  57.854 -51.354  1.00  0.00     0.011 A 
ENDROOT
BRANCH   1   7
HETATM    7  C   UNL     1     -41.693  55.869 -49.857  1.00  0.00     0.162 C 
BRANCH   7   8
HETATM    8  N   UNL     1     -40.634  55.057 -50.412  1.00  0.00    -0.339 N 
HETATM    9  C   UNL     1     -40.968  53.941 -51.150  1.00  0.00     0.321 C 
HETATM   10  N   UNL     1     -39.833  53.267 -51.542  1.00  0.00    -0.307 N 
HETATM   11  O   UNL     1     -42.124  53.655 -51.428  1.00  0.00    -0.247 OA
HETATM   12  H   UNL     1     -39.057  53.895 -51.705  1.00  0.00     0.170 HD
HETATM   13  H   UNL     1     -39.796  54.972 -49.857  1.00  0.00     0.164 HD
BRANCH  10  14
HETATM   14  C   UNL     1     -39.792  52.036 -52.240  1.00  0.00     0.059 A 
HETATM   15  C   UNL     1     -39.957  51.865 -53.623  1.00  0.00    -0.032 A 
HETATM   16  C   UNL     1     -40.277  52.967 -54.591  1.00  0.00     0.050 C 
HETATM   17  C   UNL     1     -39.842  50.565 -54.150  1.00  0.00     0.028 A 
HETATM   18  C   UNL     1     -39.638  49.494 -53.295  1.00  0.00     0.117 A 
HETATM   19  N   UNL     1     -39.546  49.617 -51.959  1.00  0.00    -0.271 NA
HETATM   20  C   UNL     1     -39.626  50.877 -51.471  1.00  0.00     0.146 A 
ENDBRANCH  10  14
ENDBRANCH   7   8
ENDBRANCH   1   7
BRANCH   4  21
HETATM   21  N   UNL     1     -43.362  59.884 -53.608  1.00  0.00    -0.323 N 
HETATM   22  C   UNL     1     -43.516  59.763 -54.978  1.00  0.00     0.257 C 
HETATM   23  O   UNL     1     -43.413  58.731 -55.632  1.00  0.00    -0.267 OA
HETATM   24  H   UNL     1     -43.579  60.777 -53.190  1.00  0.00     0.169 HD
BRANCH  22  25
HETATM   25  C   UNL     1     -43.863  61.013 -55.705  1.00  0.00     0.049 A 
HETATM   26  C   UNL     1     -42.916  61.568 -56.559  1.00  0.00     0.133 A 
HETATM   27  N   UNL     1     -43.111  62.704 -57.276  1.00  0.00    -0.272 NA
HETATM   28  C   UNL     1     -44.299  63.324 -57.122  1.00  0.00     0.116 A 
HETATM   29  C   UNL     1     -45.302  62.861 -56.285  1.00  0.00     0.020 A 
HETATM   30  C   UNL     1     -45.078  61.689 -55.560  1.00  0.00     0.020 A 
ENDBRANCH  22  25
ENDBRANCH   4  21
TORSDOF 5
ENDMDL
MODEL 10
REMARK VINA RESULT:      -7.0     18.190     21.136
REMARK  5 active torsions:
REMARK  status: ('A' for Active; 'I' for Inactive)
REMARK    1  A    between atoms: C_3  and  N_4 
REMARK       I    between atoms: N_4  and  C_5 
REMARK       I    between atoms: C_5  and  N_6 
REMARK    2  A    between atoms: N_6  and  C_7 
REMARK    3  A    between atoms: C_7  and  C_8 
REMARK    4  A    between atoms: C_11  and  N_12 
REMARK       I    between atoms: N_12  and  C_13 
REMARK    5  A    between atoms: C_13  and  C_14 
ROOT
HETATM    1  C   UNL     1     -35.087  41.946 -55.336  1.00  0.00    -0.040 A 
HETATM    2  C   UNL     1     -35.721  42.442 -54.191  1.00  0.00     0.011 A 
HETATM    3  C   UNL     1     -35.425  41.920 -52.926  1.00  0.00     0.030 A 
HETATM    4  C   UNL     1     -34.490  40.895 -52.781  1.00  0.00     0.035 A 
HETATM    5  C   UNL     1     -33.840  40.413 -53.925  1.00  0.00     0.030 A 
HETATM    6  C   UNL     1     -34.131  40.935 -55.189  1.00  0.00     0.011 A 
ENDROOT
BRANCH   1   7
HETATM    7  C   UNL     1     -35.409  42.513 -56.693  1.00  0.00     0.162 C 
BRANCH   7   8
HETATM    8  N   UNL     1     -35.353  41.488 -57.709  1.00  0.00    -0.339 N 
HETATM    9  C   UNL     1     -36.535  40.974 -58.203  1.00  0.00     0.321 C 
HETATM   10  N   UNL     1     -36.280  39.973 -59.113  1.00  0.00    -0.307 N 
HETATM   11  O   UNL     1     -37.630  41.410 -57.879  1.00  0.00    -0.247 OA
HETATM   12  H   UNL     1     -35.426  40.138 -59.628  1.00  0.00     0.170 HD
HETATM   13  H   UNL     1     -34.593  40.828 -57.641  1.00  0.00     0.164 HD
BRANCH  10  14
HETATM   14  C   UNL     1     -37.248  39.165 -59.758  1.00  0.00     0.059 A 
HETATM   15  C   UNL     1     -37.940  38.088 -59.184  1.00  0.00    -0.032 A 
HETATM   16  C   UNL     1     -37.712  37.566 -57.795  1.00  0.00     0.050 C 
HETATM   17  C   UNL     1     -38.901  37.423 -59.967  1.00  0.00     0.028 A 
HETATM   18  C   UNL     1     -39.091  37.800 -61.287  1.00  0.00     0.117 A 
HETATM   19  N   UNL     1     -38.395  38.782 -61.886  1.00  0.00    -0.271 NA
HETATM   20  C   UNL     1     -37.497  39.434 -61.110  1.00  0.00     0.146 A 
ENDBRANCH  10  14
ENDBRANCH   7   8
ENDBRANCH   1   7
BRANCH   4  21
HETATM   21  N   UNL     1     -34.144  40.304 -51.545  1.00  0.00    -0.323 N 
HETATM   22  C   UNL     1     -32.893  40.266 -50.955  1.00  0.00     0.257 C 
HETATM   23  O   UNL     1     -31.869  40.783 -51.389  1.00  0.00    -0.267 OA
HETATM   24  H   UNL     1     -34.920  39.924 -51.022  1.00  0.00     0.169 HD
BRANCH  22  25
HETATM   25  C   UNL     1     -32.808  39.546 -49.656  1.00  0.00     0.049 A 
HETATM   26  C   UNL     1     -33.873  38.735 -49.279  1.00  0.00     0.133 A 
HETATM   27  N   UNL     1     -33.916  38.028 -48.120  1.00  0.00    -0.272 NA
HETATM   28  C   UNL     1     -32.858  38.150 -47.293  1.00  0.00     0.116 A 
HETATM   29  C   UNL     1     -31.757  38.944 -47.569  1.00  0.00     0.020 A 
HETATM   30  C   UNL     1     -31.734  39.659 -48.768  1.00  0.00     0.020 A 
ENDBRANCH  22  25
ENDBRANCH   4  21
TORSDOF 5
ENDMDL
