MODEL 1
REMARK VINA RESULT:      -9.1      0.000      0.000
REMARK  7 active torsions:
REMARK  status: ('A' for Active; 'I' for Inactive)
REMARK    1  A    between atoms: C_8  and  C_9 
REMARK    2  A    between atoms: C_9  and  C_10 
REMARK    3  A    between atoms: C_10  and  N_11 
REMARK    4  A    between atoms: C_10  and  C_19 
REMARK       I    between atoms: N_11  and  C_12 
REMARK    5  A    between atoms: C_12  and  C_13 
REMARK       I    between atoms: C_19  and  N_20 
REMARK    6  A    between atoms: N_20  and  N_21 
REMARK       I    between atoms: N_21  and  C_22 
REMARK       I    between atoms: C_22  and  N_23 
REMARK    7  A    between atoms: N_23  and  C_24 
ROOT
HETATM    1  C   UNL     1     -42.192  55.223 -54.216  1.00  0.00     0.183 C 
ENDROOT
BRANCH   1   2
HETATM    2  C   UNL     1     -40.911  54.400 -54.456  1.00  0.00     0.076 C 
BRANCH   2   3
HETATM    3  C   UNL     1     -40.524  53.515 -53.307  1.00  0.00    -0.028 A 
HETATM    4  C   UNL     1     -40.206  52.118 -53.345  1.00  0.00    -0.002 A 
HETATM    5  C   UNL     1     -40.135  51.149 -54.369  1.00  0.00     0.014 A 
HETATM    6  C   UNL     1     -39.921  51.721 -52.038  1.00  0.00     0.042 A 
HETATM    7  C   UNL     1     -39.802  49.828 -54.047  1.00  0.00     0.001 A 
HETATM    8  C   UNL     1     -39.530  49.465 -52.732  1.00  0.00     0.002 A 
HETATM    9  C   UNL     1     -39.578  50.406 -51.701  1.00  0.00     0.030 A 
HETATM   10  N   UNL     1     -40.036  52.834 -51.240  1.00  0.00    -0.365 N 
HETATM   11  H   UNL     1     -39.869  52.846 -50.244  1.00  0.00     0.165 HD
HETATM   12  C   UNL     1     -40.405  53.916 -51.990  1.00  0.00     0.096 A 
ENDBRANCH   2   3
ENDBRANCH   1   2
BRANCH   1  13
HETATM   13  N   UNL     1     -42.017  56.375 -53.328  1.00  0.00    -0.343 N 
HETATM   14  C   UNL     1     -42.821  56.596 -52.229  1.00  0.00     0.259 C 
HETATM   15  O   UNL     1     -43.506  55.692 -51.758  1.00  0.00    -0.267 OA
HETATM   16  H   UNL     1     -41.657  57.218 -53.762  1.00  0.00     0.163 HD
BRANCH  14  17
HETATM   17  C   UNL     1     -42.767  57.940 -51.666  1.00  0.00     0.072 A 
HETATM   18  S   UNL     1     -41.345  58.571 -50.939  1.00  0.00    -0.097 SA
HETATM   19  C   UNL     1     -42.105  60.055 -50.567  1.00  0.00     0.050 A 
HETATM   20  C   UNL     1     -43.413  60.085 -50.994  1.00  0.00     0.009 A 
HETATM   21  C   UNL     1     -43.793  58.867 -51.629  1.00  0.00     0.025 A 
ENDBRANCH  14  17
ENDBRANCH   1  13
BRANCH   1  22
HETATM   22  C   UNL     1     -42.876  55.516 -55.566  1.00  0.00     0.259 C 
HETATM   23  N   UNL     1     -43.509  56.743 -55.649  1.00  0.00    -0.264 N 
HETATM   24  H   UNL     1     -43.133  57.519 -55.103  1.00  0.00     0.190 HD
HETATM   25  O   UNL     1     -43.001  54.656 -56.441  1.00  0.00    -0.269 OA
BRANCH  23  26
HETATM   26  N   UNL     1     -44.026  57.096 -56.906  1.00  0.00    -0.249 N 
HETATM   27  C   UNL     1     -43.276  57.881 -57.733  1.00  0.00     0.339 C 
HETATM   28  N   UNL     1     -43.822  58.238 -58.931  1.00  0.00    -0.308 N 
HETATM   29  O   UNL     1     -42.166  58.306 -57.412  1.00  0.00    -0.245 OA
HETATM   30  H   UNL     1     -43.283  58.974 -59.372  1.00  0.00     0.170 HD
HETATM   31  H   UNL     1     -45.037  57.146 -56.957  1.00  0.00     0.192 HD
BRANCH  28  32
HETATM   32  C   UNL     1     -44.937  57.756 -59.642  1.00  0.00     0.036 A 
HETATM   33  C   UNL     1     -45.095  56.433 -60.064  1.00  0.00     0.031 A 
HETATM   34  C   UNL     1     -46.248  56.038 -60.755  1.00  0.00     0.026 A 
HETATM   35  C   UNL     1     -47.238  56.972 -61.047  1.00  0.00     0.034 A 
HETATM   36 CL   UNL     1     -48.655  56.486 -61.890  1.00  0.00    -0.084 Cl
HETATM   37  C   UNL     1     -47.077  58.301 -60.669  1.00  0.00     0.026 A 
HETATM   38  C   UNL     1     -45.925  58.692 -59.977  1.00  0.00     0.031 A 
ENDBRANCH  28  32
ENDBRANCH  23  26
ENDBRANCH   1  22
TORSDOF 7
ENDMDL
MODEL 2
REMARK VINA RESULT:      -9.0      4.637      8.167
REMARK  7 active torsions:
REMARK  status: ('A' for Active; 'I' for Inactive)
REMARK    1  A    between atoms: C_8  and  C_9 
REMARK    2  A    between atoms: C_9  and  C_10 
REMARK    3  A    between atoms: C_10  and  N_11 
REMARK    4  A    between atoms: C_10  and  C_19 
REMARK       I    between atoms: N_11  and  C_12 
REMARK    5  A    between atoms: C_12  and  C_13 
REMARK       I    between atoms: C_19  and  N_20 
REMARK    6  A    between atoms: N_20  and  N_21 
REMARK       I    between atoms: N_21  and  C_22 
REMARK       I    between atoms: C_22  and  N_23 
REMARK    7  A    between atoms: N_23  and  C_24 
ROOT
HETATM    1  C   UNL     1     -42.045  57.161 -52.087  1.00  0.00     0.183 C 
ENDROOT
BRANCH   1   2
HETATM    2  C   UNL     1     -42.567  55.888 -51.393  1.00  0.00     0.076 C 
BRANCH   2   3
HETATM    3  C   UNL     1     -41.529  54.821 -51.201  1.00  0.00    -0.028 A 
HETATM    4  C   UNL     1     -41.101  53.834 -52.147  1.00  0.00    -0.002 A 
HETATM    5  C   UNL     1     -41.451  53.527 -53.480  1.00  0.00     0.014 A 
HETATM    6  C   UNL     1     -40.129  53.052 -51.522  1.00  0.00     0.042 A 
HETATM    7  C   UNL     1     -40.833  52.449 -54.124  1.00  0.00     0.001 A 
HETATM    8  C   UNL     1     -39.872  51.686 -53.469  1.00  0.00     0.002 A 
HETATM    9  C   UNL     1     -39.496  51.976 -52.155  1.00  0.00     0.030 A 
HETATM   10  N   UNL     1     -39.953  53.557 -50.256  1.00  0.00    -0.365 N 
HETATM   11  H   UNL     1     -39.296  53.196 -49.579  1.00  0.00     0.165 HD
HETATM   12  C   UNL     1     -40.794  54.616 -50.049  1.00  0.00     0.096 A 
ENDBRANCH   2   3
ENDBRANCH   1   2
BRANCH   1  13
HETATM   13  N   UNL     1     -42.176  57.154 -53.547  1.00  0.00    -0.343 N 
HETATM   14  C   UNL     1     -43.386  56.976 -54.185  1.00  0.00     0.259 C 
HETATM   15  O   UNL     1     -44.444  57.130 -53.581  1.00  0.00    -0.267 OA
HETATM   16  H   UNL     1     -41.374  56.807 -54.061  1.00  0.00     0.163 HD
BRANCH  14  17
HETATM   17  C   UNL     1     -43.310  56.633 -55.600  1.00  0.00     0.072 A 
HETATM   18  S   UNL     1     -43.709  57.758 -56.836  1.00  0.00    -0.097 SA
HETATM   19  C   UNL     1     -43.391  56.622 -58.072  1.00  0.00     0.050 A 
HETATM   20  C   UNL     1     -42.977  55.411 -57.566  1.00  0.00     0.009 A 
HETATM   21  C   UNL     1     -42.928  55.420 -56.142  1.00  0.00     0.025 A 
ENDBRANCH  14  17
ENDBRANCH   1  13
BRANCH   1  22
HETATM   22  C   UNL     1     -42.604  58.405 -51.371  1.00  0.00     0.259 C 
HETATM   23  N   UNL     1     -43.927  58.311 -50.977  1.00  0.00    -0.264 N 
HETATM   24  H   UNL     1     -44.295  57.391 -50.736  1.00  0.00     0.190 HD
HETATM   25  O   UNL     1     -41.978  59.466 -51.309  1.00  0.00    -0.269 OA
BRANCH  23  26
HETATM   26  N   UNL     1     -44.426  59.373 -50.206  1.00  0.00    -0.249 N 
HETATM   27  C   UNL     1     -45.488  60.090 -50.675  1.00  0.00     0.339 C 
HETATM   28  N   UNL     1     -45.925  61.140 -49.921  1.00  0.00    -0.308 N 
HETATM   29  O   UNL     1     -46.018  59.850 -51.761  1.00  0.00    -0.245 OA
HETATM   30  H   UNL     1     -46.569  61.721 -50.444  1.00  0.00     0.170 HD
HETATM   31  H   UNL     1     -43.745  59.830 -49.609  1.00  0.00     0.192 HD
BRANCH  28  32
HETATM   32  C   UNL     1     -45.670  61.516 -48.588  1.00  0.00     0.036 A 
HETATM   33  C   UNL     1     -45.768  60.655 -47.491  1.00  0.00     0.031 A 
HETATM   34  C   UNL     1     -45.480  61.114 -46.199  1.00  0.00     0.026 A 
HETATM   35  C   UNL     1     -45.116  62.441 -45.997  1.00  0.00     0.034 A 
HETATM   36 CL   UNL     1     -44.757  63.002 -44.411  1.00  0.00    -0.084 Cl
HETATM   37  C   UNL     1     -45.054  63.319 -47.074  1.00  0.00     0.026 A 
HETATM   38  C   UNL     1     -45.339  62.859 -48.364  1.00  0.00     0.031 A 
ENDBRANCH  28  32
ENDBRANCH  23  26
ENDBRANCH   1  22
TORSDOF 7
ENDMDL
MODEL 3
REMARK VINA RESULT:      -9.0      2.379      3.449
REMARK  7 active torsions:
REMARK  status: ('A' for Active; 'I' for Inactive)
REMARK    1  A    between atoms: C_8  and  C_9 
REMARK    2  A    between atoms: C_9  and  C_10 
REMARK    3  A    between atoms: C_10  and  N_11 
REMARK    4  A    between atoms: C_10  and  C_19 
REMARK       I    between atoms: N_11  and  C_12 
REMARK    5  A    between atoms: C_12  and  C_13 
REMARK       I    between atoms: C_19  and  N_20 
REMARK    6  A    between atoms: N_20  and  N_21 
REMARK       I    between atoms: N_21  and  C_22 
REMARK       I    between atoms: C_22  and  N_23 
REMARK    7  A    between atoms: N_23  and  C_24 
ROOT
HETATM    1  C   UNL     1     -43.277  57.584 -51.740  1.00  0.00     0.183 C 
ENDROOT
BRANCH   1   2
HETATM    2  C   UNL     1     -41.807  57.156 -51.565  1.00  0.00     0.076 C 
BRANCH   2   3
HETATM    3  C   UNL     1     -41.575  55.679 -51.701  1.00  0.00    -0.028 A 
HETATM    4  C   UNL     1     -41.072  54.973 -52.841  1.00  0.00    -0.002 A 
HETATM    5  C   UNL     1     -40.643  55.355 -54.130  1.00  0.00     0.014 A 
HETATM    6  C   UNL     1     -41.040  53.617 -52.509  1.00  0.00     0.042 A 
HETATM    7  C   UNL     1     -40.218  54.376 -55.035  1.00  0.00     0.001 A 
HETATM    8  C   UNL     1     -40.204  53.033 -54.674  1.00  0.00     0.002 A 
HETATM    9  C   UNL     1     -40.610  52.626 -53.400  1.00  0.00     0.030 A 
HETATM   10  N   UNL     1     -41.481  53.505 -51.212  1.00  0.00    -0.365 N 
HETATM   11  H   UNL     1     -41.547  52.636 -50.701  1.00  0.00     0.165 HD
HETATM   12  C   UNL     1     -41.811  54.737 -50.718  1.00  0.00     0.096 A 
ENDBRANCH   2   3
ENDBRANCH   1   2
BRANCH   1  13
HETATM   13  N   UNL     1     -43.659  58.778 -50.981  1.00  0.00    -0.343 N 
HETATM   14  C   UNL     1     -44.966  59.059 -50.644  1.00  0.00     0.259 C 
HETATM   15  O   UNL     1     -45.828  58.185 -50.681  1.00  0.00    -0.267 OA
HETATM   16  H   UNL     1     -43.074  59.595 -51.119  1.00  0.00     0.163 HD
BRANCH  14  17
HETATM   17  C   UNL     1     -45.229  60.429 -50.221  1.00  0.00     0.072 A 
HETATM   18  S   UNL     1     -46.233  61.489 -51.126  1.00  0.00    -0.097 SA
HETATM   19  C   UNL     1     -45.996  62.773 -50.023  1.00  0.00     0.050 A 
HETATM   20  C   UNL     1     -45.180  62.409 -48.976  1.00  0.00     0.009 A 
HETATM   21  C   UNL     1     -44.741  61.058 -49.090  1.00  0.00     0.025 A 
ENDBRANCH  14  17
ENDBRANCH   1  13
BRANCH   1  22
HETATM   22  C   UNL     1     -43.632  57.603 -53.240  1.00  0.00     0.259 C 
HETATM   23  N   UNL     1     -42.759  58.318 -54.041  1.00  0.00    -0.264 N 
HETATM   24  H   UNL     1     -41.779  58.371 -53.760  1.00  0.00     0.190 HD
HETATM   25  O   UNL     1     -44.703  57.165 -53.669  1.00  0.00    -0.269 OA
BRANCH  23  26
HETATM   26  N   UNL     1     -42.979  58.244 -55.426  1.00  0.00    -0.249 N 
HETATM   27  C   UNL     1     -42.354  59.140 -56.243  1.00  0.00     0.339 C 
HETATM   28  N   UNL     1     -42.619  59.067 -57.580  1.00  0.00    -0.308 N 
HETATM   29  O   UNL     1     -41.614  60.024 -55.810  1.00  0.00    -0.245 OA
HETATM   30  H   UNL     1     -42.275  59.888 -58.064  1.00  0.00     0.170 HD
HETATM   31  H   UNL     1     -43.880  57.867 -55.699  1.00  0.00     0.192 HD
BRANCH  28  32
HETATM   32  C   UNL     1     -43.230  58.074 -58.369  1.00  0.00     0.036 A 
HETATM   33  C   UNL     1     -44.601  58.006 -58.633  1.00  0.00     0.031 A 
HETATM   34  C   UNL     1     -45.120  56.988 -59.444  1.00  0.00     0.026 A 
HETATM   35  C   UNL     1     -44.272  56.020 -59.974  1.00  0.00     0.034 A 
HETATM   36 CL   UNL     1     -44.909  54.774 -60.973  1.00  0.00    -0.084 Cl
HETATM   37  C   UNL     1     -42.911  56.052 -59.686  1.00  0.00     0.026 A 
HETATM   38  C   UNL     1     -42.395  57.070 -58.878  1.00  0.00     0.031 A 
ENDBRANCH  28  32
ENDBRANCH  23  26
ENDBRANCH   1  22
TORSDOF 7
ENDMDL
MODEL 4
REMARK VINA RESULT:      -8.6      3.619      7.196
REMARK  7 active torsions:
REMARK  status: ('A' for Active; 'I' for Inactive)
REMARK    1  A    between atoms: C_8  and  C_9 
REMARK    2  A    between atoms: C_9  and  C_10 
REMARK    3  A    between atoms: C_10  and  N_11 
REMARK    4  A    between atoms: C_10  and  C_19 
REMARK       I    between atoms: N_11  and  C_12 
REMARK    5  A    between atoms: C_12  and  C_13 
REMARK       I    between atoms: C_19  and  N_20 
REMARK    6  A    between atoms: N_20  and  N_21 
REMARK       I    between atoms: N_21  and  C_22 
REMARK       I    between atoms: C_22  and  N_23 
REMARK    7  A    between atoms: N_23  and  C_24 
ROOT
HETATM    1  C   UNL     1     -43.280  56.127 -54.146  1.00  0.00     0.183 C 
ENDROOT
BRANCH   1   2
HETATM    2  C   UNL     1     -43.619  54.780 -53.479  1.00  0.00     0.076 C 
BRANCH   2   3
HETATM    3  C   UNL     1     -42.510  54.212 -52.641  1.00  0.00    -0.028 A 
HETATM    4  C   UNL     1     -41.513  53.261 -53.035  1.00  0.00    -0.002 A 
HETATM    5  C   UNL     1     -41.222  52.574 -54.232  1.00  0.00     0.014 A 
HETATM    6  C   UNL     1     -40.704  53.022 -51.922  1.00  0.00     0.042 A 
HETATM    7  C   UNL     1     -40.154  51.671 -54.268  1.00  0.00     0.001 A 
HETATM    8  C   UNL     1     -39.371  51.452 -53.139  1.00  0.00     0.002 A 
HETATM    9  C   UNL     1     -39.627  52.128 -51.944  1.00  0.00     0.030 A 
HETATM   10  N   UNL     1     -41.173  53.814 -50.901  1.00  0.00    -0.365 N 
HETATM   11  H   UNL     1     -40.766  53.860 -49.977  1.00  0.00     0.165 HD
HETATM   12  C   UNL     1     -42.261  54.529 -51.319  1.00  0.00     0.096 A 
ENDBRANCH   2   3
ENDBRANCH   1   2
BRANCH   1  13
HETATM   13  N   UNL     1     -43.732  56.248 -55.535  1.00  0.00    -0.343 N 
HETATM   14  C   UNL     1     -42.956  55.856 -56.607  1.00  0.00     0.259 C 
HETATM   15  O   UNL     1     -41.998  55.105 -56.448  1.00  0.00    -0.267 OA
HETATM   16  H   UNL     1     -44.360  57.020 -55.731  1.00  0.00     0.163 HD
BRANCH  14  17
HETATM   17  C   UNL     1     -43.374  56.363 -57.908  1.00  0.00     0.072 A 
HETATM   18  S   UNL     1     -44.382  57.744 -58.071  1.00  0.00    -0.097 SA
HETATM   19  C   UNL     1     -44.388  57.629 -59.776  1.00  0.00     0.050 A 
HETATM   20  C   UNL     1     -43.630  56.571 -60.224  1.00  0.00     0.009 A 
HETATM   21  C   UNL     1     -43.044  55.844 -59.147  1.00  0.00     0.025 A 
ENDBRANCH  14  17
ENDBRANCH   1  13
BRANCH   1  22
HETATM   22  C   UNL     1     -43.683  57.282 -53.209  1.00  0.00     0.259 C 
HETATM   23  N   UNL     1     -42.628  57.943 -52.606  1.00  0.00    -0.264 N 
HETATM   24  H   UNL     1     -41.741  57.995 -53.106  1.00  0.00     0.190 HD
HETATM   25  O   UNL     1     -44.855  57.488 -52.883  1.00  0.00    -0.269 OA
BRANCH  23  26
HETATM   26  N   UNL     1     -42.954  59.083 -51.852  1.00  0.00    -0.249 N 
HETATM   27  C   UNL     1     -41.956  59.933 -51.473  1.00  0.00     0.339 C 
HETATM   28  N   UNL     1     -42.301  61.009 -50.709  1.00  0.00    -0.308 N 
HETATM   29  O   UNL     1     -40.775  59.731 -51.756  1.00  0.00    -0.245 OA
HETATM   30  H   UNL     1     -41.479  61.454 -50.317  1.00  0.00     0.170 HD
HETATM   31  H   UNL     1     -43.776  58.990 -51.265  1.00  0.00     0.192 HD
BRANCH  28  32
HETATM   32  C   UNL     1     -43.544  61.600 -50.415  1.00  0.00     0.036 A 
HETATM   33  C   UNL     1     -44.197  62.523 -51.238  1.00  0.00     0.031 A 
HETATM   34  C   UNL     1     -45.442  63.048 -50.870  1.00  0.00     0.026 A 
HETATM   35  C   UNL     1     -46.029  62.671 -49.666  1.00  0.00     0.034 A 
HETATM   36 CL   UNL     1     -47.560  63.312 -49.218  1.00  0.00    -0.084 Cl
HETATM   37  C   UNL     1     -45.372  61.785 -48.818  1.00  0.00     0.026 A 
HETATM   38  C   UNL     1     -44.130  61.260 -49.188  1.00  0.00     0.031 A 
ENDBRANCH  28  32
ENDBRANCH  23  26
ENDBRANCH   1  22
TORSDOF 7
ENDMDL
MODEL 5
REMARK VINA RESULT:      -8.6      3.327      6.691
REMARK  7 active torsions:
REMARK  status: ('A' for Active; 'I' for Inactive)
REMARK    1  A    between atoms: C_8  and  C_9 
REMARK    2  A    between atoms: C_9  and  C_10 
REMARK    3  A    between atoms: C_10  and  N_11 
REMARK    4  A    between atoms: C_10  and  C_19 
REMARK       I    between atoms: N_11  and  C_12 
REMARK    5  A    between atoms: C_12  and  C_13 
REMARK       I    between atoms: C_19  and  N_20 
REMARK    6  A    between atoms: N_20  and  N_21 
REMARK       I    between atoms: N_21  and  C_22 
REMARK       I    between atoms: C_22  and  N_23 
REMARK    7  A    between atoms: N_23  and  C_24 
ROOT
HETATM    1  C   UNL     1     -42.662  55.008 -55.519  1.00  0.00     0.183 C 
ENDROOT
BRANCH   1   2
HETATM    2  C   UNL     1     -42.853  53.688 -54.747  1.00  0.00     0.076 C 
BRANCH   2   3
HETATM    3  C   UNL     1     -41.707  53.331 -53.845  1.00  0.00    -0.028 A 
HETATM    4  C   UNL     1     -41.528  53.693 -52.470  1.00  0.00    -0.002 A 
HETATM    5  C   UNL     1     -42.282  54.437 -51.539  1.00  0.00     0.014 A 
HETATM    6  C   UNL     1     -40.313  53.148 -52.052  1.00  0.00     0.042 A 
HETATM    7  C   UNL     1     -41.791  54.621 -50.241  1.00  0.00     0.001 A 
HETATM    8  C   UNL     1     -40.572  54.069 -49.859  1.00  0.00     0.002 A 
HETATM    9  C   UNL     1     -39.811  53.316 -50.756  1.00  0.00     0.030 A 
HETATM   10  N   UNL     1     -39.786  52.461 -53.120  1.00  0.00    -0.365 N 
HETATM   11  H   UNL     1     -38.915  51.950 -53.100  1.00  0.00     0.165 HD
HETATM   12  C   UNL     1     -40.611  52.570 -54.204  1.00  0.00     0.096 A 
ENDBRANCH   2   3
ENDBRANCH   1   2
BRANCH   1  13
HETATM   13  N   UNL     1     -43.179  54.992 -56.889  1.00  0.00    -0.343 N 
HETATM   14  C   UNL     1     -43.157  56.103 -57.707  1.00  0.00     0.259 C 
HETATM   15  O   UNL     1     -42.427  57.057 -57.451  1.00  0.00    -0.267 OA
HETATM   16  H   UNL     1     -43.951  54.358 -57.063  1.00  0.00     0.163 HD
BRANCH  14  17
HETATM   17  C   UNL     1     -44.017  56.041 -58.882  1.00  0.00     0.072 A 
HETATM   18  S   UNL     1     -45.049  57.340 -59.329  1.00  0.00    -0.097 SA
HETATM   19  C   UNL     1     -45.652  56.490 -60.683  1.00  0.00     0.050 A 
HETATM   20  C   UNL     1     -45.078  55.245 -60.809  1.00  0.00     0.009 A 
HETATM   21  C   UNL     1     -44.134  54.989 -59.772  1.00  0.00     0.025 A 
ENDBRANCH  14  17
ENDBRANCH   1  13
BRANCH   1  22
HETATM   22  C   UNL     1     -43.125  56.189 -54.642  1.00  0.00     0.259 C 
HETATM   23  N   UNL     1     -42.128  57.076 -54.278  1.00  0.00    -0.264 N 
HETATM   24  H   UNL     1     -41.342  57.208 -54.915  1.00  0.00     0.190 HD
HETATM   25  O   UNL     1     -44.258  56.244 -54.157  1.00  0.00    -0.269 OA
BRANCH  23  26
HETATM   26  N   UNL     1     -42.540  58.231 -53.593  1.00  0.00    -0.249 N 
HETATM   27  C   UNL     1     -41.620  59.203 -53.323  1.00  0.00     0.339 C 
HETATM   28  N   UNL     1     -42.043  60.294 -52.622  1.00  0.00    -0.308 N 
HETATM   29  O   UNL     1     -40.436  59.098 -53.644  1.00  0.00    -0.245 OA
HETATM   30  H   UNL     1     -41.257  60.847 -52.300  1.00  0.00     0.170 HD
HETATM   31  H   UNL     1     -43.325  58.102 -52.964  1.00  0.00     0.192 HD
BRANCH  28  32
HETATM   32  C   UNL     1     -43.328  60.779 -52.313  1.00  0.00     0.036 A 
HETATM   33  C   UNL     1     -44.038  60.456 -51.153  1.00  0.00     0.031 A 
HETATM   34  C   UNL     1     -45.308  60.999 -50.921  1.00  0.00     0.026 A 
HETATM   35  C   UNL     1     -45.884  61.849 -51.860  1.00  0.00     0.034 A 
HETATM   36 CL   UNL     1     -47.440  62.520 -51.573  1.00  0.00    -0.084 Cl
HETATM   37  C   UNL     1     -45.206  62.148 -53.038  1.00  0.00     0.026 A 
HETATM   38  C   UNL     1     -43.937  61.606 -53.267  1.00  0.00     0.031 A 
ENDBRANCH  28  32
ENDBRANCH  23  26
ENDBRANCH   1  22
TORSDOF 7
ENDMDL
MODEL 6
REMARK VINA RESULT:      -8.5      2.152      5.982
REMARK  7 active torsions:
REMARK  status: ('A' for Active; 'I' for Inactive)
REMARK    1  A    between atoms: C_8  and  C_9 
REMARK    2  A    between atoms: C_9  and  C_10 
REMARK    3  A    between atoms: C_10  and  N_11 
REMARK    4  A    between atoms: C_10  and  C_19 
REMARK       I    between atoms: N_11  and  C_12 
REMARK    5  A    between atoms: C_12  and  C_13 
REMARK       I    between atoms: C_19  and  N_20 
REMARK    6  A    between atoms: N_20  and  N_21 
REMARK       I    between atoms: N_21  and  C_22 
REMARK       I    between atoms: C_22  and  N_23 
REMARK    7  A    between atoms: N_23  and  C_24 
ROOT
HETATM    1  C   UNL     1     -42.033  55.163 -52.915  1.00  0.00     0.183 C 
ENDROOT
BRANCH   1   2
HETATM    2  C   UNL     1     -42.641  55.591 -51.566  1.00  0.00     0.076 C 
BRANCH   2   3
HETATM    3  C   UNL     1     -42.241  56.968 -51.119  1.00  0.00    -0.028 A 
HETATM    4  C   UNL     1     -42.934  58.200 -51.350  1.00  0.00    -0.002 A 
HETATM    5  C   UNL     1     -44.132  58.551 -52.008  1.00  0.00     0.014 A 
HETATM    6  C   UNL     1     -42.181  59.217 -50.761  1.00  0.00     0.042 A 
HETATM    7  C   UNL     1     -44.520  59.894 -52.067  1.00  0.00     0.001 A 
HETATM    8  C   UNL     1     -43.743  60.884 -51.475  1.00  0.00     0.002 A 
HETATM    9  C   UNL     1     -42.559  60.565 -50.804  1.00  0.00     0.030 A 
HETATM   10  N   UNL     1     -41.088  58.627 -50.174  1.00  0.00    -0.365 N 
HETATM   11  H   UNL     1     -40.375  59.123 -49.659  1.00  0.00     0.165 HD
HETATM   12  C   UNL     1     -41.109  57.276 -50.389  1.00  0.00     0.096 A 
ENDBRANCH   2   3
ENDBRANCH   1   2
BRANCH   1  13
HETATM   13  N   UNL     1     -41.707  53.737 -53.010  1.00  0.00    -0.343 N 
HETATM   14  C   UNL     1     -40.567  53.195 -52.455  1.00  0.00     0.259 C 
HETATM   15  O   UNL     1     -39.936  53.803 -51.595  1.00  0.00    -0.267 OA
HETATM   16  H   UNL     1     -42.034  53.264 -53.845  1.00  0.00     0.163 HD
BRANCH  14  17
HETATM   17  C   UNL     1     -40.200  51.868 -52.933  1.00  0.00     0.072 A 
HETATM   18  S   UNL     1     -39.576  50.659 -51.885  1.00  0.00    -0.097 SA
HETATM   19  C   UNL     1     -39.413  49.533 -53.160  1.00  0.00     0.050 A 
HETATM   20  C   UNL     1     -39.834  50.053 -54.363  1.00  0.00     0.009 A 
HETATM   21  C   UNL     1     -40.290  51.397 -54.231  1.00  0.00     0.025 A 
ENDBRANCH  14  17
ENDBRANCH   1  13
BRANCH   1  22
HETATM   22  C   UNL     1     -42.882  55.734 -54.067  1.00  0.00     0.259 C 
HETATM   23  N   UNL     1     -42.346  56.843 -54.697  1.00  0.00    -0.264 N 
HETATM   24  H   UNL     1     -41.331  56.934 -54.736  1.00  0.00     0.190 HD
HETATM   25  O   UNL     1     -44.030  55.344 -54.295  1.00  0.00    -0.269 OA
BRANCH  23  26
HETATM   26  N   UNL     1     -43.029  57.306 -55.835  1.00  0.00    -0.249 N 
HETATM   27  C   UNL     1     -42.664  58.501 -56.384  1.00  0.00     0.339 C 
HETATM   28  N   UNL     1     -43.372  58.941 -57.464  1.00  0.00    -0.308 N 
HETATM   29  O   UNL     1     -41.766  59.198 -55.911  1.00  0.00    -0.245 OA
HETATM   30  H   UNL     1     -43.162  59.911 -57.665  1.00  0.00     0.170 HD
HETATM   31  H   UNL     1     -43.991  56.996 -55.915  1.00  0.00     0.192 HD
BRANCH  28  32
HETATM   32  C   UNL     1     -44.276  58.294 -58.328  1.00  0.00     0.036 A 
HETATM   33  C   UNL     1     -43.904  57.563 -59.460  1.00  0.00     0.031 A 
HETATM   34  C   UNL     1     -44.874  56.940 -60.256  1.00  0.00     0.026 A 
HETATM   35  C   UNL     1     -46.222  57.065 -59.935  1.00  0.00     0.034 A 
HETATM   36 CL   UNL     1     -47.412  56.295 -60.908  1.00  0.00    -0.084 Cl
HETATM   37  C   UNL     1     -46.610  57.823 -58.834  1.00  0.00     0.026 A 
HETATM   38  C   UNL     1     -45.639  58.443 -58.040  1.00  0.00     0.031 A 
ENDBRANCH  28  32
ENDBRANCH  23  26
ENDBRANCH   1  22
TORSDOF 7
ENDMDL
MODEL 7
REMARK VINA RESULT:      -8.3      1.994      2.929
REMARK  7 active torsions:
REMARK  status: ('A' for Active; 'I' for Inactive)
REMARK    1  A    between atoms: C_8  and  C_9 
REMARK    2  A    between atoms: C_9  and  C_10 
REMARK    3  A    between atoms: C_10  and  N_11 
REMARK    4  A    between atoms: C_10  and  C_19 
REMARK       I    between atoms: N_11  and  C_12 
REMARK    5  A    between atoms: C_12  and  C_13 
REMARK       I    between atoms: C_19  and  N_20 
REMARK    6  A    between atoms: N_20  and  N_21 
REMARK       I    between atoms: N_21  and  C_22 
REMARK       I    between atoms: C_22  and  N_23 
REMARK    7  A    between atoms: N_23  and  C_24 
ROOT
HETATM    1  C   UNL     1     -43.134  57.870 -53.331  1.00  0.00     0.183 C 
ENDROOT
BRANCH   1   2
HETATM    2  C   UNL     1     -41.658  57.548 -53.028  1.00  0.00     0.076 C 
BRANCH   2   3
HETATM    3  C   UNL     1     -41.416  56.138 -52.573  1.00  0.00    -0.028 A 
HETATM    4  C   UNL     1     -40.936  55.036 -53.352  1.00  0.00    -0.002 A 
HETATM    5  C   UNL     1     -40.542  54.875 -54.698  1.00  0.00     0.014 A 
HETATM    6  C   UNL     1     -40.883  53.924 -52.511  1.00  0.00     0.042 A 
HETATM    7  C   UNL     1     -40.131  53.616 -55.151  1.00  0.00     0.001 A 
HETATM    8  C   UNL     1     -40.096  52.527 -54.286  1.00  0.00     0.002 A 
HETATM    9  C   UNL     1     -40.466  52.660 -52.946  1.00  0.00     0.030 A 
HETATM   10  N   UNL     1     -41.290  54.337 -51.264  1.00  0.00    -0.365 N 
HETATM   11  H   UNL     1     -41.336  53.742 -50.449  1.00  0.00     0.165 HD
HETATM   12  C   UNL     1     -41.619  55.664 -51.291  1.00  0.00     0.096 A 
ENDBRANCH   2   3
ENDBRANCH   1   2
BRANCH   1  13
HETATM   13  N   UNL     1     -43.683  58.989 -52.559  1.00  0.00    -0.343 N 
HETATM   14  C   UNL     1     -44.641  58.819 -51.581  1.00  0.00     0.259 C 
HETATM   15  O   UNL     1     -44.849  57.713 -51.090  1.00  0.00    -0.267 OA
HETATM   16  H   UNL     1     -43.729  59.879 -53.043  1.00  0.00     0.163 HD
BRANCH  14  17
HETATM   17  C   UNL     1     -45.341  60.028 -51.166  1.00  0.00     0.072 A 
HETATM   18  S   UNL     1     -46.252  60.981 -52.267  1.00  0.00    -0.097 SA
HETATM   19  C   UNL     1     -46.674  62.109 -51.055  1.00  0.00     0.050 A 
HETATM   20  C   UNL     1     -46.148  61.770 -49.830  1.00  0.00     0.009 A 
HETATM   21  C   UNL     1     -45.382  60.570 -49.894  1.00  0.00     0.025 A 
ENDBRANCH  14  17
ENDBRANCH   1  13
BRANCH   1  22
HETATM   22  C   UNL     1     -43.343  57.943 -54.856  1.00  0.00     0.259 C 
HETATM   23  N   UNL     1     -44.013  56.866 -55.409  1.00  0.00    -0.264 N 
HETATM   24  H   UNL     1     -44.703  56.380 -54.835  1.00  0.00     0.190 HD
HETATM   25  O   UNL     1     -42.802  58.804 -55.555  1.00  0.00    -0.269 OA
BRANCH  23  26
HETATM   26  N   UNL     1     -44.337  56.964 -56.772  1.00  0.00    -0.249 N 
HETATM   27  C   UNL     1     -43.628  56.225 -57.674  1.00  0.00     0.339 C 
HETATM   28  N   UNL     1     -43.941  56.372 -58.994  1.00  0.00    -0.308 N 
HETATM   29  O   UNL     1     -42.704  55.484 -57.340  1.00  0.00    -0.245 OA
HETATM   30  H   UNL     1     -43.235  55.947 -59.585  1.00  0.00     0.170 HD
HETATM   31  H   UNL     1     -44.728  57.855 -57.058  1.00  0.00     0.192 HD
BRANCH  28  32
HETATM   32  C   UNL     1     -45.043  56.958 -59.645  1.00  0.00     0.036 A 
HETATM   33  C   UNL     1     -45.197  58.331 -59.860  1.00  0.00     0.031 A 
HETATM   34  C   UNL     1     -46.322  58.825 -60.532  1.00  0.00     0.026 A 
HETATM   35  C   UNL     1     -47.311  57.949 -60.970  1.00  0.00     0.034 A 
HETATM   36 CL   UNL     1     -48.690  58.554 -61.799  1.00  0.00    -0.084 Cl
HETATM   37  C   UNL     1     -47.191  56.584 -60.727  1.00  0.00     0.026 A 
HETATM   38  C   UNL     1     -46.065  56.093 -60.058  1.00  0.00     0.031 A 
ENDBRANCH  28  32
ENDBRANCH  23  26
ENDBRANCH   1  22
TORSDOF 7
ENDMDL
MODEL 8
REMARK VINA RESULT:      -8.3      3.389      7.864
REMARK  7 active torsions:
REMARK  status: ('A' for Active; 'I' for Inactive)
REMARK    1  A    between atoms: C_8  and  C_9 
REMARK    2  A    between atoms: C_9  and  C_10 
REMARK    3  A    between atoms: C_10  and  N_11 
REMARK    4  A    between atoms: C_10  and  C_19 
REMARK       I    between atoms: N_11  and  C_12 
REMARK    5  A    between atoms: C_12  and  C_13 
REMARK       I    between atoms: C_19  and  N_20 
REMARK    6  A    between atoms: N_20  and  N_21 
REMARK       I    between atoms: N_21  and  C_22 
REMARK       I    between atoms: C_22  and  N_23 
REMARK    7  A    between atoms: N_23  and  C_24 
ROOT
HETATM    1  C   UNL     1     -43.388  58.836 -54.496  1.00  0.00     0.183 C 
ENDROOT
BRANCH   1   2
HETATM    2  C   UNL     1     -44.260  58.784 -55.765  1.00  0.00     0.076 C 
BRANCH   2   3
HETATM    3  C   UNL     1     -43.495  58.956 -57.045  1.00  0.00    -0.028 A 
HETATM    4  C   UNL     1     -43.167  57.951 -58.012  1.00  0.00    -0.002 A 
HETATM    5  C   UNL     1     -43.418  56.567 -58.122  1.00  0.00     0.014 A 
HETATM    6  C   UNL     1     -42.438  58.573 -59.027  1.00  0.00     0.042 A 
HETATM    7  C   UNL     1     -42.921  55.860 -59.223  1.00  0.00     0.001 A 
HETATM    8  C   UNL     1     -42.192  56.510 -60.214  1.00  0.00     0.002 A 
HETATM    9  C   UNL     1     -41.940  57.882 -60.139  1.00  0.00     0.030 A 
HETATM   10  N   UNL     1     -42.346  59.906 -58.704  1.00  0.00    -0.365 N 
HETATM   11  H   UNL     1     -41.884  60.604 -59.271  1.00  0.00     0.165 HD
HETATM   12  C   UNL     1     -42.972  60.147 -57.512  1.00  0.00     0.096 A 
ENDBRANCH   2   3
ENDBRANCH   1   2
BRANCH   1  13
HETATM   13  N   UNL     1     -43.977  59.586 -53.383  1.00  0.00    -0.343 N 
HETATM   14  C   UNL     1     -43.214  60.178 -52.398  1.00  0.00     0.259 C 
HETATM   15  O   UNL     1     -42.015  60.380 -52.568  1.00  0.00    -0.267 OA
HETATM   16  H   UNL     1     -44.893  59.276 -53.077  1.00  0.00     0.163 HD
BRANCH  14  17
HETATM   17  C   UNL     1     -43.932  60.565 -51.190  1.00  0.00     0.072 A 
HETATM   18  S   UNL     1     -45.630  60.359 -51.029  1.00  0.00    -0.097 SA
HETATM   19  C   UNL     1     -45.636  61.033 -49.459  1.00  0.00     0.050 A 
HETATM   20  C   UNL     1     -44.374  61.399 -49.050  1.00  0.00     0.009 A 
HETATM   21  C   UNL     1     -43.393  61.127 -50.047  1.00  0.00     0.025 A 
ENDBRANCH  14  17
ENDBRANCH   1  13
BRANCH   1  22
HETATM   22  C   UNL     1     -42.889  57.418 -54.157  1.00  0.00     0.259 C 
HETATM   23  N   UNL     1     -41.660  57.364 -53.523  1.00  0.00    -0.264 N 
HETATM   24  H   UNL     1     -41.393  58.143 -52.920  1.00  0.00     0.190 HD
HETATM   25  O   UNL     1     -43.453  56.403 -54.573  1.00  0.00    -0.269 OA
BRANCH  23  26
HETATM   26  N   UNL     1     -41.239  56.099 -53.081  1.00  0.00    -0.249 N 
HETATM   27  C   UNL     1     -41.379  55.778 -51.762  1.00  0.00     0.339 C 
HETATM   28  N   UNL     1     -40.925  54.557 -51.358  1.00  0.00    -0.308 N 
HETATM   29  O   UNL     1     -41.848  56.564 -50.939  1.00  0.00    -0.245 OA
HETATM   30  H   UNL     1     -40.887  54.499 -50.347  1.00  0.00     0.170 HD
HETATM   31  H   UNL     1     -40.481  55.688 -53.614  1.00  0.00     0.192 HD
BRANCH  28  32
HETATM   32  C   UNL     1     -40.550  53.404 -52.074  1.00  0.00     0.036 A 
HETATM   33  C   UNL     1     -39.725  52.393 -51.570  1.00  0.00     0.031 A 
HETATM   34  C   UNL     1     -39.417  51.272 -52.350  1.00  0.00     0.026 A 
HETATM   35  C   UNL     1     -39.912  51.168 -53.647  1.00  0.00     0.034 A 
HETATM   36 CL   UNL     1     -39.537  49.789 -54.602  1.00  0.00    -0.084 Cl
HETATM   37  C   UNL     1     -40.700  52.186 -54.176  1.00  0.00     0.026 A 
HETATM   38  C   UNL     1     -41.009  53.304 -53.394  1.00  0.00     0.031 A 
ENDBRANCH  28  32
ENDBRANCH  23  26
ENDBRANCH   1  22
TORSDOF 7
ENDMDL
MODEL 9
REMARK VINA RESULT:      -8.3      4.076      7.340
REMARK  7 active torsions:
REMARK  status: ('A' for Active; 'I' for Inactive)
REMARK    1  A    between atoms: C_8  and  C_9 
REMARK    2  A    between atoms: C_9  and  C_10 
REMARK    3  A    between atoms: C_10  and  N_11 
REMARK    4  A    between atoms: C_10  and  C_19 
REMARK       I    between atoms: N_11  and  C_12 
REMARK    5  A    between atoms: C_12  and  C_13 
REMARK       I    between atoms: C_19  and  N_20 
REMARK    6  A    between atoms: N_20  and  N_21 
REMARK       I    between atoms: N_21  and  C_22 
REMARK       I    between atoms: C_22  and  N_23 
REMARK    7  A    between atoms: N_23  and  C_24 
ROOT
HETATM    1  C   UNL     1     -41.942  56.660 -53.719  1.00  0.00     0.183 C 
ENDROOT
BRANCH   1   2
HETATM    2  C   UNL     1     -42.444  55.223 -53.483  1.00  0.00     0.076 C 
BRANCH   2   3
HETATM    3  C   UNL     1     -41.494  54.360 -52.704  1.00  0.00    -0.028 A 
HETATM    4  C   UNL     1     -40.903  53.119 -53.110  1.00  0.00    -0.002 A 
HETATM    5  C   UNL     1     -40.976  52.325 -54.274  1.00  0.00     0.014 A 
HETATM    6  C   UNL     1     -40.102  52.676 -52.056  1.00  0.00     0.042 A 
HETATM    7  C   UNL     1     -40.264  51.121 -54.334  1.00  0.00     0.001 A 
HETATM    8  C   UNL     1     -39.479  50.706 -53.262  1.00  0.00     0.002 A 
HETATM    9  C   UNL     1     -39.377  51.479 -52.103  1.00  0.00     0.030 A 
HETATM   10  N   UNL     1     -40.180  53.620 -51.060  1.00  0.00    -0.365 N 
HETATM   11  H   UNL     1     -39.686  53.570 -50.180  1.00  0.00     0.165 HD
HETATM   12  C   UNL     1     -41.019  54.633 -51.435  1.00  0.00     0.096 A 
ENDBRANCH   2   3
ENDBRANCH   1   2
BRANCH   1  13
HETATM   13  N   UNL     1     -41.876  57.058 -55.128  1.00  0.00    -0.343 N 
HETATM   14  C   UNL     1     -42.992  57.123 -55.936  1.00  0.00     0.259 C 
HETATM   15  O   UNL     1     -44.119  57.161 -55.450  1.00  0.00    -0.267 OA
HETATM   16  H   UNL     1     -41.018  56.823 -55.615  1.00  0.00     0.163 HD
BRANCH  14  17
HETATM   17  C   UNL     1     -42.733  57.175 -57.369  1.00  0.00     0.072 A 
HETATM   18  S   UNL     1     -43.209  55.911 -58.431  1.00  0.00    -0.097 SA
HETATM   19  C   UNL     1     -42.556  56.710 -59.793  1.00  0.00     0.050 A 
HETATM   20  C   UNL     1     -41.995  57.921 -59.460  1.00  0.00     0.009 A 
HETATM   21  C   UNL     1     -42.100  58.189 -58.063  1.00  0.00     0.025 A 
ENDBRANCH  14  17
ENDBRANCH   1  13
BRANCH   1  22
HETATM   22  C   UNL     1     -42.694  57.628 -52.785  1.00  0.00     0.259 C 
HETATM   23  N   UNL     1     -42.287  58.948 -52.856  1.00  0.00    -0.264 N 
HETATM   24  H   UNL     1     -41.926  59.295 -53.746  1.00  0.00     0.190 HD
HETATM   25  O   UNL     1     -43.474  57.231 -51.915  1.00  0.00    -0.269 OA
BRANCH  23  26
HETATM   26  N   UNL     1     -43.041  59.875 -52.117  1.00  0.00    -0.249 N 
HETATM   27  C   UNL     1     -44.062  60.538 -52.733  1.00  0.00     0.339 C 
HETATM   28  N   UNL     1     -44.750  61.460 -51.999  1.00  0.00    -0.308 N 
HETATM   29  O   UNL     1     -44.340  60.364 -53.920  1.00  0.00    -0.245 OA
HETATM   30  H   UNL     1     -45.339  62.031 -52.593  1.00  0.00     0.170 HD
HETATM   31  H   UNL     1     -42.542  60.327 -51.358  1.00  0.00     0.192 HD
BRANCH  28  32
HETATM   32  C   UNL     1     -44.802  61.717 -50.616  1.00  0.00     0.036 A 
HETATM   33  C   UNL     1     -44.251  62.845 -49.999  1.00  0.00     0.031 A 
HETATM   34  C   UNL     1     -44.365  63.026 -48.615  1.00  0.00     0.026 A 
HETATM   35  C   UNL     1     -45.011  62.069 -47.839  1.00  0.00     0.034 A 
HETATM   36 CL   UNL     1     -45.155  62.295 -46.140  1.00  0.00    -0.084 Cl
HETATM   37  C   UNL     1     -45.529  60.922 -48.433  1.00  0.00     0.026 A 
HETATM   38  C   UNL     1     -45.415  60.744 -49.816  1.00  0.00     0.031 A 
ENDBRANCH  28  32
ENDBRANCH  23  26
ENDBRANCH   1  22
TORSDOF 7
ENDMDL
MODEL 10
REMARK VINA RESULT:      -8.2      4.988      8.518
REMARK  7 active torsions:
REMARK  status: ('A' for Active; 'I' for Inactive)
REMARK    1  A    between atoms: C_8  and  C_9 
REMARK    2  A    between atoms: C_9  and  C_10 
REMARK    3  A    between atoms: C_10  and  N_11 
REMARK    4  A    between atoms: C_10  and  C_19 
REMARK       I    between atoms: N_11  and  C_12 
REMARK    5  A    between atoms: C_12  and  C_13 
REMARK       I    between atoms: C_19  and  N_20 
REMARK    6  A    between atoms: N_20  and  N_21 
REMARK       I    between atoms: N_21  and  C_22 
REMARK       I    between atoms: C_22  and  N_23 
REMARK    7  A    between atoms: N_23  and  C_24 
ROOT
HETATM    1  C   UNL     1     -42.163  57.741 -52.108  1.00  0.00     0.183 C 
ENDROOT
BRANCH   1   2
HETATM    2  C   UNL     1     -42.708  56.370 -51.662  1.00  0.00     0.076 C 
BRANCH   2   3
HETATM    3  C   UNL     1     -42.479  55.266 -52.652  1.00  0.00    -0.028 A 
HETATM    4  C   UNL     1     -41.527  54.198 -52.570  1.00  0.00    -0.002 A 
HETATM    5  C   UNL     1     -40.551  53.816 -51.626  1.00  0.00     0.014 A 
HETATM    6  C   UNL     1     -41.670  53.424 -53.723  1.00  0.00     0.042 A 
HETATM    7  C   UNL     1     -39.751  52.695 -51.874  1.00  0.00     0.001 A 
HETATM    8  C   UNL     1     -39.916  51.949 -53.037  1.00  0.00     0.002 A 
HETATM    9  C   UNL     1     -40.884  52.295 -53.983  1.00  0.00     0.030 A 
HETATM   10  N   UNL     1     -42.684  53.981 -54.464  1.00  0.00    -0.365 N 
HETATM   11  H   UNL     1     -43.018  53.617 -55.346  1.00  0.00     0.165 HD
HETATM   12  C   UNL     1     -43.174  55.092 -53.834  1.00  0.00     0.096 A 
ENDBRANCH   2   3
ENDBRANCH   1   2
BRANCH   1  13
HETATM   13  N   UNL     1     -42.343  58.034 -53.532  1.00  0.00    -0.343 N 
HETATM   14  C   UNL     1     -41.594  58.982 -54.198  1.00  0.00     0.259 C 
HETATM   15  O   UNL     1     -40.541  59.398 -53.723  1.00  0.00    -0.267 OA
HETATM   16  H   UNL     1     -43.282  57.909 -53.894  1.00  0.00     0.163 HD
BRANCH  14  17
HETATM   17  C   UNL     1     -42.121  59.413 -55.487  1.00  0.00     0.072 A 
HETATM   18  S   UNL     1     -42.534  58.296 -56.725  1.00  0.00    -0.097 SA
HETATM   19  C   UNL     1     -43.003  59.544 -57.794  1.00  0.00     0.050 A 
HETATM   20  C   UNL     1     -42.864  60.789 -57.226  1.00  0.00     0.009 A 
HETATM   21  C   UNL     1     -42.358  60.713 -55.896  1.00  0.00     0.025 A 
ENDBRANCH  14  17
ENDBRANCH   1  13
BRANCH   1  22
HETATM   22  C   UNL     1     -42.652  58.831 -51.134  1.00  0.00     0.259 C 
HETATM   23  N   UNL     1     -44.026  58.954 -51.033  1.00  0.00    -0.264 N 
HETATM   24  H   UNL     1     -44.598  58.121 -51.175  1.00  0.00     0.190 HD
HETATM   25  O   UNL     1     -41.883  59.646 -50.618  1.00  0.00    -0.269 OA
BRANCH  23  26
HETATM   26  N   UNL     1     -44.503  59.845 -50.057  1.00  0.00    -0.249 N 
HETATM   27  C   UNL     1     -45.668  60.518 -50.289  1.00  0.00     0.339 C 
HETATM   28  N   UNL     1     -46.084  61.404 -49.339  1.00  0.00    -0.308 N 
HETATM   29  O   UNL     1     -46.310  60.385 -51.331  1.00  0.00    -0.245 OA
HETATM   30  H   UNL     1     -46.832  61.991 -49.691  1.00  0.00     0.170 HD
HETATM   31  H   UNL     1     -43.789  60.274 -49.479  1.00  0.00     0.192 HD
BRANCH  28  32
HETATM   32  C   UNL     1     -45.693  61.610 -48.002  1.00  0.00     0.036 A 
HETATM   33  C   UNL     1     -45.613  60.602 -47.037  1.00  0.00     0.031 A 
HETATM   34  C   UNL     1     -45.198  60.896 -45.732  1.00  0.00     0.026 A 
HETATM   35  C   UNL     1     -44.884  62.206 -45.381  1.00  0.00     0.034 A 
HETATM   36 CL   UNL     1     -44.369  62.567 -43.781  1.00  0.00    -0.084 Cl
HETATM   37  C   UNL     1     -44.997  63.226 -46.320  1.00  0.00     0.026 A 
HETATM   38  C   UNL     1     -45.410  62.929 -47.623  1.00  0.00     0.031 A 
ENDBRANCH  28  32
ENDBRANCH  23  26
ENDBRANCH   1  22
TORSDOF 7
ENDMDL
