MODEL 1
REMARK VINA RESULT:      -7.8      0.000      0.000
REMARK  8 active torsions:
REMARK  status: ('A' for Active; 'I' for Inactive)
REMARK    1  A    between atoms: CG_8  and  CB_9 
REMARK    2  A    between atoms: CB_9  and  CA_10 
REMARK    3  A    between atoms: CA_10  and  N_11 
REMARK    4  A    between atoms: CA_10  and  C_14 
REMARK    5  A    between atoms: N_11  and  C_19 
REMARK    6  A    between atoms: C_14  and  O_15 
REMARK    7  A    between atoms: C_19  and  C_20 
REMARK    8  A    between atoms: C_22  and  C_23 
ROOT
ATOM      1  CA  TRP A   1     -42.359  55.506 -52.802  1.00  0.00     0.214 C 
ENDROOT
BRANCH   1   2
ATOM      2  CB  TRP A   1     -41.047  54.890 -53.325  1.00  0.00     0.076 C 
BRANCH   2   3
ATOM      3  CG  TRP A   1     -40.529  53.704 -52.565  1.00  0.00    -0.028 A 
ATOM      4  CD2 TRP A   1     -40.243  52.376 -53.029  1.00  0.00    -0.002 A 
ATOM      5  CE3 TRP A   1     -40.306  51.716 -54.277  1.00  0.00     0.014 A 
ATOM      6  CE2 TRP A   1     -39.824  51.634 -51.921  1.00  0.00     0.042 A 
ATOM      7  CZ3 TRP A   1     -39.993  50.353 -54.360  1.00  0.00     0.001 A 
ATOM      8  CH2 TRP A   1     -39.599  49.644 -53.231  1.00  0.00     0.002 A 
ATOM      9  CZ2 TRP A   1     -39.497  50.275 -51.990  1.00  0.00     0.030 A 
ATOM     10  NE1 TRP A   1     -39.785  52.485 -50.844  1.00  0.00    -0.365 N 
ATOM     11  HE1 TRP A   1     -39.471  52.226 -49.917  1.00  0.00     0.165 HD
ATOM     12  CD1 TRP A   1     -40.227  53.725 -51.215  1.00  0.00     0.096 A 
ENDBRANCH   2   3
ENDBRANCH   1   2
BRANCH   1  13
ATOM     13  N   TRP A   1     -42.828  56.621 -53.717  1.00  0.00    -0.064 N 
ATOM     14  H1  TRP A   1     -43.715  56.373 -54.178  1.00  0.00     0.278 HD
ATOM     15  H2  TRP A   1     -43.036  57.427 -53.099  1.00  0.00     0.278 HD
BRANCH  13  16
HETATM   16  C   UNK A   0     -41.848  57.038 -54.752  1.00  0.00     0.280 C 
BRANCH  16  17
HETATM   17  C   UNK A   0     -42.393  56.959 -56.127  1.00  0.00     0.027 A 
HETATM   18  S   UNK A   0     -42.662  55.446 -56.893  1.00  0.00    -0.076 SA
HETATM   19  C   UNK A   0     -43.086  56.267 -58.339  1.00  0.00     0.079 A 
HETATM   20  N   UNK A   0     -43.101  57.579 -58.257  1.00  0.00    -0.257 NA
HETATM   21  C   UNK A   0     -42.707  57.979 -57.001  1.00  0.00     0.133 A 
BRANCH  19  22
HETATM   22  C   UNK A   0     -43.383  55.521 -59.640  1.00  0.00     0.045 C 
HETATM   23  C   UNK A   0     -44.494  54.434 -59.546  1.00  0.00     0.011 C 
HETATM   24  C   UNK A   0     -44.991  54.917 -60.922  1.00  0.00     0.002 C 
HETATM   25  C   UNK A   0     -44.385  56.285 -60.561  1.00  0.00     0.011 C 
ENDBRANCH  19  22
ENDBRANCH  16  17
ENDBRANCH  13  16
ENDBRANCH   1  13
BRANCH   1  26
ATOM     26  C   TRP A   1     -43.475  54.440 -52.765  1.00  0.00     0.197 C 
BRANCH  26  27
ATOM     27  O   TRP A   1     -44.343  54.671 -53.881  1.00  0.00    -0.399 OA
ATOM     28  H   TRP A   1     -44.736  55.560 -53.764  1.00  0.00     0.209 HD
ENDBRANCH  26  27
ENDBRANCH   1  26
TORSDOF 8
ENDMDL
MODEL 2
REMARK VINA RESULT:      -7.7      1.239      1.475
REMARK  8 active torsions:
REMARK  status: ('A' for Active; 'I' for Inactive)
REMARK    1  A    between atoms: CG_8  and  CB_9 
REMARK    2  A    between atoms: CB_9  and  CA_10 
REMARK    3  A    between atoms: CA_10  and  N_11 
REMARK    4  A    between atoms: CA_10  and  C_14 
REMARK    5  A    between atoms: N_11  and  C_19 
REMARK    6  A    between atoms: C_14  and  O_15 
REMARK    7  A    between atoms: C_19  and  C_20 
REMARK    8  A    between atoms: C_22  and  C_23 
ROOT
ATOM      1  CA  TRP A   1     -43.027  56.503 -52.251  1.00  0.00     0.214 C 
ENDROOT
BRANCH   1   2
ATOM      2  CB  TRP A   1     -43.256  54.979 -52.267  1.00  0.00     0.076 C 
BRANCH   2   3
ATOM      3  CG  TRP A   1     -42.111  54.137 -51.787  1.00  0.00    -0.028 A 
ATOM      4  CD2 TRP A   1     -41.247  53.262 -52.530  1.00  0.00    -0.002 A 
ATOM      5  CE3 TRP A   1     -41.125  52.893 -53.888  1.00  0.00     0.014 A 
ATOM      6  CE2 TRP A   1     -40.369  52.677 -51.614  1.00  0.00     0.042 A 
ATOM      7  CZ3 TRP A   1     -40.171  51.939 -54.267  1.00  0.00     0.001 A 
ATOM      8  CH2 TRP A   1     -39.327  51.364 -53.323  1.00  0.00     0.002 A 
ATOM      9  CZ2 TRP A   1     -39.403  51.731 -51.978  1.00  0.00     0.030 A 
ATOM     10  NE1 TRP A   1     -40.632  53.221 -50.382  1.00  0.00    -0.365 N 
ATOM     11  HE1 TRP A   1     -40.113  53.013 -49.538  1.00  0.00     0.165 HD
ATOM     12  CD1 TRP A   1     -41.691  54.083 -50.470  1.00  0.00     0.096 A 
ENDBRANCH   2   3
ENDBRANCH   1   2
BRANCH   1  13
ATOM     13  N   TRP A   1     -43.207  57.085 -53.640  1.00  0.00    -0.064 N 
ATOM     14  H1  TRP A   1     -44.064  56.726 -54.084  1.00  0.00     0.278 HD
ATOM     15  H2  TRP A   1     -43.352  58.101 -53.505  1.00  0.00     0.278 HD
BRANCH  13  16
HETATM   16  C   UNK A   0     -42.062  56.873 -54.562  1.00  0.00     0.280 C 
BRANCH  16  17
HETATM   17  C   UNK A   0     -42.466  56.858 -55.988  1.00  0.00     0.027 A 
HETATM   18  S   UNK A   0     -42.918  55.397 -56.770  1.00  0.00    -0.076 SA
HETATM   19  C   UNK A   0     -43.036  56.244 -58.258  1.00  0.00     0.079 A 
HETATM   20  N   UNK A   0     -42.826  57.540 -58.185  1.00  0.00    -0.257 NA
HETATM   21  C   UNK A   0     -42.501  57.895 -56.896  1.00  0.00     0.133 A 
BRANCH  19  22
HETATM   22  C   UNK A   0     -43.322  55.531 -59.579  1.00  0.00     0.045 C 
HETATM   23  C   UNK A   0     -44.414  54.421 -59.514  1.00  0.00     0.011 C 
HETATM   24  C   UNK A   0     -44.923  54.935 -60.874  1.00  0.00     0.002 C 
HETATM   25  C   UNK A   0     -44.341  56.303 -60.475  1.00  0.00     0.011 C 
ENDBRANCH  19  22
ENDBRANCH  16  17
ENDBRANCH  13  16
ENDBRANCH   1  13
BRANCH   1  26
ATOM     26  C   TRP A   1     -44.055  57.190 -51.327  1.00  0.00     0.197 C 
BRANCH  26  27
ATOM     27  O   TRP A   1     -44.831  56.167 -50.691  1.00  0.00    -0.399 OA
ATOM     28  H   TRP A   1     -45.131  55.553 -51.392  1.00  0.00     0.209 HD
ENDBRANCH  26  27
ENDBRANCH   1  26
TORSDOF 8
ENDMDL
MODEL 3
REMARK VINA RESULT:      -7.6      2.763      5.363
REMARK  8 active torsions:
REMARK  status: ('A' for Active; 'I' for Inactive)
REMARK    1  A    between atoms: CG_8  and  CB_9 
REMARK    2  A    between atoms: CB_9  and  CA_10 
REMARK    3  A    between atoms: CA_10  and  N_11 
REMARK    4  A    between atoms: CA_10  and  C_14 
REMARK    5  A    between atoms: N_11  and  C_19 
REMARK    6  A    between atoms: C_14  and  O_15 
REMARK    7  A    between atoms: C_19  and  C_20 
REMARK    8  A    between atoms: C_22  and  C_23 
ROOT
ATOM      1  CA  TRP A   1     -42.643  54.186 -54.842  1.00  0.00     0.214 C 
ENDROOT
BRANCH   1   2
ATOM      2  CB  TRP A   1     -41.181  54.421 -54.415  1.00  0.00     0.076 C 
BRANCH   2   3
ATOM      3  CG  TRP A   1     -40.673  53.552 -53.303  1.00  0.00    -0.028 A 
ATOM      4  CD2 TRP A   1     -40.289  52.168 -53.327  1.00  0.00    -0.002 A 
ATOM      5  CE3 TRP A   1     -40.218  51.167 -54.321  1.00  0.00     0.014 A 
ATOM      6  CE2 TRP A   1     -39.929  51.818 -52.023  1.00  0.00     0.042 A 
ATOM      7  CZ3 TRP A   1     -39.836  49.865 -53.972  1.00  0.00     0.001 A 
ATOM      8  CH2 TRP A   1     -39.504  49.550 -52.658  1.00  0.00     0.002 A 
ATOM      9  CZ2 TRP A   1     -39.534  50.525 -51.660  1.00  0.00     0.030 A 
ATOM     10  NE1 TRP A   1     -40.019  52.950 -51.251  1.00  0.00    -0.365 N 
ATOM     11  HE1 TRP A   1     -39.770  52.998 -50.270  1.00  0.00     0.165 HD
ATOM     12  CD1 TRP A   1     -40.485  53.992 -52.004  1.00  0.00     0.096 A 
ENDBRANCH   2   3
ENDBRANCH   1   2
BRANCH   1  13
ATOM     13  N   TRP A   1     -43.599  54.709 -53.787  1.00  0.00    -0.064 N 
ATOM     14  H1  TRP A   1     -44.358  54.037 -53.609  1.00  0.00     0.278 HD
ATOM     15  H2  TRP A   1     -43.050  54.768 -52.910  1.00  0.00     0.278 HD
BRANCH  13  16
HETATM   16  C   UNK A   0     -44.192  56.038 -54.082  1.00  0.00     0.280 C 
BRANCH  16  17
HETATM   17  C   UNK A   0     -43.700  57.103 -53.177  1.00  0.00     0.027 A 
HETATM   18  S   UNK A   0     -42.201  57.891 -53.463  1.00  0.00    -0.076 SA
HETATM   19  C   UNK A   0     -42.377  58.737 -51.980  1.00  0.00     0.079 A 
HETATM   20  N   UNK A   0     -43.501  58.514 -51.336  1.00  0.00    -0.257 NA
HETATM   21  C   UNK A   0     -44.258  57.585 -52.011  1.00  0.00     0.133 A 
BRANCH  19  22
HETATM   22  C   UNK A   0     -41.282  59.650 -51.430  1.00  0.00     0.045 C 
HETATM   23  C   UNK A   0     -40.895  59.405 -49.941  1.00  0.00     0.011 C 
HETATM   24  C   UNK A   0     -39.427  59.619 -50.356  1.00  0.00     0.002 C 
HETATM   25  C   UNK A   0     -39.844  59.133 -51.755  1.00  0.00     0.011 C 
ENDBRANCH  19  22
ENDBRANCH  16  17
ENDBRANCH  13  16
ENDBRANCH   1  13
BRANCH   1  26
ATOM     26  C   TRP A   1     -42.947  54.940 -56.154  1.00  0.00     0.197 C 
BRANCH  26  27
ATOM     27  O   TRP A   1     -41.746  55.599 -56.573  1.00  0.00    -0.399 OA
ATOM     28  H   TRP A   1     -40.993  55.083 -56.219  1.00  0.00     0.209 HD
ENDBRANCH  26  27
ENDBRANCH   1  26
TORSDOF 8
ENDMDL
MODEL 4
REMARK VINA RESULT:      -7.3      2.820      5.745
REMARK  8 active torsions:
REMARK  status: ('A' for Active; 'I' for Inactive)
REMARK    1  A    between atoms: CG_8  and  CB_9 
REMARK    2  A    between atoms: CB_9  and  CA_10 
REMARK    3  A    between atoms: CA_10  and  N_11 
REMARK    4  A    between atoms: CA_10  and  C_14 
REMARK    5  A    between atoms: N_11  and  C_19 
REMARK    6  A    between atoms: C_14  and  O_15 
REMARK    7  A    between atoms: C_19  and  C_20 
REMARK    8  A    between atoms: C_22  and  C_23 
ROOT
ATOM      1  CA  TRP A   1     -42.876  54.341 -55.456  1.00  0.00     0.214 C 
ENDROOT
BRANCH   1   2
ATOM      2  CB  TRP A   1     -41.406  54.557 -55.049  1.00  0.00     0.076 C 
BRANCH   2   3
ATOM      3  CG  TRP A   1     -40.922  53.750 -53.880  1.00  0.00    -0.028 A 
ATOM      4  CD2 TRP A   1     -40.837  54.111 -52.493  1.00  0.00    -0.002 A 
ATOM      5  CE3 TRP A   1     -41.167  55.257 -51.735  1.00  0.00     0.014 A 
ATOM      6  CE2 TRP A   1     -40.278  53.023 -51.818  1.00  0.00     0.042 A 
ATOM      7  CZ3 TRP A   1     -40.892  55.286 -50.362  1.00  0.00     0.001 A 
ATOM      8  CH2 TRP A   1     -40.317  54.190 -49.729  1.00  0.00     0.002 A 
ATOM      9  CZ2 TRP A   1     -40.009  53.032 -50.444  1.00  0.00     0.030 A 
ATOM     10  NE1 TRP A   1     -40.097  52.017 -52.734  1.00  0.00    -0.365 N 
ATOM     11  HE1 TRP A   1     -39.749  51.092 -52.511  1.00  0.00     0.165 HD
ATOM     12  CD1 TRP A   1     -40.460  52.449 -53.979  1.00  0.00     0.096 A 
ENDBRANCH   2   3
ENDBRANCH   1   2
BRANCH   1  13
ATOM     13  N   TRP A   1     -43.810  54.798 -54.352  1.00  0.00    -0.064 N 
ATOM     14  H1  TRP A   1     -44.600  54.147 -54.242  1.00  0.00     0.278 HD
ATOM     15  H2  TRP A   1     -43.261  54.741 -53.475  1.00  0.00     0.278 HD
BRANCH  13  16
HETATM   16  C   UNK A   0     -44.340  56.176 -54.509  1.00  0.00     0.280 C 
BRANCH  16  17
HETATM   17  C   UNK A   0     -43.793  57.122 -53.507  1.00  0.00     0.027 A 
HETATM   18  S   UNK A   0     -42.401  58.069 -53.845  1.00  0.00    -0.076 SA
HETATM   19  C   UNK A   0     -42.420  58.651 -52.230  1.00  0.00     0.079 A 
HETATM   20  N   UNK A   0     -43.427  58.233 -51.495  1.00  0.00    -0.257 NA
HETATM   21  C   UNK A   0     -44.211  57.362 -52.215  1.00  0.00     0.133 A 
BRANCH  19  22
HETATM   22  C   UNK A   0     -41.318  59.554 -51.679  1.00  0.00     0.045 C 
HETATM   23  C   UNK A   0     -40.988  59.358 -50.169  1.00  0.00     0.011 C 
HETATM   24  C   UNK A   0     -39.502  59.514 -50.541  1.00  0.00     0.002 C 
HETATM   25  C   UNK A   0     -39.886  58.986 -51.934  1.00  0.00     0.011 C 
ENDBRANCH  19  22
ENDBRANCH  16  17
ENDBRANCH  13  16
ENDBRANCH   1  13
BRANCH   1  26
ATOM     26  C   TRP A   1     -43.211  55.169 -56.715  1.00  0.00     0.197 C 
BRANCH  26  27
ATOM     27  O   TRP A   1     -42.030  55.881 -57.103  1.00  0.00    -0.399 OA
ATOM     28  H   TRP A   1     -42.265  56.437 -57.874  1.00  0.00     0.209 HD
ENDBRANCH  26  27
ENDBRANCH   1  26
TORSDOF 8
ENDMDL
MODEL 5
REMARK VINA RESULT:      -7.3      2.031      2.719
REMARK  8 active torsions:
REMARK  status: ('A' for Active; 'I' for Inactive)
REMARK    1  A    between atoms: CG_8  and  CB_9 
REMARK    2  A    between atoms: CB_9  and  CA_10 
REMARK    3  A    between atoms: CA_10  and  N_11 
REMARK    4  A    between atoms: CA_10  and  C_14 
REMARK    5  A    between atoms: N_11  and  C_19 
REMARK    6  A    between atoms: C_14  and  O_15 
REMARK    7  A    between atoms: C_19  and  C_20 
REMARK    8  A    between atoms: C_22  and  C_23 
ROOT
ATOM      1  CA  TRP A   1     -41.167  57.632 -53.701  1.00  0.00     0.214 C 
ENDROOT
BRANCH   1   2
ATOM      2  CB  TRP A   1     -41.438  56.333 -52.919  1.00  0.00     0.076 C 
BRANCH   2   3
ATOM      3  CG  TRP A   1     -40.945  55.067 -53.557  1.00  0.00    -0.028 A 
ATOM      4  CD2 TRP A   1     -40.551  53.829 -52.944  1.00  0.00    -0.002 A 
ATOM      5  CE3 TRP A   1     -40.496  53.341 -51.619  1.00  0.00     0.014 A 
ATOM      6  CE2 TRP A   1     -40.130  52.979 -53.969  1.00  0.00     0.042 A 
ATOM      7  CZ3 TRP A   1     -39.993  52.057 -51.371  1.00  0.00     0.001 A 
ATOM      8  CH2 TRP A   1     -39.565  51.247 -52.417  1.00  0.00     0.002 A 
ATOM      9  CZ2 TRP A   1     -39.636  51.690 -53.739  1.00  0.00     0.030 A 
ATOM     10  NE1 TRP A   1     -40.325  53.636 -55.159  1.00  0.00    -0.365 N 
ATOM     11  HE1 TRP A   1     -40.149  53.236 -56.073  1.00  0.00     0.165 HD
ATOM     12  CD1 TRP A   1     -40.793  54.899 -54.922  1.00  0.00     0.096 A 
ENDBRANCH   2   3
ENDBRANCH   1   2
BRANCH   1  13
ATOM     13  N   TRP A   1     -42.417  58.089 -54.428  1.00  0.00    -0.064 N 
ATOM     14  H1  TRP A   1     -42.936  57.286 -54.813  1.00  0.00     0.278 HD
ATOM     15  H2  TRP A   1     -43.028  58.510 -53.706  1.00  0.00     0.278 HD
BRANCH  13  16
HETATM   16  C   UNK A   0     -42.187  59.077 -55.512  1.00  0.00     0.280 C 
BRANCH  16  17
HETATM   17  C   UNK A   0     -42.371  58.503 -56.866  1.00  0.00     0.027 A 
HETATM   18  S   UNK A   0     -43.212  57.023 -57.098  1.00  0.00    -0.076 SA
HETATM   19  C   UNK A   0     -42.811  57.071 -58.766  1.00  0.00     0.079 A 
HETATM   20  N   UNK A   0     -42.156  58.142 -59.156  1.00  0.00    -0.257 NA
HETATM   21  C   UNK A   0     -41.902  58.961 -58.079  1.00  0.00     0.133 A 
BRANCH  19  22
HETATM   22  C   UNK A   0     -43.154  55.925 -59.717  1.00  0.00     0.045 C 
HETATM   23  C   UNK A   0     -43.971  54.758 -59.087  1.00  0.00     0.011 C 
HETATM   24  C   UNK A   0     -44.787  54.712 -60.392  1.00  0.00     0.002 C 
HETATM   25  C   UNK A   0     -44.441  56.202 -60.558  1.00  0.00     0.011 C 
ENDBRANCH  19  22
ENDBRANCH  16  17
ENDBRANCH  13  16
ENDBRANCH   1  13
BRANCH   1  26
ATOM     26  C   TRP A   1     -40.758  58.765 -52.735  1.00  0.00     0.197 C 
BRANCH  26  27
ATOM     27  O   TRP A   1     -39.399  59.118 -53.019  1.00  0.00    -0.399 OA
ATOM     28  H   TRP A   1     -39.397  59.605 -53.868  1.00  0.00     0.209 HD
ENDBRANCH  26  27
ENDBRANCH   1  26
TORSDOF 8
ENDMDL
MODEL 6
REMARK VINA RESULT:      -7.2      2.310      2.687
REMARK  8 active torsions:
REMARK  status: ('A' for Active; 'I' for Inactive)
REMARK    1  A    between atoms: CG_8  and  CB_9 
REMARK    2  A    between atoms: CB_9  and  CA_10 
REMARK    3  A    between atoms: CA_10  and  N_11 
REMARK    4  A    between atoms: CA_10  and  C_14 
REMARK    5  A    between atoms: N_11  and  C_19 
REMARK    6  A    between atoms: C_14  and  O_15 
REMARK    7  A    between atoms: C_19  and  C_20 
REMARK    8  A    between atoms: C_22  and  C_23 
ROOT
ATOM      1  CA  TRP A   1     -41.923  54.920 -55.158  1.00  0.00     0.214 C 
ENDROOT
BRANCH   1   2
ATOM      2  CB  TRP A   1     -40.736  53.942 -55.072  1.00  0.00     0.076 C 
BRANCH   2   3
ATOM      3  CG  TRP A   1     -40.466  53.353 -53.718  1.00  0.00    -0.028 A 
ATOM      4  CD2 TRP A   1     -40.108  52.008 -53.362  1.00  0.00    -0.002 A 
ATOM      5  CE3 TRP A   1     -39.866  50.814 -54.077  1.00  0.00     0.014 A 
ATOM      6  CE2 TRP A   1     -40.012  51.964 -51.969  1.00  0.00     0.042 A 
ATOM      7  CZ3 TRP A   1     -39.582  49.632 -53.382  1.00  0.00     0.001 A 
ATOM      8  CH2 TRP A   1     -39.513  49.624 -51.993  1.00  0.00     0.002 A 
ATOM      9  CZ2 TRP A   1     -39.717  50.794 -51.260  1.00  0.00     0.030 A 
ATOM     10  NE1 TRP A   1     -40.227  53.236 -51.498  1.00  0.00    -0.365 N 
ATOM     11  HE1 TRP A   1     -40.170  53.506 -50.524  1.00  0.00     0.165 HD
ATOM     12  CD1 TRP A   1     -40.522  54.073 -52.538  1.00  0.00     0.096 A 
ENDBRANCH   2   3
ENDBRANCH   1   2
BRANCH   1  13
ATOM     13  N   TRP A   1     -41.771  55.842 -56.353  1.00  0.00    -0.064 N 
ATOM     14  H1  TRP A   1     -40.778  56.034 -56.547  1.00  0.00     0.278 HD
ATOM     15  H2  TRP A   1     -42.130  55.312 -57.168  1.00  0.00     0.278 HD
BRANCH  13  16
HETATM   16  C   UNK A   0     -42.500  57.131 -56.247  1.00  0.00     0.280 C 
BRANCH  16  17
HETATM   17  C   UNK A   0     -43.567  57.275 -57.265  1.00  0.00     0.027 A 
HETATM   18  S   UNK A   0     -44.875  58.365 -57.036  1.00  0.00    -0.076 SA
HETATM   19  C   UNK A   0     -45.599  57.778 -58.477  1.00  0.00     0.079 A 
HETATM   20  N   UNK A   0     -44.898  56.882 -59.135  1.00  0.00    -0.257 NA
HETATM   21  C   UNK A   0     -43.740  56.591 -58.450  1.00  0.00     0.133 A 
BRANCH  19  22
HETATM   22  C   UNK A   0     -46.984  58.237 -58.935  1.00  0.00     0.045 C 
HETATM   23  C   UNK A   0     -47.212  59.778 -58.924  1.00  0.00     0.011 C 
HETATM   24  C   UNK A   0     -47.965  59.609 -60.257  1.00  0.00     0.002 C 
HETATM   25  C   UNK A   0     -47.097  58.360 -60.488  1.00  0.00     0.011 C 
ENDBRANCH  19  22
ENDBRANCH  16  17
ENDBRANCH  13  16
ENDBRANCH   1  13
BRANCH   1  26
ATOM     26  C   TRP A   1     -43.245  54.143 -55.341  1.00  0.00     0.197 C 
BRANCH  26  27
ATOM     27  O   TRP A   1     -44.207  54.687 -54.429  1.00  0.00    -0.399 OA
ATOM     28  H   TRP A   1     -43.773  55.427 -53.957  1.00  0.00     0.209 HD
ENDBRANCH  26  27
ENDBRANCH   1  26
TORSDOF 8
ENDMDL
MODEL 7
REMARK VINA RESULT:      -7.0      1.783      2.266
REMARK  8 active torsions:
REMARK  status: ('A' for Active; 'I' for Inactive)
REMARK    1  A    between atoms: CG_8  and  CB_9 
REMARK    2  A    between atoms: CB_9  and  CA_10 
REMARK    3  A    between atoms: CA_10  and  N_11 
REMARK    4  A    between atoms: CA_10  and  C_14 
REMARK    5  A    between atoms: N_11  and  C_19 
REMARK    6  A    between atoms: C_14  and  O_15 
REMARK    7  A    between atoms: C_19  and  C_20 
REMARK    8  A    between atoms: C_22  and  C_23 
ROOT
ATOM      1  CA  TRP A   1     -42.802  56.534 -51.474  1.00  0.00     0.214 C 
ENDROOT
BRANCH   1   2
ATOM      2  CB  TRP A   1     -43.096  55.023 -51.548  1.00  0.00     0.076 C 
BRANCH   2   3
ATOM      3  CG  TRP A   1     -41.922  54.114 -51.333  1.00  0.00    -0.028 A 
ATOM      4  CD2 TRP A   1     -41.194  53.323 -52.286  1.00  0.00    -0.002 A 
ATOM      5  CE3 TRP A   1     -41.267  53.119 -53.682  1.00  0.00     0.014 A 
ATOM      6  CE2 TRP A   1     -40.217  52.620 -51.575  1.00  0.00     0.042 A 
ATOM      7  CZ3 TRP A   1     -40.402  52.205 -54.298  1.00  0.00     0.001 A 
ATOM      8  CH2 TRP A   1     -39.456  51.509 -53.553  1.00  0.00     0.002 A 
ATOM      9  CZ2 TRP A   1     -39.339  51.712 -52.177  1.00  0.00     0.030 A 
ATOM     10  NE1 TRP A   1     -40.295  53.015 -50.263  1.00  0.00    -0.365 N 
ATOM     11  HE1 TRP A   1     -39.673  52.700 -49.529  1.00  0.00     0.165 HD
ATOM     12  CD1 TRP A   1     -41.329  53.896 -50.102  1.00  0.00     0.096 A 
ENDBRANCH   2   3
ENDBRANCH   1   2
BRANCH   1  13
ATOM     13  N   TRP A   1     -42.254  57.037 -52.795  1.00  0.00    -0.064 N 
ATOM     14  H1  TRP A   1     -41.248  57.246 -52.723  1.00  0.00     0.278 HD
ATOM     15  H2  TRP A   1     -42.341  56.246 -53.458  1.00  0.00     0.278 HD
BRANCH  13  16
HETATM   16  C   UNK A   0     -42.953  58.223 -53.353  1.00  0.00     0.280 C 
BRANCH  16  17
HETATM   17  C   UNK A   0     -43.522  57.976 -54.699  1.00  0.00     0.027 A 
HETATM   18  S   UNK A   0     -42.573  57.287 -55.954  1.00  0.00    -0.076 SA
HETATM   19  C   UNK A   0     -43.874  57.519 -57.049  1.00  0.00     0.079 A 
HETATM   20  N   UNK A   0     -44.973  58.011 -56.520  1.00  0.00    -0.257 NA
HETATM   21  C   UNK A   0     -44.779  58.274 -55.183  1.00  0.00     0.133 A 
BRANCH  19  22
HETATM   22  C   UNK A   0     -43.744  57.216 -58.541  1.00  0.00     0.045 C 
HETATM   23  C   UNK A   0     -42.347  57.515 -59.162  1.00  0.00     0.011 C 
HETATM   24  C   UNK A   0     -42.499  56.209 -59.966  1.00  0.00     0.002 C 
HETATM   25  C   UNK A   0     -43.410  55.718 -58.826  1.00  0.00     0.011 C 
ENDBRANCH  19  22
ENDBRANCH  16  17
ENDBRANCH  13  16
ENDBRANCH   1  13
BRANCH   1  26
ATOM     26  C   TRP A   1     -44.100  57.319 -51.184  1.00  0.00     0.197 C 
BRANCH  26  27
ATOM     27  O   TRP A   1     -45.049  56.409 -50.615  1.00  0.00    -0.399 OA
ATOM     28  H   TRP A   1     -44.968  55.563 -51.101  1.00  0.00     0.209 HD
ENDBRANCH  26  27
ENDBRANCH   1  26
TORSDOF 8
ENDMDL
MODEL 8
REMARK VINA RESULT:      -6.7      2.789      7.289
REMARK  8 active torsions:
REMARK  status: ('A' for Active; 'I' for Inactive)
REMARK    1  A    between atoms: CG_8  and  CB_9 
REMARK    2  A    between atoms: CB_9  and  CA_10 
REMARK    3  A    between atoms: CA_10  and  N_11 
REMARK    4  A    between atoms: CA_10  and  C_14 
REMARK    5  A    between atoms: N_11  and  C_19 
REMARK    6  A    between atoms: C_14  and  O_15 
REMARK    7  A    between atoms: C_19  and  C_20 
REMARK    8  A    between atoms: C_22  and  C_23 
ROOT
ATOM      1  CA  TRP A   1     -42.746  57.005 -51.684  1.00  0.00     0.214 C 
ENDROOT
BRANCH   1   2
ATOM      2  CB  TRP A   1     -41.939  58.300 -51.902  1.00  0.00     0.076 C 
BRANCH   2   3
ATOM      3  CG  TRP A   1     -42.056  58.927 -53.260  1.00  0.00    -0.028 A 
ATOM      4  CD2 TRP A   1     -42.203  58.302 -54.545  1.00  0.00    -0.002 A 
ATOM      5  CE3 TRP A   1     -42.310  56.970 -55.003  1.00  0.00     0.014 A 
ATOM      6  CE2 TRP A   1     -42.224  59.323 -55.498  1.00  0.00     0.042 A 
ATOM      7  CZ3 TRP A   1     -42.391  56.712 -56.378  1.00  0.00     0.001 A 
ATOM      8  CH2 TRP A   1     -42.389  57.755 -57.298  1.00  0.00     0.002 A 
ATOM      9  CZ2 TRP A   1     -42.316  59.082 -56.874  1.00  0.00     0.030 A 
ATOM     10  NE1 TRP A   1     -42.166  60.519 -54.826  1.00  0.00    -0.365 N 
ATOM     11  HE1 TRP A   1     -42.212  61.430 -55.267  1.00  0.00     0.165 HD
ATOM     12  CD1 TRP A   1     -42.044  60.293 -53.483  1.00  0.00     0.096 A 
ENDBRANCH   2   3
ENDBRANCH   1   2
BRANCH   1  13
ATOM     13  N   TRP A   1     -42.321  56.320 -50.400  1.00  0.00    -0.064 N 
ATOM     14  H1  TRP A   1     -41.307  56.418 -50.246  1.00  0.00     0.278 HD
ATOM     15  H2  TRP A   1     -42.784  56.841 -49.634  1.00  0.00     0.278 HD
BRANCH  13  16
HETATM   16  C   UNK A   0     -42.685  54.883 -50.305  1.00  0.00     0.280 C 
BRANCH  16  17
HETATM   17  C   UNK A   0     -41.615  53.983 -50.793  1.00  0.00     0.027 A 
HETATM   18  S   UNK A   0     -41.416  53.663 -52.469  1.00  0.00    -0.076 SA
HETATM   19  C   UNK A   0     -40.192  52.521 -52.093  1.00  0.00     0.079 A 
HETATM   20  N   UNK A   0     -39.888  52.421 -50.818  1.00  0.00    -0.257 NA
HETATM   21  C   UNK A   0     -40.695  53.250 -50.073  1.00  0.00     0.133 A 
BRANCH  19  22
HETATM   22  C   UNK A   0     -39.535  51.652 -53.165  1.00  0.00     0.045 C 
HETATM   23  C   UNK A   0     -39.651  50.114 -52.940  1.00  0.00     0.011 C 
HETATM   24  C   UNK A   0     -39.903  49.979 -54.453  1.00  0.00     0.002 C 
HETATM   25  C   UNK A   0     -40.461  51.412 -54.400  1.00  0.00     0.011 C 
ENDBRANCH  19  22
ENDBRANCH  16  17
ENDBRANCH  13  16
ENDBRANCH   1  13
BRANCH   1  26
ATOM     26  C   TRP A   1     -44.251  57.326 -51.560  1.00  0.00     0.197 C 
BRANCH  26  27
ATOM     27  O   TRP A   1     -44.400  58.383 -50.604  1.00  0.00    -0.399 OA
ATOM     28  H   TRP A   1     -43.605  58.371 -50.032  1.00  0.00     0.209 HD
ENDBRANCH  26  27
ENDBRANCH   1  26
TORSDOF 8
ENDMDL
MODEL 9
REMARK VINA RESULT:      -6.7      4.070      6.252
REMARK  8 active torsions:
REMARK  status: ('A' for Active; 'I' for Inactive)
REMARK    1  A    between atoms: CG_8  and  CB_9 
REMARK    2  A    between atoms: CB_9  and  CA_10 
REMARK    3  A    between atoms: CA_10  and  N_11 
REMARK    4  A    between atoms: CA_10  and  C_14 
REMARK    5  A    between atoms: N_11  and  C_19 
REMARK    6  A    between atoms: C_14  and  O_15 
REMARK    7  A    between atoms: C_19  and  C_20 
REMARK    8  A    between atoms: C_22  and  C_23 
ROOT
ATOM      1  CA  TRP A   1     -42.571  55.283 -53.374  1.00  0.00     0.214 C 
ENDROOT
BRANCH   1   2
ATOM      2  CB  TRP A   1     -41.142  54.794 -53.676  1.00  0.00     0.076 C 
BRANCH   2   3
ATOM      3  CG  TRP A   1     -40.621  53.699 -52.793  1.00  0.00    -0.028 A 
ATOM      4  CD2 TRP A   1     -40.291  52.340 -53.120  1.00  0.00    -0.002 A 
ATOM      5  CE3 TRP A   1     -40.301  51.565 -54.301  1.00  0.00     0.014 A 
ATOM      6  CE2 TRP A   1     -39.890  51.717 -51.935  1.00  0.00     0.042 A 
ATOM      7  CZ3 TRP A   1     -39.955  50.208 -54.246  1.00  0.00     0.001 A 
ATOM      8  CH2 TRP A   1     -39.580  49.619 -53.043  1.00  0.00     0.002 A 
ATOM      9  CZ2 TRP A   1     -39.530  50.367 -51.866  1.00  0.00     0.030 A 
ATOM     10  NE1 TRP A   1     -39.903  52.667 -50.944  1.00  0.00    -0.365 N 
ATOM     11  HE1 TRP A   1     -39.611  52.504 -49.987  1.00  0.00     0.165 HD
ATOM     12  CD1 TRP A   1     -40.361  53.855 -51.443  1.00  0.00     0.096 A 
ENDBRANCH   2   3
ENDBRANCH   1   2
BRANCH   1  13
ATOM     13  N   TRP A   1     -42.648  56.795 -53.457  1.00  0.00    -0.064 N 
ATOM     14  H1  TRP A   1     -41.892  57.234 -52.914  1.00  0.00     0.278 HD
ATOM     15  H2  TRP A   1     -42.472  57.034 -54.449  1.00  0.00     0.278 HD
BRANCH  13  16
HETATM   16  C   UNK A   0     -43.946  57.381 -53.036  1.00  0.00     0.280 C 
BRANCH  16  17
HETATM   17  C   UNK A   0     -43.791  58.479 -52.053  1.00  0.00     0.027 A 
HETATM   18  S   UNK A   0     -45.140  59.409 -51.537  1.00  0.00    -0.076 SA
HETATM   19  C   UNK A   0     -44.082  60.424 -50.644  1.00  0.00     0.079 A 
HETATM   20  N   UNK A   0     -42.816  60.069 -50.659  1.00  0.00    -0.257 NA
HETATM   21  C   UNK A   0     -42.644  58.963 -51.460  1.00  0.00     0.133 A 
BRANCH  19  22
HETATM   22  C   UNK A   0     -44.577  61.676 -49.920  1.00  0.00     0.045 C 
HETATM   23  C   UNK A   0     -46.121  61.778 -49.744  1.00  0.00     0.011 C 
HETATM   24  C   UNK A   0     -45.858  62.320 -48.327  1.00  0.00     0.002 C 
HETATM   25  C   UNK A   0     -44.538  61.530 -48.365  1.00  0.00     0.011 C 
ENDBRANCH  19  22
ENDBRANCH  16  17
ENDBRANCH  13  16
ENDBRANCH   1  13
BRANCH   1  26
ATOM     26  C   TRP A   1     -43.563  54.714 -54.412  1.00  0.00     0.197 C 
BRANCH  26  27
ATOM     27  O   TRP A   1     -42.807  54.242 -55.534  1.00  0.00    -0.399 OA
ATOM     28  H   TRP A   1     -42.212  54.970 -55.809  1.00  0.00     0.209 HD
ENDBRANCH  26  27
ENDBRANCH   1  26
TORSDOF 8
ENDMDL
MODEL 10
REMARK VINA RESULT:      -6.7      1.871      2.619
REMARK  8 active torsions:
REMARK  status: ('A' for Active; 'I' for Inactive)
REMARK    1  A    between atoms: CG_8  and  CB_9 
REMARK    2  A    between atoms: CB_9  and  CA_10 
REMARK    3  A    between atoms: CA_10  and  N_11 
REMARK    4  A    between atoms: CA_10  and  C_14 
REMARK    5  A    between atoms: N_11  and  C_19 
REMARK    6  A    between atoms: C_14  and  O_15 
REMARK    7  A    between atoms: C_19  and  C_20 
REMARK    8  A    between atoms: C_22  and  C_23 
ROOT
ATOM      1  CA  TRP A   1     -42.868  55.906 -51.262  1.00  0.00     0.214 C 
ENDROOT
BRANCH   1   2
ATOM      2  CB  TRP A   1     -41.456  55.831 -51.872  1.00  0.00     0.076 C 
BRANCH   2   3
ATOM      3  CG  TRP A   1     -41.237  54.753 -52.893  1.00  0.00    -0.028 A 
ATOM      4  CD2 TRP A   1     -40.655  53.450 -52.734  1.00  0.00    -0.002 A 
ATOM      5  CE3 TRP A   1     -40.125  52.715 -51.649  1.00  0.00     0.014 A 
ATOM      6  CE2 TRP A   1     -40.642  52.849 -53.996  1.00  0.00     0.042 A 
ATOM      7  CZ3 TRP A   1     -39.574  51.446 -51.872  1.00  0.00     0.001 A 
ATOM      8  CH2 TRP A   1     -39.562  50.890 -53.146  1.00  0.00     0.002 A 
ATOM      9  CZ2 TRP A   1     -40.106  51.578 -54.232  1.00  0.00     0.030 A 
ATOM     10  NE1 TRP A   1     -41.251  53.713 -54.872  1.00  0.00    -0.365 N 
ATOM     11  HE1 TRP A   1     -41.423  53.514 -55.850  1.00  0.00     0.165 HD
ATOM     12  CD1 TRP A   1     -41.594  54.868 -54.225  1.00  0.00     0.096 A 
ENDBRANCH   2   3
ENDBRANCH   1   2
BRANCH   1  13
ATOM     13  N   TRP A   1     -43.900  56.193 -52.335  1.00  0.00    -0.064 N 
ATOM     14  H1  TRP A   1     -43.699  55.660 -53.194  1.00  0.00     0.278 HD
ATOM     15  H2  TRP A   1     -44.799  55.829 -51.970  1.00  0.00     0.278 HD
BRANCH  13  16
HETATM   16  C   UNK A   0     -44.060  57.627 -52.685  1.00  0.00     0.280 C 
BRANCH  16  17
HETATM   17  C   UNK A   0     -43.505  57.960 -54.018  1.00  0.00     0.027 A 
HETATM   18  S   UNK A   0     -44.174  57.295 -55.453  1.00  0.00    -0.076 SA
HETATM   19  C   UNK A   0     -42.917  58.027 -56.364  1.00  0.00     0.079 A 
HETATM   20  N   UNK A   0     -42.087  58.777 -55.674  1.00  0.00    -0.257 NA
HETATM   21  C   UNK A   0     -42.415  58.743 -54.339  1.00  0.00     0.133 A 
BRANCH  19  22
HETATM   22  C   UNK A   0     -42.755  57.785 -57.865  1.00  0.00     0.045 C 
HETATM   23  C   UNK A   0     -43.007  56.322 -58.334  1.00  0.00     0.011 C 
HETATM   24  C   UNK A   0     -43.734  56.910 -59.558  1.00  0.00     0.002 C 
HETATM   25  C   UNK A   0     -44.043  58.133 -58.676  1.00  0.00     0.011 C 
ENDBRANCH  19  22
ENDBRANCH  16  17
ENDBRANCH  13  16
ENDBRANCH   1  13
BRANCH   1  26
ATOM     26  C   TRP A   1     -43.244  54.557 -50.610  1.00  0.00     0.197 C 
BRANCH  26  27
ATOM     27  O   TRP A   1     -44.252  53.941 -51.420  1.00  0.00    -0.399 OA
ATOM     28  H   TRP A   1     -44.547  54.608 -52.073  1.00  0.00     0.209 HD
ENDBRANCH  26  27
ENDBRANCH   1  26
TORSDOF 8
ENDMDL
