MODEL 1
REMARK VINA RESULT:      -7.6      0.000      0.000
REMARK  6 active torsions:
REMARK  status: ('A' for Active; 'I' for Inactive)
REMARK    1  A    between atoms: C_2  and  C_3 
REMARK    2  A    between atoms: C_5  and  N_6 
REMARK       I    between atoms: N_6  and  C_7 
REMARK       I    between atoms: C_7  and  N_8 
REMARK    3  A    between atoms: N_8  and  C_9 
REMARK    4  A    between atoms: C_9  and  C_10 
REMARK    5  A    between atoms: C_11  and  N_12 
REMARK    6  A    between atoms: C_19  and  O_20 
ROOT
HETATM    1  N   UNL     1     -41.204  56.000 -50.279  1.00  0.00    -0.306 N 
HETATM    2  C   UNL     1     -40.981  54.701 -49.976  1.00  0.00     0.321 C 
HETATM    3  N   UNL     1     -40.351  53.930 -50.902  1.00  0.00    -0.338 N 
HETATM    4  O   UNL     1     -41.197  54.298 -48.835  1.00  0.00    -0.247 OA
HETATM    5  H   UNL     1     -41.319  56.591 -49.462  1.00  0.00     0.171 HD
HETATM    6  H   UNL     1     -39.961  54.403 -51.706  1.00  0.00     0.164 HD
ENDROOT
BRANCH   1   7
HETATM    7  C   UNL     1     -41.412  56.682 -51.491  1.00  0.00     0.070 A 
HETATM    8  C   UNL     1     -42.207  56.178 -52.529  1.00  0.00     0.040 A 
HETATM    9  C   UNL     1     -42.486  56.950 -53.675  1.00  0.00    -0.048 A 
HETATM   10  C   UNL     1     -41.921  58.237 -53.739  1.00  0.00     0.011 A 
HETATM   11  C   UNL     1     -41.127  58.748 -52.707  1.00  0.00     0.039 A 
HETATM   12  C   UNL     1     -40.886  57.985 -51.571  1.00  0.00     0.095 A 
BRANCH   9  13
HETATM   13  C   UNL     1     -43.469  56.462 -54.759  1.00  0.00    -0.024 C 
HETATM   14  C   UNL     1     -43.716  54.956 -54.534  1.00  0.00     0.019 C 
HETATM   15  C   UNL     1     -42.924  56.664 -56.191  1.00  0.00     0.019 C 
HETATM   16  C   UNL     1     -44.831  57.193 -54.701  1.00  0.00     0.019 C 
ENDBRANCH   9  13
BRANCH  12  17
HETATM   17  O   UNL     1     -40.157  58.392 -50.479  1.00  0.00    -0.354 OA
HETATM   18  C   UNL     1     -39.199  59.425 -50.688  1.00  0.00     0.210 C 
ENDBRANCH  12  17
ENDBRANCH   1   7
BRANCH   3  19
HETATM   19  C   UNL     1     -39.983  52.551 -50.631  1.00  0.00     0.166 C 
BRANCH  19  20
HETATM   20  C   UNL     1     -39.896  51.682 -51.871  1.00  0.00     0.003 A 
HETATM   21  C   UNL     1     -39.557  50.315 -51.831  1.00  0.00     0.106 A 
HETATM   22  N   UNL     1     -39.542  49.622 -52.980  1.00  0.00    -0.352 N 
HETATM   23  H   UNL     1     -39.332  48.632 -52.911  1.00  0.00     0.166 HD
HETATM   24  C   UNL     1     -39.844  50.142 -54.173  1.00  0.00     0.089 A 
HETATM   25  C   UNL     1     -40.194  51.475 -54.277  1.00  0.00     0.018 A 
HETATM   26  C   UNL     1     -40.206  52.250 -53.121  1.00  0.00     0.014 A 
BRANCH  21  27
HETATM   27  N   UNL     1     -39.414  49.578 -50.682  1.00  0.00    -0.385 N 
HETATM   28  H   UNL     1     -40.164  49.669 -49.981  1.00  0.00     0.157 HD
HETATM   29  H   UNL     1     -38.522  49.435 -50.230  1.00  0.00     0.157 HD
ENDBRANCH  21  27
ENDBRANCH  19  20
ENDBRANCH   3  19
TORSDOF 6
ENDMDL
MODEL 2
REMARK VINA RESULT:      -7.3      2.782      6.677
REMARK  6 active torsions:
REMARK  status: ('A' for Active; 'I' for Inactive)
REMARK    1  A    between atoms: C_2  and  C_3 
REMARK    2  A    between atoms: C_5  and  N_6 
REMARK       I    between atoms: N_6  and  C_7 
REMARK       I    between atoms: C_7  and  N_8 
REMARK    3  A    between atoms: N_8  and  C_9 
REMARK    4  A    between atoms: C_9  and  C_10 
REMARK    5  A    between atoms: C_11  and  N_12 
REMARK    6  A    between atoms: C_19  and  O_20 
ROOT
HETATM    1  N   UNL     1     -41.057  56.738 -50.468  1.00  0.00    -0.306 N 
HETATM    2  C   UNL     1     -41.892  57.761 -50.759  1.00  0.00     0.321 C 
HETATM    3  N   UNL     1     -43.167  57.459 -51.125  1.00  0.00    -0.338 N 
HETATM    4  O   UNL     1     -41.539  58.916 -50.532  1.00  0.00    -0.247 OA
HETATM    5  H   UNL     1     -40.285  57.006 -49.865  1.00  0.00     0.171 HD
HETATM    6  H   UNL     1     -43.458  56.496 -51.024  1.00  0.00     0.164 HD
ENDROOT
BRANCH   1   7
HETATM    7  C   UNL     1     -40.980  55.405 -50.909  1.00  0.00     0.070 A 
HETATM    8  C   UNL     1     -41.095  55.034 -52.255  1.00  0.00     0.040 A 
HETATM    9  C   UNL     1     -40.889  53.701 -52.664  1.00  0.00    -0.048 A 
HETATM   10  C   UNL     1     -40.580  52.759 -51.665  1.00  0.00     0.011 A 
HETATM   11  C   UNL     1     -40.463  53.121 -50.320  1.00  0.00     0.039 A 
HETATM   12  C   UNL     1     -40.639  54.446 -49.937  1.00  0.00     0.095 A 
BRANCH   9  13
HETATM   13  C   UNL     1     -40.877  53.305 -54.156  1.00  0.00    -0.024 C 
HETATM   14  C   UNL     1     -42.319  53.423 -54.691  1.00  0.00     0.019 C 
HETATM   15  C   UNL     1     -40.384  51.858 -54.384  1.00  0.00     0.019 C 
HETATM   16  C   UNL     1     -39.966  54.219 -55.008  1.00  0.00     0.019 C 
ENDBRANCH   9  13
BRANCH  12  17
HETATM   17  O   UNL     1     -40.512  54.928 -48.656  1.00  0.00    -0.354 OA
HETATM   18  C   UNL     1     -40.255  53.975 -47.628  1.00  0.00     0.210 C 
ENDBRANCH  12  17
ENDBRANCH   1   7
BRANCH   3  19
HETATM   19  C   UNL     1     -44.161  58.490 -51.365  1.00  0.00     0.166 C 
BRANCH  19  20
HETATM   20  C   UNL     1     -44.649  58.552 -52.800  1.00  0.00     0.003 A 
HETATM   21  C   UNL     1     -45.299  59.677 -53.344  1.00  0.00     0.106 A 
HETATM   22  N   UNL     1     -45.661  59.650 -54.636  1.00  0.00    -0.352 N 
HETATM   23  H   UNL     1     -46.093  60.490 -55.005  1.00  0.00     0.166 HD
HETATM   24  C   UNL     1     -45.433  58.620 -55.456  1.00  0.00     0.089 A 
HETATM   25  C   UNL     1     -44.790  57.491 -54.985  1.00  0.00     0.018 A 
HETATM   26  C   UNL     1     -44.410  57.454 -53.647  1.00  0.00     0.014 A 
BRANCH  21  27
HETATM   27  N   UNL     1     -45.436  60.886 -52.706  1.00  0.00    -0.385 N 
HETATM   28  H   UNL     1     -46.378  61.305 -52.714  1.00  0.00     0.157 HD
HETATM   29  H   UNL     1     -44.728  61.605 -52.736  1.00  0.00     0.157 HD
ENDBRANCH  21  27
ENDBRANCH  19  20
ENDBRANCH   3  19
TORSDOF 6
ENDMDL
MODEL 3
REMARK VINA RESULT:      -7.2      3.786      7.287
REMARK  6 active torsions:
REMARK  status: ('A' for Active; 'I' for Inactive)
REMARK    1  A    between atoms: C_2  and  C_3 
REMARK    2  A    between atoms: C_5  and  N_6 
REMARK       I    between atoms: N_6  and  C_7 
REMARK       I    between atoms: C_7  and  N_8 
REMARK    3  A    between atoms: N_8  and  C_9 
REMARK    4  A    between atoms: C_9  and  C_10 
REMARK    5  A    between atoms: C_11  and  N_12 
REMARK    6  A    between atoms: C_19  and  O_20 
ROOT
HETATM    1  N   UNL     1     -41.983  53.240 -54.738  1.00  0.00    -0.306 N 
HETATM    2  C   UNL     1     -42.887  54.091 -55.273  1.00  0.00     0.321 C 
HETATM    3  N   UNL     1     -42.788  55.409 -54.954  1.00  0.00    -0.338 N 
HETATM    4  O   UNL     1     -43.658  53.690 -56.143  1.00  0.00    -0.247 OA
HETATM    5  H   UNL     1     -41.866  52.386 -55.274  1.00  0.00     0.171 HD
HETATM    6  H   UNL     1     -41.962  55.699 -54.448  1.00  0.00     0.164 HD
ENDROOT
BRANCH   1   7
HETATM    7  C   UNL     1     -41.247  53.248 -53.540  1.00  0.00     0.070 A 
HETATM    8  C   UNL     1     -41.527  54.112 -52.473  1.00  0.00     0.040 A 
HETATM    9  C   UNL     1     -40.841  54.002 -51.246  1.00  0.00    -0.048 A 
HETATM   10  C   UNL     1     -39.858  53.000 -51.143  1.00  0.00     0.011 A 
HETATM   11  C   UNL     1     -39.574  52.133 -52.203  1.00  0.00     0.039 A 
HETATM   12  C   UNL     1     -40.279  52.236 -53.396  1.00  0.00     0.095 A 
BRANCH   9  13
HETATM   13  C   UNL     1     -41.234  54.854 -50.020  1.00  0.00    -0.024 C 
HETATM   14  C   UNL     1     -42.768  54.793 -49.870  1.00  0.00     0.019 C 
HETATM   15  C   UNL     1     -40.812  56.334 -50.166  1.00  0.00     0.019 C 
HETATM   16  C   UNL     1     -40.595  54.342 -48.709  1.00  0.00     0.019 C 
ENDBRANCH   9  13
BRANCH  12  17
HETATM   17  O   UNL     1     -40.117  51.419 -54.490  1.00  0.00    -0.354 OA
HETATM   18  C   UNL     1     -39.910  50.033 -54.237  1.00  0.00     0.210 C 
ENDBRANCH  12  17
ENDBRANCH   1   7
BRANCH   3  19
HETATM   19  C   UNL     1     -43.654  56.411 -55.552  1.00  0.00     0.166 C 
BRANCH  19  20
HETATM   20  C   UNL     1     -43.052  57.101 -56.761  1.00  0.00     0.003 A 
HETATM   21  C   UNL     1     -43.127  56.574 -58.065  1.00  0.00     0.106 A 
HETATM   22  N   UNL     1     -42.595  57.279 -59.076  1.00  0.00    -0.352 N 
HETATM   23  H   UNL     1     -42.700  56.889 -60.006  1.00  0.00     0.166 HD
HETATM   24  C   UNL     1     -42.003  58.468 -58.931  1.00  0.00     0.089 A 
HETATM   25  C   UNL     1     -41.908  59.043 -57.678  1.00  0.00     0.018 A 
HETATM   26  C   UNL     1     -42.423  58.349 -56.588  1.00  0.00     0.014 A 
BRANCH  21  27
HETATM   27  N   UNL     1     -43.864  55.473 -58.422  1.00  0.00    -0.385 N 
HETATM   28  H   UNL     1     -43.928  55.269 -59.431  1.00  0.00     0.157 HD
HETATM   29  H   UNL     1     -44.719  55.209 -57.954  1.00  0.00     0.157 HD
ENDBRANCH  21  27
ENDBRANCH  19  20
ENDBRANCH   3  19
TORSDOF 6
ENDMDL
MODEL 4
REMARK VINA RESULT:      -7.2      3.256      7.313
REMARK  6 active torsions:
REMARK  status: ('A' for Active; 'I' for Inactive)
REMARK    1  A    between atoms: C_2  and  C_3 
REMARK    2  A    between atoms: C_5  and  N_6 
REMARK       I    between atoms: N_6  and  C_7 
REMARK       I    between atoms: C_7  and  N_8 
REMARK    3  A    between atoms: N_8  and  C_9 
REMARK    4  A    between atoms: C_9  and  C_10 
REMARK    5  A    between atoms: C_11  and  N_12 
REMARK    6  A    between atoms: C_19  and  O_20 
ROOT
HETATM    1  N   UNL     1     -41.938  53.309 -54.706  1.00  0.00    -0.306 N 
HETATM    2  C   UNL     1     -42.510  54.326 -55.390  1.00  0.00     0.321 C 
HETATM    3  N   UNL     1     -41.955  55.563 -55.275  1.00  0.00    -0.338 N 
HETATM    4  O   UNL     1     -43.394  54.086 -56.208  1.00  0.00    -0.247 OA
HETATM    5  H   UNL     1     -42.137  52.396 -55.100  1.00  0.00     0.171 HD
HETATM    6  H   UNL     1     -41.065  55.625 -54.797  1.00  0.00     0.164 HD
ENDROOT
BRANCH   1   7
HETATM    7  C   UNL     1     -41.212  53.249 -53.503  1.00  0.00     0.070 A 
HETATM    8  C   UNL     1     -41.465  54.087 -52.409  1.00  0.00     0.040 A 
HETATM    9  C   UNL     1     -40.794  53.908 -51.183  1.00  0.00    -0.048 A 
HETATM   10  C   UNL     1     -39.851  52.866 -51.108  1.00  0.00     0.011 A 
HETATM   11  C   UNL     1     -39.593  52.024 -52.195  1.00  0.00     0.039 A 
HETATM   12  C   UNL     1     -40.285  52.195 -53.388  1.00  0.00     0.095 A 
BRANCH   9  13
HETATM   13  C   UNL     1     -41.162  54.734 -49.932  1.00  0.00    -0.024 C 
HETATM   14  C   UNL     1     -42.698  54.733 -49.797  1.00  0.00     0.019 C 
HETATM   15  C   UNL     1     -40.675  56.198 -50.021  1.00  0.00     0.019 C 
HETATM   16  C   UNL     1     -40.559  54.149 -48.633  1.00  0.00     0.019 C 
ENDBRANCH   9  13
BRANCH  12  17
HETATM   17  O   UNL     1     -40.146  51.410 -54.508  1.00  0.00    -0.354 OA
HETATM   18  C   UNL     1     -40.079  50.002 -54.307  1.00  0.00     0.210 C 
ENDBRANCH  12  17
ENDBRANCH   1   7
BRANCH   3  19
HETATM   19  C   UNL     1     -42.439  56.696 -56.043  1.00  0.00     0.166 C 
BRANCH  19  20
HETATM   20  C   UNL     1     -43.120  57.762 -55.206  1.00  0.00     0.003 A 
HETATM   21  C   UNL     1     -44.413  57.611 -54.668  1.00  0.00     0.106 A 
HETATM   22  N   UNL     1     -44.914  58.597 -53.909  1.00  0.00    -0.352 N 
HETATM   23  H   UNL     1     -45.832  58.439 -53.507  1.00  0.00     0.166 HD
HETATM   24  C   UNL     1     -44.257  59.722 -53.612  1.00  0.00     0.089 A 
HETATM   25  C   UNL     1     -42.981  59.926 -54.101  1.00  0.00     0.018 A 
HETATM   26  C   UNL     1     -42.417  58.946 -54.912  1.00  0.00     0.014 A 
BRANCH  21  27
HETATM   27  N   UNL     1     -45.144  56.449 -54.706  1.00  0.00    -0.385 N 
HETATM   28  H   UNL     1     -45.821  56.307 -53.942  1.00  0.00     0.157 HD
HETATM   29  H   UNL     1     -44.756  55.566 -55.003  1.00  0.00     0.157 HD
ENDBRANCH  21  27
ENDBRANCH  19  20
ENDBRANCH   3  19
TORSDOF 6
ENDMDL
MODEL 5
REMARK VINA RESULT:      -6.9      2.515      3.624
REMARK  6 active torsions:
REMARK  status: ('A' for Active; 'I' for Inactive)
REMARK    1  A    between atoms: C_2  and  C_3 
REMARK    2  A    between atoms: C_5  and  N_6 
REMARK       I    between atoms: N_6  and  C_7 
REMARK       I    between atoms: C_7  and  N_8 
REMARK    3  A    between atoms: N_8  and  C_9 
REMARK    4  A    between atoms: C_9  and  C_10 
REMARK    5  A    between atoms: C_11  and  N_12 
REMARK    6  A    between atoms: C_19  and  O_20 
ROOT
HETATM    1  N   UNL     1     -43.611  56.018 -54.166  1.00  0.00    -0.306 N 
HETATM    2  C   UNL     1     -42.988  55.205 -53.284  1.00  0.00     0.321 C 
HETATM    3  N   UNL     1     -41.657  55.392 -53.075  1.00  0.00    -0.338 N 
HETATM    4  O   UNL     1     -43.653  54.442 -52.586  1.00  0.00    -0.247 OA
HETATM    5  H   UNL     1     -44.611  56.091 -54.011  1.00  0.00     0.171 HD
HETATM    6  H   UNL     1     -41.239  56.216 -53.485  1.00  0.00     0.164 HD
ENDROOT
BRANCH   1   7
HETATM    7  C   UNL     1     -43.177  56.702 -55.315  1.00  0.00     0.070 A 
HETATM    8  C   UNL     1     -43.358  56.212 -56.616  1.00  0.00     0.040 A 
HETATM    9  C   UNL     1     -43.016  56.988 -57.742  1.00  0.00    -0.048 A 
HETATM   10  C   UNL     1     -42.472  58.264 -57.506  1.00  0.00     0.011 A 
HETATM   11  C   UNL     1     -42.289  58.761 -56.211  1.00  0.00     0.039 A 
HETATM   12  C   UNL     1     -42.659  57.995 -55.112  1.00  0.00     0.095 A 
BRANCH   9  13
HETATM   13  C   UNL     1     -43.337  56.517 -59.176  1.00  0.00    -0.024 C 
HETATM   14  C   UNL     1     -42.044  56.621 -60.011  1.00  0.00     0.019 C 
HETATM   15  C   UNL     1     -44.431  57.374 -59.852  1.00  0.00     0.019 C 
HETATM   16  C   UNL     1     -43.832  55.053 -59.226  1.00  0.00     0.019 C 
ENDBRANCH   9  13
BRANCH  12  17
HETATM   17  O   UNL     1     -42.564  58.390 -53.799  1.00  0.00    -0.354 OA
HETATM   18  C   UNL     1     -41.358  59.036 -53.403  1.00  0.00     0.210 C 
ENDBRANCH  12  17
ENDBRANCH   1   7
BRANCH   3  19
HETATM   19  C   UNL     1     -40.922  54.632 -52.079  1.00  0.00     0.166 C 
BRANCH  19  20
HETATM   20  C   UNL     1     -40.438  53.281 -52.570  1.00  0.00     0.003 A 
HETATM   21  C   UNL     1     -40.038  52.244 -51.704  1.00  0.00     0.106 A 
HETATM   22  N   UNL     1     -39.660  51.071 -52.235  1.00  0.00    -0.352 N 
HETATM   23  H   UNL     1     -39.415  50.335 -51.582  1.00  0.00     0.166 HD
HETATM   24  C   UNL     1     -39.648  50.810 -53.545  1.00  0.00     0.089 A 
HETATM   25  C   UNL     1     -40.038  51.783 -54.446  1.00  0.00     0.018 A 
HETATM   26  C   UNL     1     -40.422  53.027 -53.955  1.00  0.00     0.014 A 
BRANCH  21  27
HETATM   27  N   UNL     1     -40.175  52.270 -50.338  1.00  0.00    -0.385 N 
HETATM   28  H   UNL     1     -40.567  51.424 -49.899  1.00  0.00     0.157 HD
HETATM   29  H   UNL     1     -40.460  53.096 -49.831  1.00  0.00     0.157 HD
ENDBRANCH  21  27
ENDBRANCH  19  20
ENDBRANCH   3  19
TORSDOF 6
ENDMDL
MODEL 6
REMARK VINA RESULT:      -6.9      2.609      4.419
REMARK  6 active torsions:
REMARK  status: ('A' for Active; 'I' for Inactive)
REMARK    1  A    between atoms: C_2  and  C_3 
REMARK    2  A    between atoms: C_5  and  N_6 
REMARK       I    between atoms: N_6  and  C_7 
REMARK       I    between atoms: C_7  and  N_8 
REMARK    3  A    between atoms: N_8  and  C_9 
REMARK    4  A    between atoms: C_9  and  C_10 
REMARK    5  A    between atoms: C_11  and  N_12 
REMARK    6  A    between atoms: C_19  and  O_20 
ROOT
HETATM    1  N   UNL     1     -43.106  55.823 -54.600  1.00  0.00    -0.306 N 
HETATM    2  C   UNL     1     -42.520  54.664 -54.976  1.00  0.00     0.321 C 
HETATM    3  N   UNL     1     -41.298  54.369 -54.455  1.00  0.00    -0.338 N 
HETATM    4  O   UNL     1     -43.159  53.846 -55.634  1.00  0.00    -0.247 OA
HETATM    5  H   UNL     1     -44.115  55.817 -54.703  1.00  0.00     0.171 HD
HETATM    6  H   UNL     1     -40.961  54.965 -53.710  1.00  0.00     0.164 HD
ENDROOT
BRANCH   1   7
HETATM    7  C   UNL     1     -42.598  57.069 -54.192  1.00  0.00     0.070 A 
HETATM    8  C   UNL     1     -42.161  57.331 -52.887  1.00  0.00     0.040 A 
HETATM    9  C   UNL     1     -41.546  58.555 -52.555  1.00  0.00    -0.048 A 
HETATM   10  C   UNL     1     -41.403  59.506 -53.583  1.00  0.00     0.011 A 
HETATM   11  C   UNL     1     -41.834  59.252 -54.889  1.00  0.00     0.039 A 
HETATM   12  C   UNL     1     -42.412  58.028 -55.206  1.00  0.00     0.095 A 
BRANCH   9  13
HETATM   13  C   UNL     1     -40.939  58.803 -51.158  1.00  0.00    -0.024 C 
HETATM   14  C   UNL     1     -41.077  57.501 -50.342  1.00  0.00     0.019 C 
HETATM   15  C   UNL     1     -41.650  59.942 -50.393  1.00  0.00     0.019 C 
HETATM   16  C   UNL     1     -39.441  59.183 -51.218  1.00  0.00     0.019 C 
ENDBRANCH   9  13
BRANCH  12  17
HETATM   17  O   UNL     1     -42.838  57.650 -56.457  1.00  0.00    -0.354 OA
HETATM   18  C   UNL     1     -43.866  58.433 -57.055  1.00  0.00     0.210 C 
ENDBRANCH  12  17
ENDBRANCH   1   7
BRANCH   3  19
HETATM   19  C   UNL     1     -40.633  53.107 -54.725  1.00  0.00     0.166 C 
BRANCH  19  20
HETATM   20  C   UNL     1     -40.303  52.306 -53.480  1.00  0.00     0.003 A 
HETATM   21  C   UNL     1     -39.909  50.954 -53.516  1.00  0.00     0.106 A 
HETATM   22  N   UNL     1     -39.602  50.342 -52.362  1.00  0.00    -0.352 N 
HETATM   23  H   UNL     1     -39.286  49.381 -52.428  1.00  0.00     0.166 HD
HETATM   24  C   UNL     1     -39.633  50.937 -51.166  1.00  0.00     0.089 A 
HETATM   25  C   UNL     1     -40.002  52.265 -51.066  1.00  0.00     0.018 A 
HETATM   26  C   UNL     1     -40.351  52.947 -52.228  1.00  0.00     0.014 A 
BRANCH  21  27
HETATM   27  N   UNL     1     -39.634  50.250 -54.663  1.00  0.00    -0.385 N 
HETATM   28  H   UNL     1     -38.746  49.728 -54.679  1.00  0.00     0.157 HD
HETATM   29  H   UNL     1     -39.860  50.594 -55.585  1.00  0.00     0.157 HD
ENDBRANCH  21  27
ENDBRANCH  19  20
ENDBRANCH   3  19
TORSDOF 6
ENDMDL
MODEL 7
REMARK VINA RESULT:      -6.8      4.318      7.229
REMARK  6 active torsions:
REMARK  status: ('A' for Active; 'I' for Inactive)
REMARK    1  A    between atoms: C_2  and  C_3 
REMARK    2  A    between atoms: C_5  and  N_6 
REMARK       I    between atoms: N_6  and  C_7 
REMARK       I    between atoms: C_7  and  N_8 
REMARK    3  A    between atoms: N_8  and  C_9 
REMARK    4  A    between atoms: C_9  and  C_10 
REMARK    5  A    between atoms: C_11  and  N_12 
REMARK    6  A    between atoms: C_19  and  O_20 
ROOT
HETATM    1  N   UNL     1     -44.392  56.164 -54.033  1.00  0.00    -0.306 N 
HETATM    2  C   UNL     1     -44.292  56.931 -55.141  1.00  0.00     0.321 C 
HETATM    3  N   UNL     1     -43.324  56.622 -56.046  1.00  0.00    -0.338 N 
HETATM    4  O   UNL     1     -45.161  57.767 -55.382  1.00  0.00    -0.247 OA
HETATM    5  H   UNL     1     -45.312  56.189 -53.605  1.00  0.00     0.171 HD
HETATM    6  H   UNL     1     -42.826  55.753 -55.906  1.00  0.00     0.164 HD
ENDROOT
BRANCH   1   7
HETATM    7  C   UNL     1     -43.457  55.419 -53.292  1.00  0.00     0.070 A 
HETATM    8  C   UNL     1     -42.636  54.436 -53.859  1.00  0.00     0.040 A 
HETATM    9  C   UNL     1     -41.629  53.801 -53.104  1.00  0.00    -0.048 A 
HETATM   10  C   UNL     1     -41.494  54.185 -51.757  1.00  0.00     0.011 A 
HETATM   11  C   UNL     1     -42.309  55.167 -51.183  1.00  0.00     0.039 A 
HETATM   12  C   UNL     1     -43.277  55.803 -51.950  1.00  0.00     0.095 A 
BRANCH   9  13
HETATM   13  C   UNL     1     -40.630  52.819 -53.751  1.00  0.00    -0.024 C 
HETATM   14  C   UNL     1     -39.862  53.578 -54.852  1.00  0.00     0.019 C 
HETATM   15  C   UNL     1     -41.328  51.596 -54.390  1.00  0.00     0.019 C 
HETATM   16  C   UNL     1     -39.604  52.259 -52.738  1.00  0.00     0.019 C 
ENDBRANCH   9  13
BRANCH  12  17
HETATM   17  O   UNL     1     -44.108  56.806 -51.510  1.00  0.00    -0.354 OA
HETATM   18  C   UNL     1     -43.523  58.088 -51.302  1.00  0.00     0.210 C 
ENDBRANCH  12  17
ENDBRANCH   1   7
BRANCH   3  19
HETATM   19  C   UNL     1     -43.200  57.328 -57.309  1.00  0.00     0.166 C 
BRANCH  19  20
HETATM   20  C   UNL     1     -44.026  56.731 -58.432  1.00  0.00     0.003 A 
HETATM   21  C   UNL     1     -45.257  57.270 -58.854  1.00  0.00     0.106 A 
HETATM   22  N   UNL     1     -45.895  56.690 -59.883  1.00  0.00    -0.352 N 
HETATM   23  H   UNL     1     -46.759  57.126 -60.185  1.00  0.00     0.166 HD
HETATM   24  C   UNL     1     -45.431  55.630 -60.551  1.00  0.00     0.089 A 
HETATM   25  C   UNL     1     -44.224  55.061 -60.191  1.00  0.00     0.018 A 
HETATM   26  C   UNL     1     -43.527  55.607 -59.118  1.00  0.00     0.014 A 
BRANCH  21  27
HETATM   27  N   UNL     1     -45.779  58.462 -58.416  1.00  0.00    -0.385 N 
HETATM   28  H   UNL     1     -45.531  59.300 -58.961  1.00  0.00     0.157 HD
HETATM   29  H   UNL     1     -45.876  58.691 -57.438  1.00  0.00     0.157 HD
ENDBRANCH  21  27
ENDBRANCH  19  20
ENDBRANCH   3  19
TORSDOF 6
ENDMDL
MODEL 8
REMARK VINA RESULT:      -6.8      3.381      4.680
REMARK  6 active torsions:
REMARK  status: ('A' for Active; 'I' for Inactive)
REMARK    1  A    between atoms: C_2  and  C_3 
REMARK    2  A    between atoms: C_5  and  N_6 
REMARK       I    between atoms: N_6  and  C_7 
REMARK       I    between atoms: C_7  and  N_8 
REMARK    3  A    between atoms: N_8  and  C_9 
REMARK    4  A    between atoms: C_9  and  C_10 
REMARK    5  A    between atoms: C_11  and  N_12 
REMARK    6  A    between atoms: C_19  and  O_20 
ROOT
HETATM    1  N   UNL     1     -43.197  55.901 -55.829  1.00  0.00    -0.306 N 
HETATM    2  C   UNL     1     -42.563  54.721 -55.648  1.00  0.00     0.321 C 
HETATM    3  N   UNL     1     -41.223  54.746 -55.414  1.00  0.00    -0.338 N 
HETATM    4  O   UNL     1     -43.221  53.689 -55.537  1.00  0.00    -0.247 OA
HETATM    5  H   UNL     1     -44.190  55.861 -55.627  1.00  0.00     0.171 HD
HETATM    6  H   UNL     1     -40.802  55.651 -55.250  1.00  0.00     0.164 HD
ENDROOT
BRANCH   1   7
HETATM    7  C   UNL     1     -42.784  57.146 -56.336  1.00  0.00     0.070 A 
HETATM    8  C   UNL     1     -42.765  57.450 -57.704  1.00  0.00     0.040 A 
HETATM    9  C   UNL     1     -42.460  58.749 -58.159  1.00  0.00    -0.048 A 
HETATM   10  C   UNL     1     -42.161  59.720 -57.185  1.00  0.00     0.011 A 
HETATM   11  C   UNL     1     -42.180  59.426 -55.818  1.00  0.00     0.039 A 
HETATM   12  C   UNL     1     -42.511  58.147 -55.385  1.00  0.00     0.095 A 
BRANCH   9  13
HETATM   13  C   UNL     1     -42.569  59.131 -59.650  1.00  0.00    -0.024 C 
HETATM   14  C   UNL     1     -41.871  58.030 -60.475  1.00  0.00     0.019 C 
HETATM   15  C   UNL     1     -41.897  60.486 -59.968  1.00  0.00     0.019 C 
HETATM   16  C   UNL     1     -44.035  59.244 -60.130  1.00  0.00     0.019 C 
ENDBRANCH   9  13
BRANCH  12  17
HETATM   17  O   UNL     1     -42.599  57.750 -54.072  1.00  0.00    -0.354 OA
HETATM   18  C   UNL     1     -41.412  57.830 -53.289  1.00  0.00     0.210 C 
ENDBRANCH  12  17
ENDBRANCH   1   7
BRANCH   3  19
HETATM   19  C   UNL     1     -40.473  53.539 -55.115  1.00  0.00     0.166 C 
BRANCH  19  20
HETATM   20  C   UNL     1     -40.390  53.217 -53.635  1.00  0.00     0.003 A 
HETATM   21  C   UNL     1     -39.948  51.974 -53.140  1.00  0.00     0.106 A 
HETATM   22  N   UNL     1     -39.874  51.798 -51.812  1.00  0.00    -0.352 N 
HETATM   23  H   UNL     1     -39.516  50.906 -51.491  1.00  0.00     0.166 HD
HETATM   24  C   UNL     1     -40.184  52.738 -50.914  1.00  0.00     0.089 A 
HETATM   25  C   UNL     1     -40.615  53.981 -51.335  1.00  0.00     0.018 A 
HETATM   26  C   UNL     1     -40.730  54.215 -52.702  1.00  0.00     0.014 A 
BRANCH  21  27
HETATM   27  N   UNL     1     -39.407  50.974 -53.911  1.00  0.00    -0.385 N 
HETATM   28  H   UNL     1     -39.953  50.103 -53.983  1.00  0.00     0.157 HD
HETATM   29  H   UNL     1     -38.417  50.774 -53.933  1.00  0.00     0.157 HD
ENDBRANCH  21  27
ENDBRANCH  19  20
ENDBRANCH   3  19
TORSDOF 6
ENDMDL
MODEL 9
REMARK VINA RESULT:      -6.6     14.201     17.109
REMARK  6 active torsions:
REMARK  status: ('A' for Active; 'I' for Inactive)
REMARK    1  A    between atoms: C_2  and  C_3 
REMARK    2  A    between atoms: C_5  and  N_6 
REMARK       I    between atoms: N_6  and  C_7 
REMARK       I    between atoms: C_7  and  N_8 
REMARK    3  A    between atoms: N_8  and  C_9 
REMARK    4  A    between atoms: C_9  and  C_10 
REMARK    5  A    between atoms: C_11  and  N_12 
REMARK    6  A    between atoms: C_19  and  O_20 
ROOT
HETATM    1  N   UNL     1     -33.688  41.512 -55.351  1.00  0.00    -0.306 N 
HETATM    2  C   UNL     1     -32.955  40.425 -55.018  1.00  0.00     0.321 C 
HETATM    3  N   UNL     1     -33.198  39.264 -55.683  1.00  0.00    -0.338 N 
HETATM    4  O   UNL     1     -31.998  40.549 -54.257  1.00  0.00    -0.247 OA
HETATM    5  H   UNL     1     -33.236  42.390 -55.118  1.00  0.00     0.171 HD
HETATM    6  H   UNL     1     -33.814  39.313 -56.484  1.00  0.00     0.164 HD
ENDROOT
BRANCH   1   7
HETATM    7  C   UNL     1     -34.988  41.674 -55.861  1.00  0.00     0.070 A 
HETATM    8  C   UNL     1     -35.376  41.230 -57.132  1.00  0.00     0.040 A 
HETATM    9  C   UNL     1     -36.720  41.305 -57.552  1.00  0.00    -0.048 A 
HETATM   10  C   UNL     1     -37.649  41.856 -56.650  1.00  0.00     0.011 A 
HETATM   11  C   UNL     1     -37.270  42.300 -55.379  1.00  0.00     0.039 A 
HETATM   12  C   UNL     1     -35.946  42.192 -54.969  1.00  0.00     0.095 A 
BRANCH   9  13
HETATM   13  C   UNL     1     -37.184  40.696 -58.892  1.00  0.00    -0.024 C 
HETATM   14  C   UNL     1     -37.270  41.836 -59.928  1.00  0.00     0.019 C 
HETATM   15  C   UNL     1     -38.568  40.017 -58.789  1.00  0.00     0.019 C 
HETATM   16  C   UNL     1     -36.207  39.623 -59.429  1.00  0.00     0.019 C 
ENDBRANCH   9  13
BRANCH  12  17
HETATM   17  O   UNL     1     -35.463  42.557 -53.735  1.00  0.00    -0.354 OA
HETATM   18  C   UNL     1     -36.027  41.906 -52.601  1.00  0.00     0.210 C 
ENDBRANCH  12  17
ENDBRANCH   1   7
BRANCH   3  19
HETATM   19  C   UNL     1     -32.400  38.071 -55.462  1.00  0.00     0.166 C 
BRANCH  19  20
HETATM   20  C   UNL     1     -31.111  38.035 -56.261  1.00  0.00     0.003 A 
HETATM   21  C   UNL     1     -31.078  37.911 -57.664  1.00  0.00     0.106 A 
HETATM   22  N   UNL     1     -29.888  37.926 -58.284  1.00  0.00    -0.352 N 
HETATM   23  H   UNL     1     -29.903  37.873 -59.296  1.00  0.00     0.166 HD
HETATM   24  C   UNL     1     -28.717  38.065 -57.655  1.00  0.00     0.089 A 
HETATM   25  C   UNL     1     -28.684  38.201 -56.281  1.00  0.00     0.018 A 
HETATM   26  C   UNL     1     -29.886  38.172 -55.581  1.00  0.00     0.014 A 
BRANCH  21  27
HETATM   27  N   UNL     1     -32.182  37.958 -58.479  1.00  0.00    -0.385 N 
HETATM   28  H   UNL     1     -32.808  37.139 -58.452  1.00  0.00     0.157 HD
HETATM   29  H   UNL     1     -32.163  38.359 -59.405  1.00  0.00     0.157 HD
ENDBRANCH  21  27
ENDBRANCH  19  20
ENDBRANCH   3  19
TORSDOF 6
ENDMDL
MODEL 10
REMARK VINA RESULT:      -6.6      3.082      7.195
REMARK  6 active torsions:
REMARK  status: ('A' for Active; 'I' for Inactive)
REMARK    1  A    between atoms: C_2  and  C_3 
REMARK    2  A    between atoms: C_5  and  N_6 
REMARK       I    between atoms: N_6  and  C_7 
REMARK       I    between atoms: C_7  and  N_8 
REMARK    3  A    between atoms: N_8  and  C_9 
REMARK    4  A    between atoms: C_9  and  C_10 
REMARK    5  A    between atoms: C_11  and  N_12 
REMARK    6  A    between atoms: C_19  and  O_20 
ROOT
HETATM    1  N   UNL     1     -41.217  56.957 -50.133  1.00  0.00    -0.306 N 
HETATM    2  C   UNL     1     -41.378  58.195 -50.651  1.00  0.00     0.321 C 
HETATM    3  N   UNL     1     -42.122  58.320 -51.783  1.00  0.00    -0.338 N 
HETATM    4  O   UNL     1     -40.998  59.175 -50.014  1.00  0.00    -0.247 OA
HETATM    5  H   UNL     1     -40.997  56.960 -49.142  1.00  0.00     0.171 HD
HETATM    6  H   UNL     1     -42.628  57.501 -52.094  1.00  0.00     0.164 HD
ENDROOT
BRANCH   1   7
HETATM    7  C   UNL     1     -41.192  55.672 -50.703  1.00  0.00     0.070 A 
HETATM    8  C   UNL     1     -41.257  55.443 -52.084  1.00  0.00     0.040 A 
HETATM    9  C   UNL     1     -41.105  54.147 -52.617  1.00  0.00    -0.048 A 
HETATM   10  C   UNL     1     -40.901  53.094 -51.705  1.00  0.00     0.011 A 
HETATM   11  C   UNL     1     -40.834  53.314 -50.326  1.00  0.00     0.039 A 
HETATM   12  C   UNL     1     -40.956  54.602 -49.819  1.00  0.00     0.095 A 
BRANCH   9  13
HETATM   13  C   UNL     1     -41.037  53.900 -54.139  1.00  0.00    -0.024 C 
HETATM   14  C   UNL     1     -40.225  55.050 -54.770  1.00  0.00     0.019 C 
HETATM   15  C   UNL     1     -42.434  53.863 -54.798  1.00  0.00     0.019 C 
HETATM   16  C   UNL     1     -40.347  52.563 -54.496  1.00  0.00     0.019 C 
ENDBRANCH   9  13
BRANCH  12  17
HETATM   17  O   UNL     1     -40.869  54.946 -48.491  1.00  0.00    -0.354 OA
HETATM   18  C   UNL     1     -40.264  54.000 -47.615  1.00  0.00     0.210 C 
ENDBRANCH  12  17
ENDBRANCH   1   7
BRANCH   3  19
HETATM   19  C   UNL     1     -42.429  59.617 -52.361  1.00  0.00     0.166 C 
BRANCH  19  20
HETATM   20  C   UNL     1     -43.822  60.121 -52.037  1.00  0.00     0.003 A 
HETATM   21  C   UNL     1     -44.955  59.809 -52.815  1.00  0.00     0.106 A 
HETATM   22  N   UNL     1     -46.152  60.274 -52.425  1.00  0.00    -0.352 N 
HETATM   23  H   UNL     1     -46.950  59.999 -52.986  1.00  0.00     0.166 HD
HETATM   24  C   UNL     1     -46.349  61.011 -51.328  1.00  0.00     0.089 A 
HETATM   25  C   UNL     1     -45.279  61.342 -50.518  1.00  0.00     0.018 A 
HETATM   26  C   UNL     1     -44.010  60.906 -50.883  1.00  0.00     0.014 A 
BRANCH  21  27
HETATM   27  N   UNL     1     -44.967  58.910 -53.852  1.00  0.00    -0.385 N 
HETATM   28  H   UNL     1     -45.866  58.445 -54.047  1.00  0.00     0.157 HD
HETATM   29  H   UNL     1     -44.197  58.286 -54.047  1.00  0.00     0.157 HD
ENDBRANCH  21  27
ENDBRANCH  19  20
ENDBRANCH   3  19
TORSDOF 6
ENDMDL
