MODEL 1
REMARK VINA RESULT:      -7.0      0.000      0.000
REMARK  4 active torsions:
REMARK  status: ('A' for Active; 'I' for Inactive)
REMARK    1  A    between atoms: C_2  and  O_3 
REMARK    2  A    between atoms: O_3  and  C_4 
REMARK    3  A    between atoms: C_4  and  C_5 
REMARK    4  A    between atoms: C_9  and  N_10 
ROOT
HETATM    1  C   UNL     1     -40.298  52.857 -51.265  1.00  0.00     0.109 A 
HETATM    2  S   UNL     1     -40.180  53.926 -49.930  1.00  0.00    -0.063 SA
HETATM    3  C   UNL     1     -40.688  55.240 -50.859  1.00  0.00     0.088 A 
HETATM    4  C   UNL     1     -40.983  54.940 -52.176  1.00  0.00     0.033 A 
HETATM    5  C   UNL     1     -40.727  53.536 -52.399  1.00  0.00     0.063 A 
HETATM    6  N   UNL     1     -40.789  56.481 -50.325  1.00  0.00    -0.353 N 
HETATM    7  H   UNL     1     -40.545  56.588 -49.342  1.00  0.00     0.166 HD
HETATM    8  C   UNL     1     -41.185  57.520 -51.066  1.00  0.00     0.015 A 
HETATM    9  C   UNL     1     -41.252  58.856 -50.390  1.00  0.00     0.069 C 
HETATM   10  C   UNL     1     -41.507  57.321 -52.419  1.00  0.00    -0.005 A 
HETATM   11  C   UNL     1     -41.447  56.019 -52.987  1.00  0.00    -0.030 A 
HETATM   12  C   UNL     1     -41.822  55.844 -54.448  1.00  0.00     0.077 C 
HETATM   13  C   UNL     1     -42.610  57.023 -55.043  1.00  0.00     0.058 C 
HETATM   14  C   UNL     1     -44.093  56.998 -54.639  1.00  0.00     0.046 C 
HETATM   15  C   UNL     1     -42.526  56.969 -56.575  1.00  0.00     0.046 C 
HETATM   16  O   UNL     1     -41.968  58.243 -54.656  1.00  0.00    -0.376 OA
HETATM   17  C   UNL     1     -41.971  58.497 -53.259  1.00  0.00     0.210 C 
ENDROOT
BRANCH   1  18
HETATM   18  C   UNL     1     -39.955  51.445 -51.155  1.00  0.00     0.302 C 
HETATM   19  O   UNL     1     -40.269  50.729 -50.211  1.00  0.00    -0.259 OA
BRANCH  18  20
HETATM   20  O   UNL     1     -39.255  51.017 -52.244  1.00  0.00    -0.317 OA
BRANCH  20  21
HETATM   21  C   UNL     1     -39.623  49.727 -52.762  1.00  0.00     0.174 C 
HETATM   22  C   UNL     1     -39.668  49.764 -54.278  1.00  0.00     0.034 C 
ENDBRANCH  20  21
ENDBRANCH  18  20
ENDBRANCH   1  18
BRANCH   5  23
HETATM   23  N   UNL     1     -40.880  52.914 -53.588  1.00  0.00    -0.397 N 
HETATM   24  H   UNL     1     -41.752  52.518 -53.924  1.00  0.00     0.156 HD
HETATM   25  H   UNL     1     -40.229  53.094 -54.363  1.00  0.00     0.156 HD
ENDBRANCH   5  23
TORSDOF 4
ENDMDL
MODEL 2
REMARK VINA RESULT:      -6.9      2.068      3.439
REMARK  4 active torsions:
REMARK  status: ('A' for Active; 'I' for Inactive)
REMARK    1  A    between atoms: C_2  and  O_3 
REMARK    2  A    between atoms: O_3  and  C_4 
REMARK    3  A    between atoms: C_4  and  C_5 
REMARK    4  A    between atoms: C_9  and  N_10 
ROOT
HETATM    1  C   UNL     1     -40.560  53.278 -52.963  1.00  0.00     0.109 A 
HETATM    2  S   UNL     1     -40.242  53.566 -54.623  1.00  0.00    -0.063 SA
HETATM    3  C   UNL     1     -41.314  54.868 -54.665  1.00  0.00     0.088 A 
HETATM    4  C   UNL     1     -41.928  55.154 -53.459  1.00  0.00     0.033 A 
HETATM    5  C   UNL     1     -41.486  54.192 -52.476  1.00  0.00     0.063 A 
HETATM    6  N   UNL     1     -41.533  55.562 -55.807  1.00  0.00    -0.353 N 
HETATM    7  H   UNL     1     -41.026  55.264 -56.639  1.00  0.00     0.166 HD
HETATM    8  C   UNL     1     -42.389  56.589 -55.838  1.00  0.00     0.015 A 
HETATM    9  C   UNL     1     -42.575  57.285 -57.152  1.00  0.00     0.069 C 
HETATM   10  C   UNL     1     -43.067  56.958 -54.664  1.00  0.00    -0.005 A 
HETATM   11  C   UNL     1     -42.819  56.268 -53.445  1.00  0.00    -0.030 A 
HETATM   12  C   UNL     1     -43.558  56.712 -52.195  1.00  0.00     0.077 C 
HETATM   13  C   UNL     1     -44.188  58.112 -52.297  1.00  0.00     0.058 C 
HETATM   14  C   UNL     1     -43.154  59.233 -52.108  1.00  0.00     0.046 C 
HETATM   15  C   UNL     1     -45.268  58.263 -51.217  1.00  0.00     0.046 C 
HETATM   16  O   UNL     1     -44.869  58.215 -53.552  1.00  0.00    -0.376 OA
HETATM   17  C   UNL     1     -44.027  58.133 -54.692  1.00  0.00     0.210 C 
ENDROOT
BRANCH   1  18
HETATM   18  C   UNL     1     -39.925  52.186 -52.235  1.00  0.00     0.302 C 
HETATM   19  O   UNL     1     -40.058  51.987 -51.033  1.00  0.00    -0.259 OA
BRANCH  18  20
HETATM   20  O   UNL     1     -39.178  51.403 -53.064  1.00  0.00    -0.317 OA
BRANCH  20  21
HETATM   21  C   UNL     1     -39.636  50.051 -53.236  1.00  0.00     0.174 C 
HETATM   22  C   UNL     1     -39.945  49.783 -54.697  1.00  0.00     0.034 C 
ENDBRANCH  20  21
ENDBRANCH  18  20
ENDBRANCH   1  18
BRANCH   5  23
HETATM   23  N   UNL     1     -41.915  54.159 -51.196  1.00  0.00    -0.397 N 
HETATM   24  H   UNL     1     -42.876  54.315 -50.906  1.00  0.00     0.156 HD
HETATM   25  H   UNL     1     -41.387  53.650 -50.477  1.00  0.00     0.156 HD
ENDBRANCH   5  23
TORSDOF 4
ENDMDL
MODEL 3
REMARK VINA RESULT:      -6.9      3.676      5.520
REMARK  4 active torsions:
REMARK  status: ('A' for Active; 'I' for Inactive)
REMARK    1  A    between atoms: C_2  and  O_3 
REMARK    2  A    between atoms: O_3  and  C_4 
REMARK    3  A    between atoms: C_4  and  C_5 
REMARK    4  A    between atoms: C_9  and  N_10 
ROOT
HETATM    1  C   UNL     1     -42.640  55.608 -54.307  1.00  0.00     0.109 A 
HETATM    2  S   UNL     1     -41.998  57.198 -54.291  1.00  0.00    -0.063 SA
HETATM    3  C   UNL     1     -42.342  57.419 -55.928  1.00  0.00     0.088 A 
HETATM    4  C   UNL     1     -42.961  56.345 -56.541  1.00  0.00     0.033 A 
HETATM    5  C   UNL     1     -43.108  55.282 -55.574  1.00  0.00     0.063 A 
HETATM    6  N   UNL     1     -42.026  58.573 -56.563  1.00  0.00    -0.353 N 
HETATM    7  H   UNL     1     -41.571  59.300 -56.013  1.00  0.00     0.166 HD
HETATM    8  C   UNL     1     -42.295  58.742 -57.861  1.00  0.00     0.015 A 
HETATM    9  C   UNL     1     -41.895  60.047 -58.479  1.00  0.00     0.069 C 
HETATM   10  C   UNL     1     -42.921  57.708 -58.577  1.00  0.00    -0.005 A 
HETATM   11  C   UNL     1     -43.298  56.504 -57.919  1.00  0.00    -0.030 A 
HETATM   12  C   UNL     1     -43.990  55.419 -58.725  1.00  0.00     0.077 C 
HETATM   13  C   UNL     1     -44.566  55.901 -60.067  1.00  0.00     0.058 C 
HETATM   14  C   UNL     1     -45.898  56.650 -59.896  1.00  0.00     0.046 C 
HETATM   15  C   UNL     1     -44.807  54.691 -60.980  1.00  0.00     0.046 C 
HETATM   16  O   UNL     1     -43.580  56.702 -60.727  1.00  0.00    -0.376 OA
HETATM   17  C   UNL     1     -43.240  57.902 -60.048  1.00  0.00     0.210 C 
ENDROOT
BRANCH   1  18
HETATM   18  C   UNL     1     -42.639  54.764 -53.119  1.00  0.00     0.302 C 
HETATM   19  O   UNL     1     -43.096  55.100 -52.032  1.00  0.00    -0.259 OA
BRANCH  18  20
HETATM   20  O   UNL     1     -42.082  53.546 -53.374  1.00  0.00    -0.317 OA
BRANCH  20  21
HETATM   21  C   UNL     1     -40.644  53.499 -53.371  1.00  0.00     0.174 C 
HETATM   22  C   UNL     1     -40.155  52.382 -54.274  1.00  0.00     0.034 C 
ENDBRANCH  20  21
ENDBRANCH  18  20
ENDBRANCH   1  18
BRANCH   5  23
HETATM   23  N   UNL     1     -43.643  54.073 -55.847  1.00  0.00    -0.397 N 
HETATM   24  H   UNL     1     -44.574  53.926 -56.226  1.00  0.00     0.156 HD
HETATM   25  H   UNL     1     -43.042  53.256 -56.011  1.00  0.00     0.156 HD
ENDBRANCH   5  23
TORSDOF 4
ENDMDL
MODEL 4
REMARK VINA RESULT:      -6.6      2.044      6.202
REMARK  4 active torsions:
REMARK  status: ('A' for Active; 'I' for Inactive)
REMARK    1  A    between atoms: C_2  and  O_3 
REMARK    2  A    between atoms: O_3  and  C_4 
REMARK    3  A    between atoms: C_4  and  C_5 
REMARK    4  A    between atoms: C_9  and  N_10 
ROOT
HETATM    1  C   UNL     1     -43.262  56.271 -54.150  1.00  0.00     0.109 A 
HETATM    2  S   UNL     1     -42.738  56.920 -52.652  1.00  0.00    -0.063 SA
HETATM    3  C   UNL     1     -41.865  55.524 -52.284  1.00  0.00     0.088 A 
HETATM    4  C   UNL     1     -41.907  54.540 -53.254  1.00  0.00     0.033 A 
HETATM    5  C   UNL     1     -42.751  54.993 -54.335  1.00  0.00     0.063 A 
HETATM    6  N   UNL     1     -41.184  55.408 -51.118  1.00  0.00    -0.353 N 
HETATM    7  H   UNL     1     -41.223  56.196 -50.474  1.00  0.00     0.166 HD
HETATM    8  C   UNL     1     -40.499  54.297 -50.828  1.00  0.00     0.015 A 
HETATM    9  C   UNL     1     -39.790  54.257 -49.508  1.00  0.00     0.069 C 
HETATM   10  C   UNL     1     -40.480  53.236 -51.748  1.00  0.00    -0.005 A 
HETATM   11  C   UNL     1     -41.155  53.355 -52.995  1.00  0.00    -0.030 A 
HETATM   12  C   UNL     1     -41.093  52.193 -53.970  1.00  0.00     0.077 C 
HETATM   13  C   UNL     1     -39.977  51.177 -53.672  1.00  0.00     0.058 C 
HETATM   14  C   UNL     1     -38.598  51.670 -54.141  1.00  0.00     0.046 C 
HETATM   15  C   UNL     1     -40.287  49.856 -54.389  1.00  0.00     0.046 C 
HETATM   16  O   UNL     1     -39.993  50.880 -52.272  1.00  0.00    -0.376 OA
HETATM   17  C   UNL     1     -39.691  51.980 -51.427  1.00  0.00     0.210 C 
ENDROOT
BRANCH   1  18
HETATM   18  C   UNL     1     -44.142  57.013 -55.045  1.00  0.00     0.302 C 
HETATM   19  O   UNL     1     -45.174  57.573 -54.692  1.00  0.00    -0.259 OA
BRANCH  18  20
HETATM   20  O   UNL     1     -43.663  57.019 -56.322  1.00  0.00    -0.317 OA
BRANCH  20  21
HETATM   21  C   UNL     1     -43.044  58.242 -56.756  1.00  0.00     0.174 C 
HETATM   22  C   UNL     1     -42.261  58.008 -58.034  1.00  0.00     0.034 C 
ENDBRANCH  20  21
ENDBRANCH  18  20
ENDBRANCH   1  18
BRANCH   5  23
HETATM   23  N   UNL     1     -43.038  54.263 -55.434  1.00  0.00    -0.397 N 
HETATM   24  H   UNL     1     -42.671  54.449 -56.363  1.00  0.00     0.156 HD
HETATM   25  H   UNL     1     -43.365  53.292 -55.351  1.00  0.00     0.156 HD
ENDBRANCH   5  23
TORSDOF 4
ENDMDL
MODEL 5
REMARK VINA RESULT:      -6.6      3.977      6.760
REMARK  4 active torsions:
REMARK  status: ('A' for Active; 'I' for Inactive)
REMARK    1  A    between atoms: C_2  and  O_3 
REMARK    2  A    between atoms: O_3  and  C_4 
REMARK    3  A    between atoms: C_4  and  C_5 
REMARK    4  A    between atoms: C_9  and  N_10 
ROOT
HETATM    1  C   UNL     1     -42.887  56.711 -58.089  1.00  0.00     0.109 A 
HETATM    2  S   UNL     1     -42.462  58.350 -57.817  1.00  0.00    -0.063 SA
HETATM    3  C   UNL     1     -42.486  58.141 -56.143  1.00  0.00     0.088 A 
HETATM    4  C   UNL     1     -42.784  56.858 -55.722  1.00  0.00     0.033 A 
HETATM    5  C   UNL     1     -43.037  56.038 -56.884  1.00  0.00     0.063 A 
HETATM    6  N   UNL     1     -42.226  59.172 -55.303  1.00  0.00    -0.353 N 
HETATM    7  H   UNL     1     -42.019  60.076 -55.723  1.00  0.00     0.166 HD
HETATM    8  C   UNL     1     -42.253  59.003 -53.977  1.00  0.00     0.015 A 
HETATM    9  C   UNL     1     -41.967  60.206 -53.129  1.00  0.00     0.069 C 
HETATM   10  C   UNL     1     -42.549  57.736 -53.447  1.00  0.00    -0.005 A 
HETATM   11  C   UNL     1     -42.783  56.633 -54.313  1.00  0.00    -0.030 A 
HETATM   12  C   UNL     1     -43.080  55.276 -53.700  1.00  0.00     0.077 C 
HETATM   13  C   UNL     1     -42.698  55.158 -52.214  1.00  0.00     0.058 C 
HETATM   14  C   UNL     1     -41.189  54.940 -52.014  1.00  0.00     0.046 C 
HETATM   15  C   UNL     1     -43.444  53.970 -51.591  1.00  0.00     0.046 C 
HETATM   16  O   UNL     1     -43.168  56.323 -51.528  1.00  0.00    -0.376 OA
HETATM   17  C   UNL     1     -42.565  57.539 -51.942  1.00  0.00     0.210 C 
ENDROOT
BRANCH   1  18
HETATM   18  C   UNL     1     -43.071  56.176 -59.433  1.00  0.00     0.302 C 
HETATM   19  O   UNL     1     -42.200  56.157 -60.295  1.00  0.00    -0.259 OA
BRANCH  18  20
HETATM   20  O   UNL     1     -44.331  55.681 -59.603  1.00  0.00    -0.317 OA
BRANCH  20  21
HETATM   21  C   UNL     1     -45.384  56.656 -59.684  1.00  0.00     0.174 C 
HETATM   22  C   UNL     1     -46.593  56.065 -60.385  1.00  0.00     0.034 C 
ENDBRANCH  20  21
ENDBRANCH  18  20
ENDBRANCH   1  18
BRANCH   5  23
HETATM   23  N   UNL     1     -43.390  54.735 -56.834  1.00  0.00    -0.397 N 
HETATM   24  H   UNL     1     -43.272  54.075 -57.597  1.00  0.00     0.156 HD
HETATM   25  H   UNL     1     -43.484  54.250 -55.933  1.00  0.00     0.156 HD
ENDBRANCH   5  23
TORSDOF 4
ENDMDL
MODEL 6
REMARK VINA RESULT:      -6.3      2.529      4.162
REMARK  4 active torsions:
REMARK  status: ('A' for Active; 'I' for Inactive)
REMARK    1  A    between atoms: C_2  and  O_3 
REMARK    2  A    between atoms: O_3  and  C_4 
REMARK    3  A    between atoms: C_4  and  C_5 
REMARK    4  A    between atoms: C_9  and  N_10 
ROOT
HETATM    1  C   UNL     1     -41.611  54.408 -53.266  1.00  0.00     0.109 A 
HETATM    2  S   UNL     1     -42.521  54.324 -54.717  1.00  0.00    -0.063 SA
HETATM    3  C   UNL     1     -43.257  55.811 -54.412  1.00  0.00     0.088 A 
HETATM    4  C   UNL     1     -42.847  56.435 -53.248  1.00  0.00     0.033 A 
HETATM    5  C   UNL     1     -41.893  55.581 -52.578  1.00  0.00     0.063 A 
HETATM    6  N   UNL     1     -44.174  56.329 -55.264  1.00  0.00    -0.353 N 
HETATM    7  H   UNL     1     -44.402  55.783 -56.093  1.00  0.00     0.166 HD
HETATM    8  C   UNL     1     -44.760  57.505 -55.015  1.00  0.00     0.015 A 
HETATM    9  C   UNL     1     -45.773  57.988 -56.009  1.00  0.00     0.069 C 
HETATM   10  C   UNL     1     -44.414  58.217 -53.855  1.00  0.00    -0.005 A 
HETATM   11  C   UNL     1     -43.423  57.710 -52.970  1.00  0.00    -0.030 A 
HETATM   12  C   UNL     1     -43.064  58.521 -51.737  1.00  0.00     0.077 C 
HETATM   13  C   UNL     1     -43.520  59.989 -51.793  1.00  0.00     0.058 C 
HETATM   14  C   UNL     1     -42.592  60.857 -52.658  1.00  0.00     0.046 C 
HETATM   15  C   UNL     1     -43.537  60.570 -50.372  1.00  0.00     0.046 C 
HETATM   16  O   UNL     1     -44.875  60.029 -52.252  1.00  0.00    -0.376 OA
HETATM   17  C   UNL     1     -45.067  59.559 -53.578  1.00  0.00     0.210 C 
ENDROOT
BRANCH   1  18
HETATM   18  C   UNL     1     -40.701  53.341 -52.865  1.00  0.00     0.302 C 
HETATM   19  O   UNL     1     -40.252  53.206 -51.733  1.00  0.00    -0.259 OA
BRANCH  18  20
HETATM   20  O   UNL     1     -40.429  52.501 -53.904  1.00  0.00    -0.317 OA
BRANCH  20  21
HETATM   21  C   UNL     1     -39.585  51.378 -53.602  1.00  0.00     0.174 C 
HETATM   22  C   UNL     1     -40.081  50.139 -54.323  1.00  0.00     0.034 C 
ENDBRANCH  20  21
ENDBRANCH  18  20
ENDBRANCH   1  18
BRANCH   5  23
HETATM   23  N   UNL     1     -41.314  55.869 -51.393  1.00  0.00    -0.397 N 
HETATM   24  H   UNL     1     -40.674  56.641 -51.236  1.00  0.00     0.156 HD
HETATM   25  H   UNL     1     -41.733  55.548 -50.511  1.00  0.00     0.156 HD
ENDBRANCH   5  23
TORSDOF 4
ENDMDL
MODEL 7
REMARK VINA RESULT:      -6.2      3.372      6.298
REMARK  4 active torsions:
REMARK  status: ('A' for Active; 'I' for Inactive)
REMARK    1  A    between atoms: C_2  and  O_3 
REMARK    2  A    between atoms: O_3  and  C_4 
REMARK    3  A    between atoms: C_4  and  C_5 
REMARK    4  A    between atoms: C_9  and  N_10 
ROOT
HETATM    1  C   UNL     1     -42.911  56.996 -56.654  1.00  0.00     0.109 A 
HETATM    2  S   UNL     1     -44.038  58.116 -56.011  1.00  0.00    -0.063 SA
HETATM    3  C   UNL     1     -43.891  57.468 -54.461  1.00  0.00     0.088 A 
HETATM    4  C   UNL     1     -42.994  56.421 -54.352  1.00  0.00     0.033 A 
HETATM    5  C   UNL     1     -42.444  56.146 -55.659  1.00  0.00     0.063 A 
HETATM    6  N   UNL     1     -44.609  57.959 -53.422  1.00  0.00    -0.353 N 
HETATM    7  H   UNL     1     -45.241  58.734 -53.616  1.00  0.00     0.166 HD
HETATM    8  C   UNL     1     -44.494  57.438 -52.196  1.00  0.00     0.015 A 
HETATM    9  C   UNL     1     -45.340  58.039 -51.116  1.00  0.00     0.069 C 
HETATM   10  C   UNL     1     -43.610  56.367 -51.981  1.00  0.00    -0.005 A 
HETATM   11  C   UNL     1     -42.817  55.864 -53.050  1.00  0.00    -0.030 A 
HETATM   12  C   UNL     1     -41.860  54.719 -52.770  1.00  0.00     0.077 C 
HETATM   13  C   UNL     1     -41.561  54.497 -51.278  1.00  0.00     0.058 C 
HETATM   14  C   UNL     1     -40.542  55.509 -50.729  1.00  0.00     0.046 C 
HETATM   15  C   UNL     1     -40.994  53.085 -51.078  1.00  0.00     0.046 C 
HETATM   16  O   UNL     1     -42.795  54.533 -50.554  1.00  0.00    -0.376 OA
HETATM   17  C   UNL     1     -43.467  55.783 -50.588  1.00  0.00     0.210 C 
ENDROOT
BRANCH   1  18
HETATM   18  C   UNL     1     -42.559  56.983 -58.068  1.00  0.00     0.302 C 
HETATM   19  O   UNL     1     -42.042  57.923 -58.661  1.00  0.00    -0.259 OA
BRANCH  18  20
HETATM   20  O   UNL     1     -42.860  55.784 -58.645  1.00  0.00    -0.317 OA
BRANCH  20  21
HETATM   21  C   UNL     1     -43.982  55.782 -59.545  1.00  0.00     0.174 C 
HETATM   22  C   UNL     1     -44.535  54.377 -59.691  1.00  0.00     0.034 C 
ENDBRANCH  20  21
ENDBRANCH  18  20
ENDBRANCH   1  18
BRANCH   5  23
HETATM   23  N   UNL     1     -41.560  55.160 -55.921  1.00  0.00    -0.397 N 
HETATM   24  H   UNL     1     -40.801  54.886 -55.304  1.00  0.00     0.156 HD
HETATM   25  H   UNL     1     -41.790  54.409 -56.584  1.00  0.00     0.156 HD
ENDBRANCH   5  23
TORSDOF 4
ENDMDL
MODEL 8
REMARK VINA RESULT:      -6.2     14.274     15.622
REMARK  4 active torsions:
REMARK  status: ('A' for Active; 'I' for Inactive)
REMARK    1  A    between atoms: C_2  and  O_3 
REMARK    2  A    between atoms: O_3  and  C_4 
REMARK    3  A    between atoms: C_4  and  C_5 
REMARK    4  A    between atoms: C_9  and  N_10 
ROOT
HETATM    1  C   UNL     1     -33.966  40.453 -51.472  1.00  0.00     0.109 A 
HETATM    2  S   UNL     1     -35.404  40.408 -50.539  1.00  0.00    -0.063 SA
HETATM    3  C   UNL     1     -36.365  40.691 -51.897  1.00  0.00     0.088 A 
HETATM    4  C   UNL     1     -35.670  40.807 -53.087  1.00  0.00     0.033 A 
HETATM    5  C   UNL     1     -34.257  40.684 -52.810  1.00  0.00     0.063 A 
HETATM    6  N   UNL     1     -37.712  40.790 -51.796  1.00  0.00    -0.353 N 
HETATM    7  H   UNL     1     -38.120  40.689 -50.868  1.00  0.00     0.166 HD
HETATM    8  C   UNL     1     -38.469  41.021 -52.873  1.00  0.00     0.015 A 
HETATM    9  C   UNL     1     -39.949  41.129 -52.659  1.00  0.00     0.069 C 
HETATM   10  C   UNL     1     -37.858  41.157 -54.131  1.00  0.00    -0.005 A 
HETATM   11  C   UNL     1     -36.449  41.015 -54.263  1.00  0.00    -0.030 A 
HETATM   12  C   UNL     1     -35.831  41.150 -55.644  1.00  0.00     0.077 C 
HETATM   13  C   UNL     1     -36.836  41.025 -56.801  1.00  0.00     0.058 C 
HETATM   14  C   UNL     1     -37.214  39.564 -57.091  1.00  0.00     0.046 C 
HETATM   15  C   UNL     1     -36.224  41.627 -58.073  1.00  0.00     0.046 C 
HETATM   16  O   UNL     1     -37.983  41.826 -56.498  1.00  0.00    -0.376 OA
HETATM   17  C   UNL     1     -38.717  41.405 -55.358  1.00  0.00     0.210 C 
ENDROOT
BRANCH   1  18
HETATM   18  C   UNL     1     -32.650  40.286 -50.867  1.00  0.00     0.302 C 
HETATM   19  O   UNL     1     -31.610  40.152 -51.501  1.00  0.00    -0.259 OA
BRANCH  18  20
HETATM   20  O   UNL     1     -32.721  40.317 -49.505  1.00  0.00    -0.317 OA
BRANCH  20  21
HETATM   21  C   UNL     1     -32.143  39.193 -48.819  1.00  0.00     0.174 C 
HETATM   22  C   UNL     1     -31.234  39.671 -47.702  1.00  0.00     0.034 C 
ENDBRANCH  20  21
ENDBRANCH  18  20
ENDBRANCH   1  18
BRANCH   5  23
HETATM   23  N   UNL     1     -33.287  40.783 -53.744  1.00  0.00    -0.397 N 
HETATM   24  H   UNL     1     -32.419  41.295 -53.623  1.00  0.00     0.156 HD
HETATM   25  H   UNL     1     -33.205  40.084 -54.494  1.00  0.00     0.156 HD
ENDBRANCH   5  23
TORSDOF 4
ENDMDL
MODEL 9
REMARK VINA RESULT:      -6.0      4.202      7.705
REMARK  4 active torsions:
REMARK  status: ('A' for Active; 'I' for Inactive)
REMARK    1  A    between atoms: C_2  and  O_3 
REMARK    2  A    between atoms: O_3  and  C_4 
REMARK    3  A    between atoms: C_4  and  C_5 
REMARK    4  A    between atoms: C_9  and  N_10 
ROOT
HETATM    1  C   UNL     1     -44.453  57.367 -58.239  1.00  0.00     0.109 A 
HETATM    2  S   UNL     1     -43.378  56.054 -58.481  1.00  0.00    -0.063 SA
HETATM    3  C   UNL     1     -42.791  56.164 -56.904  1.00  0.00     0.088 A 
HETATM    4  C   UNL     1     -43.376  57.152 -56.134  1.00  0.00     0.033 A 
HETATM    5  C   UNL     1     -44.337  57.862 -56.946  1.00  0.00     0.063 A 
HETATM    6  N   UNL     1     -41.821  55.331 -56.455  1.00  0.00    -0.353 N 
HETATM    7  H   UNL     1     -41.460  54.638 -57.109  1.00  0.00     0.166 HD
HETATM    8  C   UNL     1     -41.354  55.426 -55.206  1.00  0.00     0.015 A 
HETATM    9  C   UNL     1     -40.271  54.470 -54.806  1.00  0.00     0.069 C 
HETATM   10  C   UNL     1     -41.882  56.401 -54.343  1.00  0.00    -0.005 A 
HETATM   11  C   UNL     1     -42.930  57.257 -54.783  1.00  0.00    -0.030 A 
HETATM   12  C   UNL     1     -43.486  58.284 -53.812  1.00  0.00     0.077 C 
HETATM   13  C   UNL     1     -43.133  58.017 -52.339  1.00  0.00     0.058 C 
HETATM   14  C   UNL     1     -44.015  56.922 -51.717  1.00  0.00     0.046 C 
HETATM   15  C   UNL     1     -43.321  59.307 -51.529  1.00  0.00     0.046 C 
HETATM   16  O   UNL     1     -41.741  57.697 -52.254  1.00  0.00    -0.376 OA
HETATM   17  C   UNL     1     -41.364  56.501 -52.920  1.00  0.00     0.210 C 
ENDROOT
BRANCH   1  18
HETATM   18  C   UNL     1     -45.323  57.857 -59.301  1.00  0.00     0.302 C 
HETATM   19  O   UNL     1     -45.760  59.001 -59.365  1.00  0.00    -0.259 OA
BRANCH  18  20
HETATM   20  O   UNL     1     -45.575  56.886 -60.225  1.00  0.00    -0.317 OA
BRANCH  20  21
HETATM   21  C   UNL     1     -46.873  56.270 -60.153  1.00  0.00     0.174 C 
HETATM   22  C   UNL     1     -47.676  56.592 -61.399  1.00  0.00     0.034 C 
ENDBRANCH  20  21
ENDBRANCH  18  20
ENDBRANCH   1  18
BRANCH   5  23
HETATM   23  N   UNL     1     -45.068  58.913 -56.517  1.00  0.00    -0.397 N 
HETATM   24  H   UNL     1     -45.625  58.921 -55.667  1.00  0.00     0.156 HD
HETATM   25  H   UNL     1     -44.848  59.868 -56.826  1.00  0.00     0.156 HD
ENDBRANCH   5  23
TORSDOF 4
ENDMDL
MODEL 10
REMARK VINA RESULT:      -5.9      2.563      4.463
REMARK  4 active torsions:
REMARK  status: ('A' for Active; 'I' for Inactive)
REMARK    1  A    between atoms: C_2  and  O_3 
REMARK    2  A    between atoms: O_3  and  C_4 
REMARK    3  A    between atoms: C_4  and  C_5 
REMARK    4  A    between atoms: C_9  and  N_10 
ROOT
HETATM    1  C   UNL     1     -41.010  54.320 -52.762  1.00  0.00     0.109 A 
HETATM    2  S   UNL     1     -40.756  53.783 -54.370  1.00  0.00    -0.063 SA
HETATM    3  C   UNL     1     -41.779  54.971 -54.993  1.00  0.00     0.088 A 
HETATM    4  C   UNL     1     -42.327  55.819 -54.048  1.00  0.00     0.033 A 
HETATM    5  C   UNL     1     -41.877  55.405 -52.739  1.00  0.00     0.063 A 
HETATM    6  N   UNL     1     -42.022  55.063 -56.322  1.00  0.00    -0.353 N 
HETATM    7  H   UNL     1     -41.565  54.385 -56.929  1.00  0.00     0.166 HD
HETATM    8  C   UNL     1     -42.839  56.002 -56.810  1.00  0.00     0.015 A 
HETATM    9  C   UNL     1     -43.058  56.014 -58.293  1.00  0.00     0.069 C 
HETATM   10  C   UNL     1     -43.449  56.912 -55.931  1.00  0.00    -0.005 A 
HETATM   11  C   UNL     1     -43.173  56.859 -54.537  1.00  0.00    -0.030 A 
HETATM   12  C   UNL     1     -43.838  57.873 -53.624  1.00  0.00     0.077 C 
HETATM   13  C   UNL     1     -44.419  59.096 -54.355  1.00  0.00     0.058 C 
HETATM   14  C   UNL     1     -43.335  60.118 -54.735  1.00  0.00     0.046 C 
HETATM   15  C   UNL     1     -45.442  59.792 -53.447  1.00  0.00     0.046 C 
HETATM   16  O   UNL     1     -45.151  58.639 -55.497  1.00  0.00    -0.376 OA
HETATM   17  C   UNL     1     -44.365  57.989 -56.485  1.00  0.00     0.210 C 
ENDROOT
BRANCH   1  18
HETATM   18  C   UNL     1     -40.384  53.661 -51.622  1.00  0.00     0.302 C 
HETATM   19  O   UNL     1     -40.195  52.452 -51.540  1.00  0.00    -0.259 OA
BRANCH  18  20
HETATM   20  O   UNL     1     -40.018  54.562 -50.665  1.00  0.00    -0.317 OA
BRANCH  20  21
HETATM   21  C   UNL     1     -39.723  54.017 -49.368  1.00  0.00     0.174 C 
HETATM   22  C   UNL     1     -40.773  54.455 -48.364  1.00  0.00     0.034 C 
ENDBRANCH  20  21
ENDBRANCH  18  20
ENDBRANCH   1  18
BRANCH   5  23
HETATM   23  N   UNL     1     -42.250  55.995 -51.583  1.00  0.00    -0.397 N 
HETATM   24  H   UNL     1     -42.305  56.999 -51.440  1.00  0.00     0.156 HD
HETATM   25  H   UNL     1     -42.818  55.489 -50.893  1.00  0.00     0.156 HD
ENDBRANCH   5  23
TORSDOF 4
ENDMDL
