MODEL 1
REMARK VINA RESULT:      -8.0      0.000      0.000
REMARK  4 active torsions:
REMARK  status: ('A' for Active; 'I' for Inactive)
REMARK    1  A    between atoms: C_2  and  N_3 
REMARK    2  A    between atoms: C_2  and  C_14 
REMARK    3  A    between atoms: N_3  and  C_6 
REMARK    4  A    between atoms: C_6  and  C_7 
ROOT
HETATM    1  C   UNL     1     -41.880  56.316 -54.046  1.00  0.00     0.048 C 
HETATM    2  C   UNL     1     -42.786  55.474 -54.933  1.00  0.00     0.251 C 
ENDROOT
BRANCH   2   3
HETATM    3  N   UNL     1     -42.262  54.058 -54.981  1.00  0.00    -0.060 N 
HETATM    4  H   UNL     1     -42.666  53.571 -54.162  1.00  0.00     0.278 HD
HETATM    5  H   UNL     1     -42.706  53.558 -55.764  1.00  0.00     0.278 HD
BRANCH   3   6
HETATM    6  C   UNL     1     -40.794  53.868 -54.995  1.00  0.00     0.271 C 
BRANCH   6   7
HETATM    7  C   UNL     1     -40.374  52.851 -53.972  1.00  0.00    -0.033 A 
HETATM    8  C   UNL     1     -40.122  51.521 -54.351  1.00  0.00     0.010 A 
HETATM    9  C   UNL     1     -39.763  50.568 -53.394  1.00  0.00     0.024 A 
HETATM   10  C   UNL     1     -39.657  50.935 -52.054  1.00  0.00     0.034 A 
HETATM   11 CL   UNL     1     -39.215  49.762 -50.879  1.00  0.00    -0.084 Cl
HETATM   12  C   UNL     1     -39.908  52.248 -51.663  1.00  0.00     0.024 A 
HETATM   13  C   UNL     1     -40.270  53.203 -52.617  1.00  0.00     0.010 A 
ENDBRANCH   6   7
ENDBRANCH   3   6
ENDBRANCH   2   3
BRANCH   2  14
HETATM   14  C   UNL     1     -42.834  56.027 -56.366  1.00  0.00     0.138 A 
HETATM   15  N   UNL     1     -42.379  57.224 -56.571  1.00  0.00    -0.232 NA
HETATM   16  C   UNL     1     -42.433  57.727 -57.888  1.00  0.00     0.074 A 
HETATM   17  C   UNL     1     -42.943  56.982 -58.957  1.00  0.00     0.061 A 
HETATM   18  C   UNL     1     -41.967  59.019 -58.140  1.00  0.00     0.032 A 
HETATM   19  C   UNL     1     -43.429  55.625 -58.663  1.00  0.00     0.259 A 
HETATM   20  C   UNL     1     -42.995  57.501 -60.253  1.00  0.00     0.019 A 
HETATM   21  O   UNL     1     -43.888  54.881 -59.518  1.00  0.00    -0.267 OA
HETATM   22  N   UNL     1     -43.339  55.229 -57.350  1.00  0.00    -0.309 N 
HETATM   23  H   UNL     1     -43.683  54.290 -57.188  1.00  0.00     0.170 HD
HETATM   24  C   UNL     1     -42.528  58.792 -60.487  1.00  0.00     0.001 A 
HETATM   25  C   UNL     1     -42.015  59.550 -59.434  1.00  0.00     0.002 A 
ENDBRANCH   2  14
TORSDOF 4
ENDMDL
MODEL 2
REMARK VINA RESULT:      -7.8      4.093      8.255
REMARK  4 active torsions:
REMARK  status: ('A' for Active; 'I' for Inactive)
REMARK    1  A    between atoms: C_2  and  N_3 
REMARK    2  A    between atoms: C_2  and  C_14 
REMARK    3  A    between atoms: N_3  and  C_6 
REMARK    4  A    between atoms: C_6  and  C_7 
ROOT
HETATM    1  C   UNL     1     -44.297  56.378 -54.532  1.00  0.00     0.048 C 
HETATM    2  C   UNL     1     -42.976  55.980 -55.173  1.00  0.00     0.251 C 
ENDROOT
BRANCH   2   3
HETATM    3  N   UNL     1     -43.249  55.219 -56.449  1.00  0.00    -0.060 N 
HETATM    4  H   UNL     1     -42.803  54.292 -56.336  1.00  0.00     0.278 HD
HETATM    5  H   UNL     1     -44.247  54.969 -56.490  1.00  0.00     0.278 HD
BRANCH   3   6
HETATM    6  C   UNL     1     -42.804  55.829 -57.723  1.00  0.00     0.271 C 
BRANCH   6   7
HETATM    7  C   UNL     1     -43.955  55.977 -58.678  1.00  0.00    -0.033 A 
HETATM    8  C   UNL     1     -44.783  57.111 -58.626  1.00  0.00     0.010 A 
HETATM    9  C   UNL     1     -45.872  57.233 -59.493  1.00  0.00     0.024 A 
HETATM   10  C   UNL     1     -46.143  56.224 -60.415  1.00  0.00     0.034 A 
HETATM   11 CL   UNL     1     -47.482  56.376 -61.480  1.00  0.00    -0.084 Cl
HETATM   12  C   UNL     1     -45.333  55.092 -60.474  1.00  0.00     0.024 A 
HETATM   13  C   UNL     1     -44.245  54.965 -59.607  1.00  0.00     0.010 A 
ENDBRANCH   6   7
ENDBRANCH   3   6
ENDBRANCH   2   3
BRANCH   2  14
HETATM   14  C   UNL     1     -42.149  55.084 -54.238  1.00  0.00     0.138 A 
HETATM   15  N   UNL     1     -41.702  53.961 -54.709  1.00  0.00    -0.232 NA
HETATM   16  C   UNL     1     -40.950  53.141 -53.842  1.00  0.00     0.074 A 
HETATM   17  C   UNL     1     -40.670  53.503 -52.520  1.00  0.00     0.061 A 
HETATM   18  C   UNL     1     -40.470  51.918 -54.314  1.00  0.00     0.032 A 
HETATM   19  C   UNL     1     -41.190  54.796 -52.050  1.00  0.00     0.259 A 
HETATM   20  C   UNL     1     -39.929  52.673 -51.675  1.00  0.00     0.019 A 
HETATM   21  O   UNL     1     -41.001  55.219 -50.918  1.00  0.00    -0.267 OA
HETATM   22  N   UNL     1     -41.914  55.519 -52.966  1.00  0.00    -0.309 N 
HETATM   23  H   UNL     1     -42.255  56.402 -52.604  1.00  0.00     0.170 HD
HETATM   24  C   UNL     1     -39.459  51.455 -52.160  1.00  0.00     0.001 A 
HETATM   25  C   UNL     1     -39.727  51.077 -53.476  1.00  0.00     0.002 A 
ENDBRANCH   2  14
TORSDOF 4
ENDMDL
MODEL 3
REMARK VINA RESULT:      -7.8      2.118      3.098
REMARK  4 active torsions:
REMARK  status: ('A' for Active; 'I' for Inactive)
REMARK    1  A    between atoms: C_2  and  N_3 
REMARK    2  A    between atoms: C_2  and  C_14 
REMARK    3  A    between atoms: N_3  and  C_6 
REMARK    4  A    between atoms: C_6  and  C_7 
ROOT
HETATM    1  C   UNL     1     -41.343  57.628 -51.953  1.00  0.00     0.048 C 
HETATM    2  C   UNL     1     -42.497  56.967 -52.694  1.00  0.00     0.251 C 
ENDROOT
BRANCH   2   3
HETATM    3  N   UNL     1     -42.406  55.469 -52.524  1.00  0.00    -0.060 N 
HETATM    4  H   UNL     1     -43.268  55.180 -52.029  1.00  0.00     0.278 HD
HETATM    5  H   UNL     1     -42.527  55.015 -53.440  1.00  0.00     0.278 HD
BRANCH   3   6
HETATM    6  C   UNL     1     -41.225  54.927 -51.815  1.00  0.00     0.271 C 
BRANCH   6   7
HETATM    7  C   UNL     1     -40.763  53.643 -52.445  1.00  0.00    -0.033 A 
HETATM    8  C   UNL     1     -40.011  52.716 -51.703  1.00  0.00     0.010 A 
HETATM    9  C   UNL     1     -39.555  51.536 -52.299  1.00  0.00     0.024 A 
HETATM   10  C   UNL     1     -39.845  51.277 -53.637  1.00  0.00     0.034 A 
HETATM   11 CL   UNL     1     -39.283  49.826 -54.367  1.00  0.00    -0.084 Cl
HETATM   12  C   UNL     1     -40.585  52.188 -54.385  1.00  0.00     0.024 A 
HETATM   13  C   UNL     1     -41.040  53.370 -53.794  1.00  0.00     0.010 A 
ENDBRANCH   6   7
ENDBRANCH   3   6
ENDBRANCH   2   3
BRANCH   2  14
HETATM   14  C   UNL     1     -42.455  57.292 -54.195  1.00  0.00     0.138 A 
HETATM   15  N   UNL     1     -42.758  56.347 -55.030  1.00  0.00    -0.232 NA
HETATM   16  C   UNL     1     -42.711  56.650 -56.407  1.00  0.00     0.074 A 
HETATM   17  C   UNL     1     -42.365  57.919 -56.885  1.00  0.00     0.061 A 
HETATM   18  C   UNL     1     -43.014  55.650 -57.332  1.00  0.00     0.032 A 
HETATM   19  C   UNL     1     -42.049  58.954 -55.888  1.00  0.00     0.259 A 
HETATM   20  C   UNL     1     -42.317  58.198 -58.254  1.00  0.00     0.019 A 
HETATM   21  O   UNL     1     -41.741  60.098 -56.189  1.00  0.00    -0.267 OA
HETATM   22  N   UNL     1     -42.117  58.558 -54.574  1.00  0.00    -0.309 N 
HETATM   23  H   UNL     1     -41.892  59.298 -53.919  1.00  0.00     0.170 HD
HETATM   24  C   UNL     1     -42.620  57.188 -59.164  1.00  0.00     0.001 A 
HETATM   25  C   UNL     1     -42.968  55.917 -58.705  1.00  0.00     0.002 A 
ENDBRANCH   2  14
TORSDOF 4
ENDMDL
MODEL 4
REMARK VINA RESULT:      -7.7      3.903      8.398
REMARK  4 active torsions:
REMARK  status: ('A' for Active; 'I' for Inactive)
REMARK    1  A    between atoms: C_2  and  N_3 
REMARK    2  A    between atoms: C_2  and  C_14 
REMARK    3  A    between atoms: N_3  and  C_6 
REMARK    4  A    between atoms: C_6  and  C_7 
ROOT
HETATM    1  C   UNL     1     -43.086  55.828 -54.037  1.00  0.00     0.048 C 
HETATM    2  C   UNL     1     -41.641  55.575 -54.442  1.00  0.00     0.251 C 
ENDROOT
BRANCH   2   3
HETATM    3  N   UNL     1     -41.575  55.331 -55.932  1.00  0.00    -0.060 N 
HETATM    4  H   UNL     1     -40.811  55.930 -56.291  1.00  0.00     0.278 HD
HETATM    5  H   UNL     1     -41.202  54.387 -56.106  1.00  0.00     0.278 HD
BRANCH   3   6
HETATM    6  C   UNL     1     -42.804  55.569 -56.723  1.00  0.00     0.271 C 
BRANCH   6   7
HETATM    7  C   UNL     1     -42.554  56.573 -57.813  1.00  0.00    -0.033 A 
HETATM    8  C   UNL     1     -42.247  57.907 -57.496  1.00  0.00     0.010 A 
HETATM    9  C   UNL     1     -42.047  58.847 -58.512  1.00  0.00     0.024 A 
HETATM   10  C   UNL     1     -42.154  58.462 -59.846  1.00  0.00     0.034 A 
HETATM   11 CL   UNL     1     -41.907  59.619 -61.092  1.00  0.00    -0.084 Cl
HETATM   12  C   UNL     1     -42.462  57.144 -60.174  1.00  0.00     0.024 A 
HETATM   13  C   UNL     1     -42.666  56.202 -59.163  1.00  0.00     0.010 A 
ENDBRANCH   6   7
ENDBRANCH   3   6
ENDBRANCH   2   3
BRANCH   2  14
HETATM   14  C   UNL     1     -41.066  54.346 -53.720  1.00  0.00     0.138 A 
HETATM   15  N   UNL     1     -40.932  53.249 -54.399  1.00  0.00    -0.232 NA
HETATM   16  C   UNL     1     -40.410  52.124 -53.727  1.00  0.00     0.074 A 
HETATM   17  C   UNL     1     -40.031  52.162 -52.381  1.00  0.00     0.061 A 
HETATM   18  C   UNL     1     -40.271  50.923 -54.425  1.00  0.00     0.032 A 
HETATM   19  C   UNL     1     -40.190  53.440 -51.670  1.00  0.00     0.259 A 
HETATM   20  C   UNL     1     -39.522  51.034 -51.731  1.00  0.00     0.019 A 
HETATM   21  O   UNL     1     -39.885  53.592 -50.496  1.00  0.00    -0.267 OA
HETATM   22  N   UNL     1     -40.712  54.474 -52.408  1.00  0.00    -0.309 N 
HETATM   23  H   UNL     1     -40.807  55.336 -51.884  1.00  0.00     0.170 HD
HETATM   24  C   UNL     1     -39.391  49.842 -52.442  1.00  0.00     0.001 A 
HETATM   25  C   UNL     1     -39.764  49.786 -53.785  1.00  0.00     0.002 A 
ENDBRANCH   2  14
TORSDOF 4
ENDMDL
MODEL 5
REMARK VINA RESULT:      -7.7      4.425      7.820
REMARK  4 active torsions:
REMARK  status: ('A' for Active; 'I' for Inactive)
REMARK    1  A    between atoms: C_2  and  N_3 
REMARK    2  A    between atoms: C_2  and  C_14 
REMARK    3  A    between atoms: N_3  and  C_6 
REMARK    4  A    between atoms: C_6  and  C_7 
ROOT
HETATM    1  C   UNL     1     -40.248  53.984 -48.503  1.00  0.00     0.048 C 
HETATM    2  C   UNL     1     -40.238  54.741 -49.823  1.00  0.00     0.251 C 
ENDROOT
BRANCH   2   3
HETATM    3  N   UNL     1     -41.479  55.597 -49.916  1.00  0.00    -0.060 N 
HETATM    4  H   UNL     1     -42.092  55.143 -50.616  1.00  0.00     0.278 HD
HETATM    5  H   UNL     1     -42.031  55.493 -49.053  1.00  0.00     0.278 HD
BRANCH   3   6
HETATM    6  C   UNL     1     -41.305  57.025 -50.265  1.00  0.00     0.271 C 
BRANCH   6   7
HETATM    7  C   UNL     1     -41.830  57.309 -51.644  1.00  0.00    -0.033 A 
HETATM    8  C   UNL     1     -43.141  56.947 -51.997  1.00  0.00     0.010 A 
HETATM    9  C   UNL     1     -43.617  57.182 -53.290  1.00  0.00     0.024 A 
HETATM   10  C   UNL     1     -42.787  57.778 -54.238  1.00  0.00     0.034 A 
HETATM   11 CL   UNL     1     -43.375  58.066 -55.826  1.00  0.00    -0.084 Cl
HETATM   12  C   UNL     1     -41.484  58.138 -53.904  1.00  0.00     0.024 A 
HETATM   13  C   UNL     1     -41.003  57.901 -52.613  1.00  0.00     0.010 A 
ENDBRANCH   6   7
ENDBRANCH   3   6
ENDBRANCH   2   3
BRANCH   2  14
HETATM   14  C   UNL     1     -40.216  53.778 -51.020  1.00  0.00     0.138 A 
HETATM   15  N   UNL     1     -39.920  52.535 -50.794  1.00  0.00    -0.232 NA
HETATM   16  C   UNL     1     -39.895  51.658 -51.900  1.00  0.00     0.074 A 
HETATM   17  C   UNL     1     -40.187  52.081 -53.201  1.00  0.00     0.061 A 
HETATM   18  C   UNL     1     -39.562  50.319 -51.693  1.00  0.00     0.032 A 
HETATM   19  C   UNL     1     -40.533  53.499 -53.389  1.00  0.00     0.259 A 
HETATM   20  C   UNL     1     -40.150  51.199 -54.283  1.00  0.00     0.019 A 
HETATM   21  O   UNL     1     -40.813  53.978 -54.478  1.00  0.00    -0.267 OA
HETATM   22  N   UNL     1     -40.523  54.272 -52.254  1.00  0.00    -0.309 N 
HETATM   23  H   UNL     1     -40.766  55.241 -52.424  1.00  0.00     0.170 HD
HETATM   24  C   UNL     1     -39.814  49.865 -54.061  1.00  0.00     0.001 A 
HETATM   25  C   UNL     1     -39.521  49.425 -52.770  1.00  0.00     0.002 A 
ENDBRANCH   2  14
TORSDOF 4
ENDMDL
MODEL 6
REMARK VINA RESULT:      -7.6      4.788      6.080
REMARK  4 active torsions:
REMARK  status: ('A' for Active; 'I' for Inactive)
REMARK    1  A    between atoms: C_2  and  N_3 
REMARK    2  A    between atoms: C_2  and  C_14 
REMARK    3  A    between atoms: N_3  and  C_6 
REMARK    4  A    between atoms: C_6  and  C_7 
ROOT
HETATM    1  C   UNL     1     -43.528  54.549 -51.282  1.00  0.00     0.048 C 
HETATM    2  C   UNL     1     -43.064  55.669 -52.202  1.00  0.00     0.251 C 
ENDROOT
BRANCH   2   3
HETATM    3  N   UNL     1     -41.555  55.674 -52.260  1.00  0.00    -0.060 N 
HETATM    4  H   UNL     1     -41.263  56.658 -52.126  1.00  0.00     0.278 HD
HETATM    5  H   UNL     1     -41.180  55.226 -51.413  1.00  0.00     0.278 HD
BRANCH   3   6
HETATM    6  C   UNL     1     -40.911  55.129 -53.477  1.00  0.00     0.271 C 
BRANCH   6   7
HETATM    7  C   UNL     1     -40.556  53.681 -53.293  1.00  0.00    -0.033 A 
HETATM    8  C   UNL     1     -40.129  53.205 -52.042  1.00  0.00     0.010 A 
HETATM    9  C   UNL     1     -39.768  51.864 -51.880  1.00  0.00     0.024 A 
HETATM   10  C   UNL     1     -39.829  50.992 -52.965  1.00  0.00     0.034 A 
HETATM   11 CL   UNL     1     -39.385  49.345 -52.764  1.00  0.00    -0.084 Cl
HETATM   12  C   UNL     1     -40.245  51.451 -54.212  1.00  0.00     0.024 A 
HETATM   13  C   UNL     1     -40.604  52.792 -54.379  1.00  0.00     0.010 A 
ENDBRANCH   6   7
ENDBRANCH   3   6
ENDBRANCH   2   3
BRANCH   2  14
HETATM   14  C   UNL     1     -43.539  57.040 -51.697  1.00  0.00     0.138 A 
HETATM   15  N   UNL     1     -42.665  57.996 -51.620  1.00  0.00    -0.232 NA
HETATM   16  C   UNL     1     -43.107  59.249 -51.148  1.00  0.00     0.074 A 
HETATM   17  C   UNL     1     -44.435  59.488 -50.780  1.00  0.00     0.061 A 
HETATM   18  C   UNL     1     -42.187  60.293 -51.037  1.00  0.00     0.032 A 
HETATM   19  C   UNL     1     -45.382  58.369 -50.906  1.00  0.00     0.259 A 
HETATM   20  C   UNL     1     -44.852  60.735 -50.308  1.00  0.00     0.019 A 
HETATM   21  O   UNL     1     -46.568  58.464 -50.620  1.00  0.00    -0.267 OA
HETATM   22  N   UNL     1     -44.855  57.188 -51.368  1.00  0.00    -0.309 N 
HETATM   23  H   UNL     1     -45.537  56.443 -51.440  1.00  0.00     0.170 HD
HETATM   24  C   UNL     1     -43.921  61.767 -50.201  1.00  0.00     0.001 A 
HETATM   25  C   UNL     1     -42.592  61.548 -50.565  1.00  0.00     0.002 A 
ENDBRANCH   2  14
TORSDOF 4
ENDMDL
MODEL 7
REMARK VINA RESULT:      -7.6      2.172      2.916
REMARK  4 active torsions:
REMARK  status: ('A' for Active; 'I' for Inactive)
REMARK    1  A    between atoms: C_2  and  N_3 
REMARK    2  A    between atoms: C_2  and  C_14 
REMARK    3  A    between atoms: N_3  and  C_6 
REMARK    4  A    between atoms: C_6  and  C_7 
ROOT
HETATM    1  C   UNL     1     -43.757  58.092 -52.826  1.00  0.00     0.048 C 
HETATM    2  C   UNL     1     -44.259  57.133 -53.896  1.00  0.00     0.251 C 
ENDROOT
BRANCH   2   3
HETATM    3  N   UNL     1     -43.925  55.716 -53.494  1.00  0.00    -0.060 N 
HETATM    4  H   UNL     1     -44.811  55.290 -53.170  1.00  0.00     0.278 HD
HETATM    5  H   UNL     1     -43.721  55.162 -54.337  1.00  0.00     0.278 HD
BRANCH   3   6
HETATM    6  C   UNL     1     -42.878  55.522 -52.465  1.00  0.00     0.271 C 
BRANCH   6   7
HETATM    7  C   UNL     1     -41.979  54.372 -52.825  1.00  0.00    -0.033 A 
HETATM    8  C   UNL     1     -42.065  53.769 -54.092  1.00  0.00     0.010 A 
HETATM    9  C   UNL     1     -41.251  52.680 -54.414  1.00  0.00     0.024 A 
HETATM   10  C   UNL     1     -40.349  52.184 -53.475  1.00  0.00     0.034 A 
HETATM   11 CL   UNL     1     -39.350  50.845 -53.873  1.00  0.00    -0.084 Cl
HETATM   12  C   UNL     1     -40.257  52.769 -52.214  1.00  0.00     0.024 A 
HETATM   13  C   UNL     1     -41.071  53.856 -51.887  1.00  0.00     0.010 A 
ENDBRANCH   6   7
ENDBRANCH   3   6
ENDBRANCH   2   3
BRANCH   2  14
HETATM   14  C   UNL     1     -43.603  57.422 -55.256  1.00  0.00     0.138 A 
HETATM   15  N   UNL     1     -43.742  56.540 -56.197  1.00  0.00    -0.232 NA
HETATM   16  C   UNL     1     -43.131  56.809 -57.440  1.00  0.00     0.074 A 
HETATM   17  C   UNL     1     -42.405  57.980 -57.683  1.00  0.00     0.061 A 
HETATM   18  C   UNL     1     -43.247  55.872 -58.468  1.00  0.00     0.032 A 
HETATM   19  C   UNL     1     -42.298  58.949 -56.581  1.00  0.00     0.259 A 
HETATM   20  C   UNL     1     -41.801  58.225 -58.919  1.00  0.00     0.019 A 
HETATM   21  O   UNL     1     -41.695  60.008 -56.681  1.00  0.00    -0.267 OA
HETATM   22  N   UNL     1     -42.921  58.594 -55.410  1.00  0.00    -0.309 N 
HETATM   23  H   UNL     1     -42.824  59.286 -54.676  1.00  0.00     0.170 HD
HETATM   24  C   UNL     1     -41.925  57.278 -59.934  1.00  0.00     0.001 A 
HETATM   25  C   UNL     1     -42.646  56.105 -59.711  1.00  0.00     0.002 A 
ENDBRANCH   2  14
TORSDOF 4
ENDMDL
MODEL 8
REMARK VINA RESULT:      -7.5      4.128      7.447
REMARK  4 active torsions:
REMARK  status: ('A' for Active; 'I' for Inactive)
REMARK    1  A    between atoms: C_2  and  N_3 
REMARK    2  A    between atoms: C_2  and  C_14 
REMARK    3  A    between atoms: N_3  and  C_6 
REMARK    4  A    between atoms: C_6  and  C_7 
ROOT
HETATM    1  C   UNL     1     -42.850  54.831 -55.939  1.00  0.00     0.048 C 
HETATM    2  C   UNL     1     -43.584  54.537 -54.639  1.00  0.00     0.251 C 
ENDROOT
BRANCH   2   3
HETATM    3  N   UNL     1     -44.415  55.738 -54.252  1.00  0.00    -0.060 N 
HETATM    4  H   UNL     1     -45.371  55.555 -54.603  1.00  0.00     0.278 HD
HETATM    5  H   UNL     1     -44.561  55.737 -53.233  1.00  0.00     0.278 HD
BRANCH   3   6
HETATM    6  C   UNL     1     -43.962  57.067 -54.721  1.00  0.00     0.271 C 
BRANCH   6   7
HETATM    7  C   UNL     1     -43.139  57.756 -53.670  1.00  0.00    -0.033 A 
HETATM    8  C   UNL     1     -41.750  57.897 -53.831  1.00  0.00     0.010 A 
HETATM    9  C   UNL     1     -40.981  58.509 -52.838  1.00  0.00     0.024 A 
HETATM   10  C   UNL     1     -41.591  58.981 -51.678  1.00  0.00     0.034 A 
HETATM   11 CL   UNL     1     -40.643  59.733 -50.458  1.00  0.00    -0.084 Cl
HETATM   12  C   UNL     1     -42.966  58.844 -51.502  1.00  0.00     0.024 A 
HETATM   13  C   UNL     1     -43.738  58.230 -52.492  1.00  0.00     0.010 A 
ENDBRANCH   6   7
ENDBRANCH   3   6
ENDBRANCH   2   3
BRANCH   2  14
HETATM   14  C   UNL     1     -42.600  54.236 -53.498  1.00  0.00     0.138 A 
HETATM   15  N   UNL     1     -42.787  54.832 -52.361  1.00  0.00    -0.232 NA
HETATM   16  C   UNL     1     -41.874  54.557 -51.320  1.00  0.00     0.074 A 
HETATM   17  C   UNL     1     -40.805  53.668 -51.475  1.00  0.00     0.061 A 
HETATM   18  C   UNL     1     -42.037  55.196 -50.090  1.00  0.00     0.032 A 
HETATM   19  C   UNL     1     -40.656  53.010 -52.782  1.00  0.00     0.259 A 
HETATM   20  C   UNL     1     -39.908  53.414 -50.434  1.00  0.00     0.019 A 
HETATM   21  O   UNL     1     -39.765  52.211 -53.029  1.00  0.00    -0.267 OA
HETATM   22  N   UNL     1     -41.590  53.349 -53.731  1.00  0.00    -0.309 N 
HETATM   23  H   UNL     1     -41.454  52.876 -54.617  1.00  0.00     0.170 HD
HETATM   24  C   UNL     1     -40.083  54.062 -49.213  1.00  0.00     0.001 A 
HETATM   25  C   UNL     1     -41.145  54.950 -49.040  1.00  0.00     0.002 A 
ENDBRANCH   2  14
TORSDOF 4
ENDMDL
MODEL 9
REMARK VINA RESULT:      -7.5      5.675      8.436
REMARK  4 active torsions:
REMARK  status: ('A' for Active; 'I' for Inactive)
REMARK    1  A    between atoms: C_2  and  N_3 
REMARK    2  A    between atoms: C_2  and  C_14 
REMARK    3  A    between atoms: N_3  and  C_6 
REMARK    4  A    between atoms: C_6  and  C_7 
ROOT
HETATM    1  C   UNL     1     -40.739  54.295 -48.584  1.00  0.00     0.048 C 
HETATM    2  C   UNL     1     -40.303  54.969 -49.877  1.00  0.00     0.251 C 
ENDROOT
BRANCH   2   3
HETATM    3  N   UNL     1     -41.264  56.086 -50.207  1.00  0.00    -0.060 N 
HETATM    4  H   UNL     1     -41.898  55.718 -50.937  1.00  0.00     0.278 HD
HETATM    5  H   UNL     1     -41.910  56.224 -49.417  1.00  0.00     0.278 HD
BRANCH   3   6
HETATM    6  C   UNL     1     -40.692  57.376 -50.654  1.00  0.00     0.271 C 
BRANCH   6   7
HETATM    7  C   UNL     1     -41.774  58.395 -50.878  1.00  0.00    -0.033 A 
HETATM    8  C   UNL     1     -41.594  59.727 -50.469  1.00  0.00     0.010 A 
HETATM    9  C   UNL     1     -42.613  60.667 -50.649  1.00  0.00     0.024 A 
HETATM   10  C   UNL     1     -43.817  60.282 -51.234  1.00  0.00     0.034 A 
HETATM   11 CL   UNL     1     -45.069  61.438 -51.454  1.00  0.00    -0.084 Cl
HETATM   12  C   UNL     1     -44.012  58.963 -51.639  1.00  0.00     0.024 A 
HETATM   13  C   UNL     1     -42.996  58.021 -51.459  1.00  0.00     0.010 A 
ENDBRANCH   6   7
ENDBRANCH   3   6
ENDBRANCH   2   3
BRANCH   2  14
HETATM   14  C   UNL     1     -40.290  53.974 -51.048  1.00  0.00     0.138 A 
HETATM   15  N   UNL     1     -39.933  52.751 -50.803  1.00  0.00    -0.232 NA
HETATM   16  C   UNL     1     -39.916  51.845 -51.885  1.00  0.00     0.074 A 
HETATM   17  C   UNL     1     -40.278  52.219 -53.183  1.00  0.00     0.061 A 
HETATM   18  C   UNL     1     -39.519  50.527 -51.658  1.00  0.00     0.032 A 
HETATM   19  C   UNL     1     -40.690  53.616 -53.394  1.00  0.00     0.259 A 
HETATM   20  C   UNL     1     -40.248  51.309 -54.243  1.00  0.00     0.019 A 
HETATM   21  O   UNL     1     -41.034  54.053 -54.483  1.00  0.00    -0.267 OA
HETATM   22  N   UNL     1     -40.667  54.420 -52.281  1.00  0.00    -0.309 N 
HETATM   23  H   UNL     1     -40.957  55.373 -52.467  1.00  0.00     0.170 HD
HETATM   24  C   UNL     1     -39.848  49.997 -54.000  1.00  0.00     0.001 A 
HETATM   25  C   UNL     1     -39.485  49.605 -52.711  1.00  0.00     0.002 A 
ENDBRANCH   2  14
TORSDOF 4
ENDMDL
MODEL 10
REMARK VINA RESULT:      -7.4      3.778      7.312
REMARK  4 active torsions:
REMARK  status: ('A' for Active; 'I' for Inactive)
REMARK    1  A    between atoms: C_2  and  N_3 
REMARK    2  A    between atoms: C_2  and  C_14 
REMARK    3  A    between atoms: N_3  and  C_6 
REMARK    4  A    between atoms: C_6  and  C_7 
ROOT
HETATM    1  C   UNL     1     -42.617  55.876 -56.275  1.00  0.00     0.048 C 
HETATM    2  C   UNL     1     -43.345  55.380 -55.034  1.00  0.00     0.251 C 
ENDROOT
BRANCH   2   3
HETATM    3  N   UNL     1     -43.878  56.563 -54.261  1.00  0.00    -0.060 N 
HETATM    4  H   UNL     1     -44.905  56.556 -54.392  1.00  0.00     0.278 HD
HETATM    5  H   UNL     1     -43.793  56.377 -53.252  1.00  0.00     0.278 HD
BRANCH   3   6
HETATM    6  C   UNL     1     -43.346  57.902 -54.600  1.00  0.00     0.271 C 
BRANCH   6   7
HETATM    7  C   UNL     1     -42.393  58.384 -53.542  1.00  0.00    -0.033 A 
HETATM    8  C   UNL     1     -41.016  58.473 -53.810  1.00  0.00     0.010 A 
HETATM    9  C   UNL     1     -40.127  58.891 -52.815  1.00  0.00     0.024 A 
HETATM   10  C   UNL     1     -40.606  59.219 -51.549  1.00  0.00     0.034 A 
HETATM   11 CL   UNL     1     -39.512  59.733 -50.328  1.00  0.00    -0.084 Cl
HETATM   12  C   UNL     1     -41.968  59.132 -51.268  1.00  0.00     0.024 A 
HETATM   13  C   UNL     1     -42.859  58.712 -52.258  1.00  0.00     0.010 A 
ENDBRANCH   6   7
ENDBRANCH   3   6
ENDBRANCH   2   3
BRANCH   2  14
HETATM   14  C   UNL     1     -42.404  54.581 -54.117  1.00  0.00     0.138 A 
HETATM   15  N   UNL     1     -41.870  53.498 -54.590  1.00  0.00    -0.232 NA
HETATM   16  C   UNL     1     -41.015  52.766 -53.740  1.00  0.00     0.074 A 
HETATM   17  C   UNL     1     -40.723  53.175 -52.434  1.00  0.00     0.061 A 
HETATM   18  C   UNL     1     -40.438  51.586 -54.212  1.00  0.00     0.032 A 
HETATM   19  C   UNL     1     -41.346  54.421 -51.962  1.00  0.00     0.259 A 
HETATM   20  C   UNL     1     -39.878  52.433 -51.605  1.00  0.00     0.019 A 
HETATM   21  O   UNL     1     -41.159  54.879 -50.843  1.00  0.00    -0.267 OA
HETATM   22  N   UNL     1     -42.168  55.057 -52.861  1.00  0.00    -0.309 N 
HETATM   23  H   UNL     1     -42.577  55.910 -52.499  1.00  0.00     0.170 HD
HETATM   24  C   UNL     1     -39.312  51.256 -52.092  1.00  0.00     0.001 A 
HETATM   25  C   UNL     1     -39.590  50.833 -53.392  1.00  0.00     0.002 A 
ENDBRANCH   2  14
TORSDOF 4
ENDMDL
