MODEL 1
REMARK VINA RESULT:      -7.8      0.000      0.000
REMARK  3 active torsions:
REMARK  status: ('A' for Active; 'I' for Inactive)
REMARK    1  A    between atoms: C_11  and  N_12 
REMARK       I    between atoms: N_12  and  C_13 
REMARK       I    between atoms: C_13  and  N_14 
REMARK    2  A    between atoms: N_14  and  C_15 
REMARK    3  A    between atoms: C_20  and  O_21 
ROOT
HETATM    1  N   UNL     1     -42.464  56.482 -57.239  1.00  0.00    -0.338 N 
HETATM    2  C   UNL     1     -42.490  55.748 -56.062  1.00  0.00     0.321 C 
HETATM    3  N   UNL     1     -41.267  55.173 -55.808  1.00  0.00    -0.306 N 
HETATM    4  O   UNL     1     -43.501  55.628 -55.389  1.00  0.00    -0.247 OA
HETATM    5  H   UNL     1     -41.524  56.795 -57.448  1.00  0.00     0.164 HD
HETATM    6  H   UNL     1     -40.502  55.364 -56.442  1.00  0.00     0.171 HD
ENDROOT
BRANCH   1   7
HETATM    7  C   UNL     1     -43.504  57.450 -57.588  1.00  0.00     0.091 C 
HETATM    8  C   UNL     1     -44.801  56.930 -58.223  1.00  0.00     0.063 C 
HETATM    9  C   UNL     1     -44.681  56.443 -59.667  1.00  0.00     0.121 C 
HETATM   10  N   UNL     1     -43.986  57.510 -60.492  1.00  0.00    -0.059 N 
HETATM   11  C   UNL     1     -43.970  55.097 -59.836  1.00  0.00     0.046 C 
HETATM   12  C   UNL     1     -46.095  56.297 -60.268  1.00  0.00     0.046 C 
HETATM   13  C   UNL     1     -42.750  58.201 -59.959  1.00  0.00     0.121 C 
HETATM   14  H   UNL     1     -44.688  58.240 -60.682  1.00  0.00     0.279 HD
HETATM   15  H   UNL     1     -43.776  57.117 -61.422  1.00  0.00     0.279 HD
HETATM   16  C   UNL     1     -41.508  57.346 -60.233  1.00  0.00     0.046 C 
HETATM   17  C   UNL     1     -42.606  59.500 -60.781  1.00  0.00     0.046 C 
HETATM   18  C   UNL     1     -42.935  58.568 -58.474  1.00  0.00     0.063 C 
ENDBRANCH   1   7
BRANCH   3  19
HETATM   19  C   UNL     1     -40.901  54.383 -54.692  1.00  0.00     0.077 A 
HETATM   20  C   UNL     1     -40.960  55.005 -53.437  1.00  0.00     0.143 A 
HETATM   21  F   UNL     1     -41.345  56.289 -53.359  1.00  0.00    -0.204 F 
HETATM   22  C   UNL     1     -40.645  54.321 -52.270  1.00  0.00     0.047 A 
HETATM   23  C   UNL     1     -40.248  52.989 -52.352  1.00  0.00     0.040 A 
HETATM   24  C   UNL     1     -40.164  52.349 -53.593  1.00  0.00     0.070 A 
HETATM   25  C   UNL     1     -40.497  53.046 -54.761  1.00  0.00     0.069 A 
BRANCH  24  26
HETATM   26  O   UNL     1     -39.748  51.047 -53.527  1.00  0.00    -0.356 OA
HETATM   27  C   UNL     1     -40.313  50.136 -54.462  1.00  0.00     0.210 C 
ENDBRANCH  24  26
ENDBRANCH   3  19
TORSDOF 3
ENDMDL
MODEL 2
REMARK VINA RESULT:      -7.5      4.281      5.515
REMARK  3 active torsions:
REMARK  status: ('A' for Active; 'I' for Inactive)
REMARK    1  A    between atoms: C_11  and  N_12 
REMARK       I    between atoms: N_12  and  C_13 
REMARK       I    between atoms: C_13  and  N_14 
REMARK    2  A    between atoms: N_14  and  C_15 
REMARK    3  A    between atoms: C_20  and  O_21 
ROOT
HETATM    1  N   UNL     1     -42.360  56.976 -53.356  1.00  0.00    -0.338 N 
HETATM    2  C   UNL     1     -42.280  55.624 -53.056  1.00  0.00     0.321 C 
HETATM    3  N   UNL     1     -41.045  55.115 -53.381  1.00  0.00    -0.306 N 
HETATM    4  O   UNL     1     -43.223  54.999 -52.595  1.00  0.00    -0.247 OA
HETATM    5  H   UNL     1     -41.442  57.401 -53.350  1.00  0.00     0.164 HD
HETATM    6  H   UNL     1     -40.343  55.746 -53.745  1.00  0.00     0.171 HD
ENDROOT
BRANCH   1   7
HETATM    7  C   UNL     1     -43.418  57.838 -52.831  1.00  0.00     0.091 C 
HETATM    8  C   UNL     1     -43.970  58.950 -53.735  1.00  0.00     0.063 C 
HETATM    9  C   UNL     1     -43.033  60.135 -53.972  1.00  0.00     0.121 C 
HETATM   10  N   UNL     1     -42.525  60.637 -52.634  1.00  0.00    -0.059 N 
HETATM   11  C   UNL     1     -41.858  59.851 -54.911  1.00  0.00     0.046 C 
HETATM   12  C   UNL     1     -43.841  61.300 -54.583  1.00  0.00     0.046 C 
HETATM   13  C   UNL     1     -42.044  59.658 -51.584  1.00  0.00     0.121 C 
HETATM   14  H   UNL     1     -43.290  61.185 -52.214  1.00  0.00     0.279 HD
HETATM   15  H   UNL     1     -41.784  61.333 -52.807  1.00  0.00     0.279 HD
HETATM   16  C   UNL     1     -40.589  59.265 -51.857  1.00  0.00     0.046 C 
HETATM   17  C   UNL     1     -42.071  60.428 -50.246  1.00  0.00     0.046 C 
HETATM   18  C   UNL     1     -43.004  58.456 -51.488  1.00  0.00     0.063 C 
ENDBRANCH   1   7
BRANCH   3  19
HETATM   19  C   UNL     1     -40.581  53.790 -53.194  1.00  0.00     0.077 A 
HETATM   20  C   UNL     1     -40.269  53.065 -54.353  1.00  0.00     0.143 A 
HETATM   21  F   UNL     1     -40.429  53.647 -55.552  1.00  0.00    -0.204 F 
HETATM   22  C   UNL     1     -39.785  51.765 -54.290  1.00  0.00     0.047 A 
HETATM   23  C   UNL     1     -39.618  51.165 -53.045  1.00  0.00     0.040 A 
HETATM   24  C   UNL     1     -39.938  51.859 -51.873  1.00  0.00     0.070 A 
HETATM   25  C   UNL     1     -40.413  53.174 -51.950  1.00  0.00     0.069 A 
BRANCH  24  26
HETATM   26  O   UNL     1     -39.738  51.144 -50.724  1.00  0.00    -0.356 OA
HETATM   27  C   UNL     1     -39.661  49.729 -50.844  1.00  0.00     0.210 C 
ENDBRANCH  24  26
ENDBRANCH   3  19
TORSDOF 3
ENDMDL
MODEL 3
REMARK VINA RESULT:      -7.5      1.751      2.300
REMARK  3 active torsions:
REMARK  status: ('A' for Active; 'I' for Inactive)
REMARK    1  A    between atoms: C_11  and  N_12 
REMARK       I    between atoms: N_12  and  C_13 
REMARK       I    between atoms: C_13  and  N_14 
REMARK    2  A    between atoms: N_14  and  C_15 
REMARK    3  A    between atoms: C_20  and  O_21 
ROOT
HETATM    1  N   UNL     1     -43.696  56.387 -57.215  1.00  0.00    -0.338 N 
HETATM    2  C   UNL     1     -43.368  56.129 -55.892  1.00  0.00     0.321 C 
HETATM    3  N   UNL     1     -42.632  54.974 -55.779  1.00  0.00    -0.306 N 
HETATM    4  O   UNL     1     -43.736  56.847 -54.975  1.00  0.00    -0.247 OA
HETATM    5  H   UNL     1     -43.027  55.959 -57.842  1.00  0.00     0.164 HD
HETATM    6  H   UNL     1     -42.380  54.477 -56.624  1.00  0.00     0.171 HD
ENDROOT
BRANCH   1   7
HETATM    7  C   UNL     1     -44.186  57.690 -57.666  1.00  0.00     0.091 C 
HETATM    8  C   UNL     1     -45.509  57.743 -58.443  1.00  0.00     0.063 C 
HETATM    9  C   UNL     1     -45.459  57.195 -59.870  1.00  0.00     0.121 C 
HETATM   10  N   UNL     1     -44.298  57.837 -60.605  1.00  0.00    -0.059 N 
HETATM   11  C   UNL     1     -45.373  55.671 -59.973  1.00  0.00     0.046 C 
HETATM   12  C   UNL     1     -46.732  57.638 -60.623  1.00  0.00     0.046 C 
HETATM   13  C   UNL     1     -42.946  57.961 -59.934  1.00  0.00     0.121 C 
HETATM   14  H   UNL     1     -44.600  58.787 -60.863  1.00  0.00     0.279 HD
HETATM   15  H   UNL     1     -44.180  57.357 -61.510  1.00  0.00     0.279 HD
HETATM   16  C   UNL     1     -42.163  56.652 -60.079  1.00  0.00     0.046 C 
HETATM   17  C   UNL     1     -42.182  59.046 -60.724  1.00  0.00     0.046 C 
HETATM   18  C   UNL     1     -43.109  58.428 -58.475  1.00  0.00     0.063 C 
ENDBRANCH   1   7
BRANCH   3  19
HETATM   19  C   UNL     1     -42.091  54.407 -54.599  1.00  0.00     0.077 A 
HETATM   20  C   UNL     1     -40.818  53.830 -54.707  1.00  0.00     0.143 A 
HETATM   21  F   UNL     1     -40.194  53.838 -55.896  1.00  0.00    -0.204 F 
HETATM   22  C   UNL     1     -40.180  53.264 -53.611  1.00  0.00     0.047 A 
HETATM   23  C   UNL     1     -40.828  53.258 -52.379  1.00  0.00     0.040 A 
HETATM   24  C   UNL     1     -42.106  53.812 -52.247  1.00  0.00     0.070 A 
HETATM   25  C   UNL     1     -42.733  54.392 -53.357  1.00  0.00     0.069 A 
BRANCH  24  26
HETATM   26  O   UNL     1     -42.628  53.726 -50.985  1.00  0.00    -0.356 OA
HETATM   27  C   UNL     1     -43.667  54.638 -50.648  1.00  0.00     0.210 C 
ENDBRANCH  24  26
ENDBRANCH   3  19
TORSDOF 3
ENDMDL
MODEL 4
REMARK VINA RESULT:      -7.2      3.048      4.159
REMARK  3 active torsions:
REMARK  status: ('A' for Active; 'I' for Inactive)
REMARK    1  A    between atoms: C_11  and  N_12 
REMARK       I    between atoms: N_12  and  C_13 
REMARK       I    between atoms: C_13  and  N_14 
REMARK    2  A    between atoms: N_14  and  C_15 
REMARK    3  A    between atoms: C_20  and  O_21 
ROOT
HETATM    1  N   UNL     1     -42.862  56.803 -53.600  1.00  0.00    -0.338 N 
HETATM    2  C   UNL     1     -42.680  55.431 -53.500  1.00  0.00     0.321 C 
HETATM    3  N   UNL     1     -41.355  55.118 -53.312  1.00  0.00    -0.306 N 
HETATM    4  O   UNL     1     -43.605  54.640 -53.604  1.00  0.00    -0.247 OA
HETATM    5  H   UNL     1     -42.120  57.301 -53.124  1.00  0.00     0.164 HD
HETATM    6  H   UNL     1     -40.687  55.873 -53.228  1.00  0.00     0.171 HD
ENDROOT
BRANCH   1   7
HETATM    7  C   UNL     1     -44.175  57.436 -53.481  1.00  0.00     0.091 C 
HETATM    8  C   UNL     1     -45.064  57.516 -54.730  1.00  0.00     0.063 C 
HETATM    9  C   UNL     1     -44.611  58.511 -55.800  1.00  0.00     0.121 C 
HETATM   10  N   UNL     1     -44.358  59.856 -55.147  1.00  0.00    -0.059 N 
HETATM   11  C   UNL     1     -43.385  58.075 -56.607  1.00  0.00     0.046 C 
HETATM   12  C   UNL     1     -45.766  58.734 -56.799  1.00  0.00     0.046 C 
HETATM   13  C   UNL     1     -43.588  59.941 -53.847  1.00  0.00     0.121 C 
HETATM   14  H   UNL     1     -45.281  60.284 -54.985  1.00  0.00     0.279 HD
HETATM   15  H   UNL     1     -43.914  60.476 -55.841  1.00  0.00     0.279 HD
HETATM   16  C   UNL     1     -42.081  59.923 -54.125  1.00  0.00     0.046 C 
HETATM   17  C   UNL     1     -43.930  61.320 -53.244  1.00  0.00     0.046 C 
HETATM   18  C   UNL     1     -44.051  58.840 -52.873  1.00  0.00     0.063 C 
ENDBRANCH   1   7
BRANCH   3  19
HETATM   19  C   UNL     1     -40.789  53.832 -53.135  1.00  0.00     0.077 A 
HETATM   20  C   UNL     1     -40.348  53.177 -54.293  1.00  0.00     0.143 A 
HETATM   21  F   UNL     1     -40.486  53.783 -55.483  1.00  0.00    -0.204 F 
HETATM   22  C   UNL     1     -39.756  51.921 -54.239  1.00  0.00     0.047 A 
HETATM   23  C   UNL     1     -39.612  51.294 -53.004  1.00  0.00     0.040 A 
HETATM   24  C   UNL     1     -40.059  51.918 -51.834  1.00  0.00     0.070 A 
HETATM   25  C   UNL     1     -40.641  53.190 -51.902  1.00  0.00     0.069 A 
BRANCH  24  26
HETATM   26  O   UNL     1     -39.866  51.184 -50.696  1.00  0.00    -0.356 OA
HETATM   27  C   UNL     1     -39.516  49.814 -50.858  1.00  0.00     0.210 C 
ENDBRANCH  24  26
ENDBRANCH   3  19
TORSDOF 3
ENDMDL
MODEL 5
REMARK VINA RESULT:      -7.2      4.326      5.464
REMARK  3 active torsions:
REMARK  status: ('A' for Active; 'I' for Inactive)
REMARK    1  A    between atoms: C_11  and  N_12 
REMARK       I    between atoms: N_12  and  C_13 
REMARK       I    between atoms: C_13  and  N_14 
REMARK    2  A    between atoms: N_14  and  C_15 
REMARK    3  A    between atoms: C_20  and  O_21 
ROOT
HETATM    1  N   UNL     1     -42.608  57.310 -53.050  1.00  0.00    -0.338 N 
HETATM    2  C   UNL     1     -42.514  55.927 -53.002  1.00  0.00     0.321 C 
HETATM    3  N   UNL     1     -41.203  55.521 -52.928  1.00  0.00    -0.306 N 
HETATM    4  O   UNL     1     -43.496  55.202 -53.054  1.00  0.00    -0.247 OA
HETATM    5  H   UNL     1     -41.800  57.742 -52.621  1.00  0.00     0.164 HD
HETATM    6  H   UNL     1     -40.480  56.228 -52.877  1.00  0.00     0.171 HD
ENDROOT
BRANCH   1   7
HETATM    7  C   UNL     1     -43.862  58.024 -52.810  1.00  0.00     0.091 C 
HETATM    8  C   UNL     1     -44.348  59.025 -53.868  1.00  0.00     0.063 C 
HETATM    9  C   UNL     1     -43.550  60.327 -53.960  1.00  0.00     0.121 C 
HETATM   10  N   UNL     1     -43.420  60.925 -52.573  1.00  0.00    -0.059 N 
HETATM   11  C   UNL     1     -42.171  60.193 -54.610  1.00  0.00     0.046 C 
HETATM   12  C   UNL     1     -44.354  61.351 -54.790  1.00  0.00     0.046 C 
HETATM   13  C   UNL     1     -43.054  60.048 -51.395  1.00  0.00     0.121 C 
HETATM   14  H   UNL     1     -44.325  61.367 -52.355  1.00  0.00     0.279 HD
HETATM   15  H   UNL     1     -42.760  61.716 -52.620  1.00  0.00     0.279 HD
HETATM   16  C   UNL     1     -41.534  59.861 -51.329  1.00  0.00     0.046 C 
HETATM   17  C   UNL     1     -43.476  60.835 -50.136  1.00  0.00     0.046 C 
HETATM   18  C   UNL     1     -43.840  58.723 -51.443  1.00  0.00     0.063 C 
ENDBRANCH   1   7
BRANCH   3  19
HETATM   19  C   UNL     1     -40.714  54.195 -52.832  1.00  0.00     0.077 A 
HETATM   20  C   UNL     1     -40.237  53.793 -51.576  1.00  0.00     0.143 A 
HETATM   21  F   UNL     1     -40.260  54.665 -50.556  1.00  0.00    -0.204 F 
HETATM   22  C   UNL     1     -39.755  52.509 -51.358  1.00  0.00     0.047 A 
HETATM   23  C   UNL     1     -39.733  51.605 -52.416  1.00  0.00     0.040 A 
HETATM   24  C   UNL     1     -40.187  51.986 -53.684  1.00  0.00     0.070 A 
HETATM   25  C   UNL     1     -40.684  53.279 -53.887  1.00  0.00     0.069 A 
BRANCH  24  26
HETATM   26  O   UNL     1     -40.096  51.003 -54.632  1.00  0.00    -0.356 OA
HETATM   27  C   UNL     1     -39.487  49.779 -54.242  1.00  0.00     0.210 C 
ENDBRANCH  24  26
ENDBRANCH   3  19
TORSDOF 3
ENDMDL
MODEL 6
REMARK VINA RESULT:      -7.0     15.355     18.191
REMARK  3 active torsions:
REMARK  status: ('A' for Active; 'I' for Inactive)
REMARK    1  A    between atoms: C_11  and  N_12 
REMARK       I    between atoms: N_12  and  C_13 
REMARK       I    between atoms: C_13  and  N_14 
REMARK    2  A    between atoms: N_14  and  C_15 
REMARK    3  A    between atoms: C_20  and  O_21 
ROOT
HETATM    1  N   UNL     1     -34.558  41.200 -53.087  1.00  0.00    -0.338 N 
HETATM    2  C   UNL     1     -35.519  41.509 -54.037  1.00  0.00     0.321 C 
HETATM    3  N   UNL     1     -35.308  40.812 -55.203  1.00  0.00    -0.306 N 
HETATM    4  O   UNL     1     -36.403  42.326 -53.831  1.00  0.00    -0.247 OA
HETATM    5  H   UNL     1     -34.170  40.280 -53.252  1.00  0.00     0.164 HD
HETATM    6  H   UNL     1     -34.543  40.150 -55.238  1.00  0.00     0.171 HD
ENDROOT
BRANCH   1   7
HETATM    7  C   UNL     1     -34.711  41.535 -51.671  1.00  0.00     0.091 C 
HETATM    8  C   UNL     1     -33.493  41.383 -50.748  1.00  0.00     0.063 C 
HETATM    9  C   UNL     1     -33.082  39.945 -50.429  1.00  0.00     0.121 C 
HETATM   10  N   UNL     1     -34.301  39.177 -49.957  1.00  0.00    -0.059 N 
HETATM   11  C   UNL     1     -32.399  39.200 -51.578  1.00  0.00     0.046 C 
HETATM   12  C   UNL     1     -32.101  39.957 -49.237  1.00  0.00     0.046 C 
HETATM   13  C   UNL     1     -35.616  39.302 -50.696  1.00  0.00     0.121 C 
HETATM   14  H   UNL     1     -34.470  39.461 -48.981  1.00  0.00     0.279 HD
HETATM   15  H   UNL     1     -34.050  38.179 -49.887  1.00  0.00     0.279 HD
HETATM   16  C   UNL     1     -35.634  38.360 -51.904  1.00  0.00     0.046 C 
HETATM   17  C   UNL     1     -36.701  38.813 -49.713  1.00  0.00     0.046 C 
HETATM   18  C   UNL     1     -35.894  40.775 -51.055  1.00  0.00     0.063 C 
ENDBRANCH   1   7
BRANCH   3  19
HETATM   19  C   UNL     1     -36.095  40.840 -56.380  1.00  0.00     0.077 A 
HETATM   20  C   UNL     1     -35.902  41.932 -57.237  1.00  0.00     0.143 A 
HETATM   21  F   UNL     1     -35.009  42.878 -56.904  1.00  0.00    -0.204 F 
HETATM   22  C   UNL     1     -36.602  42.054 -58.430  1.00  0.00     0.047 A 
HETATM   23  C   UNL     1     -37.527  41.072 -58.775  1.00  0.00     0.040 A 
HETATM   24  C   UNL     1     -37.751  39.980 -57.930  1.00  0.00     0.070 A 
HETATM   25  C   UNL     1     -37.029  39.863 -56.736  1.00  0.00     0.069 A 
BRANCH  24  26
HETATM   26  O   UNL     1     -38.695  39.100 -58.386  1.00  0.00    -0.356 OA
HETATM   27  C   UNL     1     -38.699  38.816 -59.780  1.00  0.00     0.210 C 
ENDBRANCH  24  26
ENDBRANCH   3  19
TORSDOF 3
ENDMDL
MODEL 7
REMARK VINA RESULT:      -7.0      5.249      6.661
REMARK  3 active torsions:
REMARK  status: ('A' for Active; 'I' for Inactive)
REMARK    1  A    between atoms: C_11  and  N_12 
REMARK       I    between atoms: N_12  and  C_13 
REMARK       I    between atoms: C_13  and  N_14 
REMARK    2  A    between atoms: N_14  and  C_15 
REMARK    3  A    between atoms: C_20  and  O_21 
ROOT
HETATM    1  N   UNL     1     -42.507  58.685 -50.679  1.00  0.00    -0.338 N 
HETATM    2  C   UNL     1     -41.530  57.708 -50.801  1.00  0.00     0.321 C 
HETATM    3  N   UNL     1     -42.080  56.449 -50.769  1.00  0.00    -0.306 N 
HETATM    4  O   UNL     1     -40.342  57.978 -50.888  1.00  0.00    -0.247 OA
HETATM    5  H   UNL     1     -43.403  58.341 -51.000  1.00  0.00     0.164 HD
HETATM    6  H   UNL     1     -43.086  56.362 -50.707  1.00  0.00     0.171 HD
ENDROOT
BRANCH   1   7
HETATM    7  C   UNL     1     -42.260  60.091 -50.999  1.00  0.00     0.091 C 
HETATM    8  C   UNL     1     -43.063  61.163 -50.247  1.00  0.00     0.063 C 
HETATM    9  C   UNL     1     -44.540  61.269 -50.627  1.00  0.00     0.121 C 
HETATM   10  N   UNL     1     -44.655  61.372 -52.136  1.00  0.00    -0.059 N 
HETATM   11  C   UNL     1     -45.424  60.134 -50.105  1.00  0.00     0.046 C 
HETATM   12  C   UNL     1     -45.109  62.591 -50.068  1.00  0.00     0.046 C 
HETATM   13  C   UNL     1     -43.844  60.456 -53.027  1.00  0.00     0.121 C 
HETATM   14  H   UNL     1     -44.409  62.340 -52.386  1.00  0.00     0.279 HD
HETATM   15  H   UNL     1     -45.651  61.293 -52.392  1.00  0.00     0.279 HD
HETATM   16  C   UNL     1     -44.553  59.107 -53.181  1.00  0.00     0.046 C 
HETATM   17  C   UNL     1     -43.824  61.129 -54.416  1.00  0.00     0.046 C 
HETATM   18  C   UNL     1     -42.397  60.341 -52.507  1.00  0.00     0.063 C 
ENDBRANCH   1   7
BRANCH   3  19
HETATM   19  C   UNL     1     -41.407  55.210 -50.896  1.00  0.00     0.077 A 
HETATM   20  C   UNL     1     -40.928  54.632 -49.712  1.00  0.00     0.143 A 
HETATM   21  F   UNL     1     -41.122  55.270 -48.546  1.00  0.00    -0.204 F 
HETATM   22  C   UNL     1     -40.272  53.408 -49.712  1.00  0.00     0.047 A 
HETATM   23  C   UNL     1     -40.074  52.746 -50.921  1.00  0.00     0.040 A 
HETATM   24  C   UNL     1     -40.527  53.308 -52.120  1.00  0.00     0.070 A 
HETATM   25  C   UNL     1     -41.199  54.537 -52.104  1.00  0.00     0.069 A 
BRANCH  24  26
HETATM   26  O   UNL     1     -40.253  52.558 -53.231  1.00  0.00    -0.356 OA
HETATM   27  C   UNL     1     -39.457  51.393 -53.048  1.00  0.00     0.210 C 
ENDBRANCH  24  26
ENDBRANCH   3  19
TORSDOF 3
ENDMDL
MODEL 8
REMARK VINA RESULT:      -7.0      3.414      7.612
REMARK  3 active torsions:
REMARK  status: ('A' for Active; 'I' for Inactive)
REMARK    1  A    between atoms: C_11  and  N_12 
REMARK       I    between atoms: N_12  and  C_13 
REMARK       I    between atoms: C_13  and  N_14 
REMARK    2  A    between atoms: N_14  and  C_15 
REMARK    3  A    between atoms: C_20  and  O_21 
ROOT
HETATM    1  N   UNL     1     -42.552  58.095 -54.126  1.00  0.00    -0.338 N 
HETATM    2  C   UNL     1     -43.179  57.914 -55.350  1.00  0.00     0.321 C 
HETATM    3  N   UNL     1     -42.301  57.439 -56.294  1.00  0.00    -0.306 N 
HETATM    4  O   UNL     1     -44.356  58.187 -55.527  1.00  0.00    -0.247 OA
HETATM    5  H   UNL     1     -41.746  57.488 -54.041  1.00  0.00     0.164 HD
HETATM    6  H   UNL     1     -41.350  57.239 -56.011  1.00  0.00     0.171 HD
ENDROOT
BRANCH   1   7
HETATM    7  C   UNL     1     -43.293  58.278 -52.879  1.00  0.00     0.091 C 
HETATM    8  C   UNL     1     -42.739  59.261 -51.837  1.00  0.00     0.063 C 
HETATM    9  C   UNL     1     -41.482  58.801 -51.097  1.00  0.00     0.121 C 
HETATM   10  N   UNL     1     -41.715  57.405 -50.551  1.00  0.00    -0.059 N 
HETATM   11  C   UNL     1     -40.197  58.837 -51.926  1.00  0.00     0.046 C 
HETATM   12  C   UNL     1     -41.264  59.706 -49.866  1.00  0.00     0.046 C 
HETATM   13  C   UNL     1     -42.355  56.343 -51.419  1.00  0.00     0.121 C 
HETATM   14  H   UNL     1     -42.303  57.509 -49.712  1.00  0.00     0.279 HD
HETATM   15  H   UNL     1     -40.820  57.045 -50.187  1.00  0.00     0.279 HD
HETATM   16  C   UNL     1     -41.300  55.690 -52.318  1.00  0.00     0.046 C 
HETATM   17  C   UNL     1     -42.869  55.258 -50.449  1.00  0.00     0.046 C 
HETATM   18  C   UNL     1     -43.552  56.928 -52.194  1.00  0.00     0.063 C 
ENDBRANCH   1   7
BRANCH   3  19
HETATM   19  C   UNL     1     -42.579  57.104 -57.641  1.00  0.00     0.077 A 
HETATM   20  C   UNL     1     -42.119  57.999 -58.617  1.00  0.00     0.143 A 
HETATM   21  F   UNL     1     -41.460  59.104 -58.235  1.00  0.00    -0.204 F 
HETATM   22  C   UNL     1     -42.315  57.763 -59.972  1.00  0.00     0.047 A 
HETATM   23  C   UNL     1     -42.997  56.616 -60.367  1.00  0.00     0.040 A 
HETATM   24  C   UNL     1     -43.482  55.714 -59.413  1.00  0.00     0.070 A 
HETATM   25  C   UNL     1     -43.266  55.957 -58.051  1.00  0.00     0.069 A 
BRANCH  24  26
HETATM   26  O   UNL     1     -44.143  54.639 -59.941  1.00  0.00    -0.356 OA
HETATM   27  C   UNL     1     -45.032  54.890 -61.022  1.00  0.00     0.210 C 
ENDBRANCH  24  26
ENDBRANCH   3  19
TORSDOF 3
ENDMDL
MODEL 9
REMARK VINA RESULT:      -6.9      3.474      4.778
REMARK  3 active torsions:
REMARK  status: ('A' for Active; 'I' for Inactive)
REMARK    1  A    between atoms: C_11  and  N_12 
REMARK       I    between atoms: N_12  and  C_13 
REMARK       I    between atoms: C_13  and  N_14 
REMARK    2  A    between atoms: N_14  and  C_15 
REMARK    3  A    between atoms: C_20  and  O_21 
ROOT
HETATM    1  N   UNL     1     -42.519  57.608 -52.911  1.00  0.00    -0.338 N 
HETATM    2  C   UNL     1     -41.553  56.640 -53.143  1.00  0.00     0.321 C 
HETATM    3  N   UNL     1     -41.881  55.453 -52.532  1.00  0.00    -0.306 N 
HETATM    4  O   UNL     1     -40.540  56.868 -53.786  1.00  0.00    -0.247 OA
HETATM    5  H   UNL     1     -43.418  57.182 -52.722  1.00  0.00     0.164 HD
HETATM    6  H   UNL     1     -42.762  55.392 -52.038  1.00  0.00     0.171 HD
ENDROOT
BRANCH   1   7
HETATM    7  C   UNL     1     -42.599  58.844 -53.688  1.00  0.00     0.091 C 
HETATM    8  C   UNL     1     -43.282  60.064 -53.052  1.00  0.00     0.063 C 
HETATM    9  C   UNL     1     -44.803  59.974 -52.919  1.00  0.00     0.121 C 
HETATM   10  N   UNL     1     -45.393  59.578 -54.259  1.00  0.00    -0.059 N 
HETATM   11  C   UNL     1     -45.300  59.029 -51.822  1.00  0.00     0.046 C 
HETATM   12  C   UNL     1     -45.364  61.378 -52.607  1.00  0.00     0.046 C 
HETATM   13  C   UNL     1     -44.768  58.461 -55.068  1.00  0.00     0.121 C 
HETATM   14  H   UNL     1     -45.385  60.423 -54.847  1.00  0.00     0.279 HD
HETATM   15  H   UNL     1     -46.395  59.374 -54.126  1.00  0.00     0.279 HD
HETATM   16  C   UNL     1     -45.277  57.103 -54.574  1.00  0.00     0.046 C 
HETATM   17  C   UNL     1     -45.280  58.649 -56.512  1.00  0.00     0.046 C 
HETATM   18  C   UNL     1     -43.232  58.587 -55.063  1.00  0.00     0.063 C 
ENDBRANCH   1   7
BRANCH   3  19
HETATM   19  C   UNL     1     -41.160  54.235 -52.569  1.00  0.00     0.077 A 
HETATM   20  C   UNL     1     -40.459  53.886 -51.406  1.00  0.00     0.143 A 
HETATM   21  F   UNL     1     -40.500  54.707 -50.344  1.00  0.00    -0.204 F 
HETATM   22  C   UNL     1     -39.736  52.704 -51.319  1.00  0.00     0.047 A 
HETATM   23  C   UNL     1     -39.695  51.853 -52.420  1.00  0.00     0.040 A 
HETATM   24  C   UNL     1     -40.372  52.185 -53.599  1.00  0.00     0.070 A 
HETATM   25  C   UNL     1     -41.109  53.373 -53.668  1.00  0.00     0.069 A 
BRANCH  24  26
HETATM   26  O   UNL     1     -40.235  51.265 -54.603  1.00  0.00    -0.356 OA
HETATM   27  C   UNL     1     -39.675  50.005 -54.258  1.00  0.00     0.210 C 
ENDBRANCH  24  26
ENDBRANCH   3  19
TORSDOF 3
ENDMDL
MODEL 10
REMARK VINA RESULT:      -6.9      3.106      8.021
REMARK  3 active torsions:
REMARK  status: ('A' for Active; 'I' for Inactive)
REMARK    1  A    between atoms: C_11  and  N_12 
REMARK       I    between atoms: N_12  and  C_13 
REMARK       I    between atoms: C_13  and  N_14 
REMARK    2  A    between atoms: N_14  and  C_15 
REMARK    3  A    between atoms: C_20  and  O_21 
ROOT
HETATM    1  N   UNL     1     -42.241  56.276 -56.098  1.00  0.00    -0.338 N 
HETATM    2  C   UNL     1     -42.738  57.205 -56.999  1.00  0.00     0.321 C 
HETATM    3  N   UNL     1     -41.729  57.760 -57.749  1.00  0.00    -0.306 N 
HETATM    4  O   UNL     1     -43.925  57.486 -57.060  1.00  0.00    -0.247 OA
HETATM    5  H   UNL     1     -41.364  55.889 -56.425  1.00  0.00     0.164 HD
HETATM    6  H   UNL     1     -40.784  57.426 -57.609  1.00  0.00     0.171 HD
ENDROOT
BRANCH   1   7
HETATM    7  C   UNL     1     -43.096  55.310 -55.408  1.00  0.00     0.091 C 
HETATM    8  C   UNL     1     -43.517  55.609 -53.962  1.00  0.00     0.063 C 
HETATM    9  C   UNL     1     -42.412  55.477 -52.912  1.00  0.00     0.121 C 
HETATM   10  N   UNL     1     -41.730  54.133 -53.081  1.00  0.00    -0.059 N 
HETATM   11  C   UNL     1     -41.375  56.602 -52.923  1.00  0.00     0.046 C 
HETATM   12  C   UNL     1     -43.054  55.453 -51.508  1.00  0.00     0.046 C 
HETATM   13  C   UNL     1     -41.346  53.640 -54.459  1.00  0.00     0.121 C 
HETATM   14  H   UNL     1     -42.357  53.428 -52.667  1.00  0.00     0.279 HD
HETATM   15  H   UNL     1     -40.897  54.113 -52.473  1.00  0.00     0.279 HD
HETATM   16  C   UNL     1     -40.002  54.244 -54.880  1.00  0.00     0.046 C 
HETATM   17  C   UNL     1     -41.143  52.116 -54.320  1.00  0.00     0.046 C 
HETATM   18  C   UNL     1     -42.485  53.902 -55.463  1.00  0.00     0.063 C 
ENDBRANCH   1   7
BRANCH   3  19
HETATM   19  C   UNL     1     -41.850  58.716 -58.786  1.00  0.00     0.077 A 
HETATM   20  C   UNL     1     -41.895  58.218 -60.096  1.00  0.00     0.143 A 
HETATM   21  F   UNL     1     -41.817  56.893 -60.297  1.00  0.00    -0.204 F 
HETATM   22  C   UNL     1     -42.035  59.061 -61.191  1.00  0.00     0.047 A 
HETATM   23  C   UNL     1     -42.118  60.434 -60.981  1.00  0.00     0.040 A 
HETATM   24  C   UNL     1     -42.058  60.960 -59.686  1.00  0.00     0.070 A 
HETATM   25  C   UNL     1     -41.931  60.098 -58.590  1.00  0.00     0.069 A 
BRANCH  24  26
HETATM   26  O   UNL     1     -42.138  62.325 -59.628  1.00  0.00    -0.356 OA
HETATM   27  C   UNL     1     -43.116  62.953 -60.447  1.00  0.00     0.210 C 
ENDBRANCH  24  26
ENDBRANCH   3  19
TORSDOF 3
ENDMDL
