MODEL 1
REMARK VINA RESULT:      -7.9      0.000      0.000
REMARK  9 active torsions:
REMARK  status: ('A' for Active; 'I' for Inactive)
REMARK       I    between atoms: C_2  and  N_3 
REMARK    1  A    between atoms: N_3  and  C_4 
REMARK    2  A    between atoms: C_7  and  C_8 
REMARK    3  A    between atoms: C_8  and  N_9 
REMARK    4  A    between atoms: C_11  and  C_12 
REMARK       I    between atoms: C_12  and  N_13 
REMARK    5  A    between atoms: N_13  and  C_14 
REMARK    6  A    between atoms: C_16  and  S_17 
REMARK    7  A    between atoms: C_24  and  N_25 
REMARK    8  A    between atoms: C_28  and  C_29 
REMARK    9  A    between atoms: C_29  and  O_30 
ROOT
HETATM    1  N   UNL     1     -42.140  57.258 -57.081  1.00  0.00    -0.052 N 
HETATM    2  H   UNL     1     -41.168  56.991 -56.862  1.00  0.00     0.281 HD
HETATM    3  C   UNL     1     -42.485  58.501 -56.237  1.00  0.00     0.282 C 
HETATM    4  C   UNL     1     -43.694  59.056 -56.972  1.00  0.00     0.072 C 
HETATM    5  C   UNL     1     -43.350  58.841 -58.462  1.00  0.00     0.134 C 
HETATM    6  C   UNL     1     -42.276  57.740 -58.502  1.00  0.00     0.263 C 
ENDROOT
BRANCH   1   7
HETATM    7  C   UNL     1     -42.985  56.037 -56.743  1.00  0.00     0.274 C 
BRANCH   7   8
HETATM    8  C   UNL     1     -42.331  55.067 -55.802  1.00  0.00    -0.032 A 
HETATM    9  C   UNL     1     -40.949  54.846 -55.856  1.00  0.00     0.011 A 
HETATM   10  C   UNL     1     -40.319  54.048 -54.896  1.00  0.00     0.030 A 
HETATM   11  C   UNL     1     -41.051  53.464 -53.861  1.00  0.00     0.034 A 
HETATM   12  C   UNL     1     -42.438  53.647 -53.834  1.00  0.00     0.030 A 
HETATM   13  C   UNL     1     -43.075  54.440 -54.794  1.00  0.00     0.011 A 
BRANCH  11  14
HETATM   14  N   UNL     1     -40.473  52.736 -52.802  1.00  0.00    -0.328 N 
HETATM   15  C   UNL     1     -39.895  51.480 -52.868  1.00  0.00     0.218 C 
HETATM   16  C   UNL     1     -39.230  51.079 -51.574  1.00  0.00     0.117 C 
HETATM   17  O   UNL     1     -39.855  50.745 -53.849  1.00  0.00    -0.274 OA
HETATM   18  H   UNL     1     -40.421  53.209 -51.908  1.00  0.00     0.169 HD
ENDBRANCH  11  14
ENDBRANCH   7   8
ENDBRANCH   1   7
BRANCH   3  19
HETATM   19  C   UNL     1     -42.528  58.152 -54.741  1.00  0.00     0.253 C 
HETATM   20  N   UNL     1     -41.336  57.867 -54.120  1.00  0.00    -0.325 N 
HETATM   21  H   UNL     1     -40.533  57.588 -54.675  1.00  0.00     0.169 HD
HETATM   22  O   UNL     1     -43.630  58.235 -54.194  1.00  0.00    -0.271 OA
BRANCH  20  23
HETATM   23  C   UNL     1     -41.125  57.820 -52.717  1.00  0.00     0.036 A 
HETATM   24  C   UNL     1     -41.300  56.662 -51.945  1.00  0.00     0.048 A 
HETATM   25  C   UNL     1     -41.111  56.677 -50.557  1.00  0.00     0.002 A 
HETATM   26  C   UNL     1     -40.760  57.881 -49.940  1.00  0.00     0.018 A 
HETATM   27  C   UNL     1     -40.591  59.042 -50.694  1.00  0.00     0.004 A 
HETATM   28  C   UNL     1     -40.776  59.013 -52.077  1.00  0.00     0.029 A 
BRANCH  25  29
HETATM   29  S   UNL     1     -41.355  55.255 -49.498  1.00  0.00    -0.134 SA
HETATM   30  C   UNL     1     -39.766  54.386 -49.598  1.00  0.00     0.095 C 
ENDBRANCH  25  29
ENDBRANCH  20  23
ENDBRANCH   3  19
BRANCH   5  31
HETATM   31  N   UNL     1     -44.471  58.469 -59.296  1.00  0.00    -0.276 N 
HETATM   32  N   UNL     1     -45.655  59.073 -59.120  1.00  0.00     0.005 NA
HETATM   33  N   UNL     1     -46.567  58.356 -59.759  1.00  0.00    -0.152 NA
HETATM   34  C   UNL     1     -45.939  57.291 -60.362  1.00  0.00     0.166 A 
HETATM   35  C   UNL     1     -44.584  57.375 -60.095  1.00  0.00     0.147 A 
BRANCH  34  36
HETATM   36  C   UNL     1     -46.620  56.232 -61.092  1.00  0.00     0.314 C 
HETATM   37  O   UNL     1     -46.019  55.318 -61.643  1.00  0.00    -0.257 OA
BRANCH  36  38
HETATM   38  O   UNL     1     -47.977  56.349 -61.039  1.00  0.00    -0.321 OA
HETATM   39  C   UNL     1     -48.582  56.717 -62.280  1.00  0.00     0.213 C 
ENDBRANCH  36  38
ENDBRANCH  34  36
ENDBRANCH   5  31
TORSDOF 9
ENDMDL
MODEL 2
REMARK VINA RESULT:      -7.6      3.497      8.452
REMARK  9 active torsions:
REMARK  status: ('A' for Active; 'I' for Inactive)
REMARK       I    between atoms: C_2  and  N_3 
REMARK    1  A    between atoms: N_3  and  C_4 
REMARK    2  A    between atoms: C_7  and  C_8 
REMARK    3  A    between atoms: C_8  and  N_9 
REMARK    4  A    between atoms: C_11  and  C_12 
REMARK       I    between atoms: C_12  and  N_13 
REMARK    5  A    between atoms: N_13  and  C_14 
REMARK    6  A    between atoms: C_16  and  S_17 
REMARK    7  A    between atoms: C_24  and  N_25 
REMARK    8  A    between atoms: C_28  and  C_29 
REMARK    9  A    between atoms: C_29  and  O_30 
ROOT
HETATM    1  N   UNL     1     -44.724  57.100 -55.645  1.00  0.00    -0.052 N 
HETATM    2  H   UNL     1     -45.377  56.317 -55.800  1.00  0.00     0.281 HD
HETATM    3  C   UNL     1     -45.398  58.383 -56.167  1.00  0.00     0.282 C 
HETATM    4  C   UNL     1     -44.592  59.469 -55.474  1.00  0.00     0.072 C 
HETATM    5  C   UNL     1     -44.342  58.897 -54.062  1.00  0.00     0.134 C 
HETATM    6  C   UNL     1     -44.523  57.373 -54.177  1.00  0.00     0.263 C 
ENDROOT
BRANCH   1   7
HETATM    7  C   UNL     1     -43.453  56.727 -56.398  1.00  0.00     0.274 C 
BRANCH   7   8
HETATM    8  C   UNL     1     -42.561  55.761 -55.675  1.00  0.00    -0.032 A 
HETATM    9  C   UNL     1     -41.354  56.194 -55.111  1.00  0.00     0.011 A 
HETATM   10  C   UNL     1     -40.588  55.328 -54.323  1.00  0.00     0.030 A 
HETATM   11  C   UNL     1     -41.013  54.023 -54.075  1.00  0.00     0.034 A 
HETATM   12  C   UNL     1     -42.196  53.576 -54.677  1.00  0.00     0.030 A 
HETATM   13  C   UNL     1     -42.964  54.435 -55.470  1.00  0.00     0.011 A 
BRANCH  11  14
HETATM   14  N   UNL     1     -40.350  53.129 -53.210  1.00  0.00    -0.328 N 
HETATM   15  C   UNL     1     -40.585  52.943 -51.859  1.00  0.00     0.218 C 
HETATM   16  C   UNL     1     -39.802  51.787 -51.288  1.00  0.00     0.117 C 
HETATM   17  O   UNL     1     -41.361  53.584 -51.157  1.00  0.00    -0.274 OA
HETATM   18  H   UNL     1     -39.670  52.513 -53.638  1.00  0.00     0.169 HD
ENDBRANCH  11  14
ENDBRANCH   7   8
ENDBRANCH   1   7
BRANCH   3  19
HETATM   19  C   UNL     1     -45.557  58.334 -57.695  1.00  0.00     0.253 C 
HETATM   20  N   UNL     1     -46.591  57.585 -58.204  1.00  0.00    -0.325 N 
HETATM   21  H   UNL     1     -47.014  56.859 -57.635  1.00  0.00     0.169 HD
HETATM   22  O   UNL     1     -44.786  59.043 -58.346  1.00  0.00    -0.271 OA
BRANCH  20  23
HETATM   23  C   UNL     1     -47.084  57.651 -59.533  1.00  0.00     0.036 A 
HETATM   24  C   UNL     1     -47.556  58.831 -60.126  1.00  0.00     0.048 A 
HETATM   25  C   UNL     1     -48.064  58.837 -61.433  1.00  0.00     0.002 A 
HETATM   26  C   UNL     1     -48.112  57.632 -62.139  1.00  0.00     0.018 A 
HETATM   27  C   UNL     1     -47.654  56.449 -61.559  1.00  0.00     0.004 A 
HETATM   28  C   UNL     1     -47.145  56.458 -60.259  1.00  0.00     0.029 A 
BRANCH  25  29
HETATM   29  S   UNL     1     -48.723  60.289 -62.244  1.00  0.00    -0.134 SA
HETATM   30  C   UNL     1     -48.299  61.632 -61.100  1.00  0.00     0.095 C 
ENDBRANCH  25  29
ENDBRANCH  20  23
ENDBRANCH   3  19
BRANCH   5  31
HETATM   31  N   UNL     1     -43.041  59.199 -53.507  1.00  0.00    -0.276 N 
HETATM   32  N   UNL     1     -42.058  59.615 -54.317  1.00  0.00     0.005 NA
HETATM   33  N   UNL     1     -40.920  59.517 -53.645  1.00  0.00    -0.152 NA
HETATM   34  C   UNL     1     -41.199  59.046 -52.383  1.00  0.00     0.166 A 
HETATM   35  C   UNL     1     -42.567  58.869 -52.276  1.00  0.00     0.147 A 
BRANCH  34  36
HETATM   36  C   UNL     1     -40.198  58.729 -51.376  1.00  0.00     0.314 C 
HETATM   37  O   UNL     1     -40.345  57.829 -50.558  1.00  0.00    -0.257 OA
BRANCH  36  38
HETATM   38  O   UNL     1     -39.079  59.501 -51.489  1.00  0.00    -0.321 OA
HETATM   39  C   UNL     1     -38.471  59.837 -50.241  1.00  0.00     0.213 C 
ENDBRANCH  36  38
ENDBRANCH  34  36
ENDBRANCH   5  31
TORSDOF 9
ENDMDL
MODEL 3
REMARK VINA RESULT:      -7.4      4.455      8.475
REMARK  9 active torsions:
REMARK  status: ('A' for Active; 'I' for Inactive)
REMARK       I    between atoms: C_2  and  N_3 
REMARK    1  A    between atoms: N_3  and  C_4 
REMARK    2  A    between atoms: C_7  and  C_8 
REMARK    3  A    between atoms: C_8  and  N_9 
REMARK    4  A    between atoms: C_11  and  C_12 
REMARK       I    between atoms: C_12  and  N_13 
REMARK    5  A    between atoms: N_13  and  C_14 
REMARK    6  A    between atoms: C_16  and  S_17 
REMARK    7  A    between atoms: C_24  and  N_25 
REMARK    8  A    between atoms: C_28  and  C_29 
REMARK    9  A    between atoms: C_29  and  O_30 
ROOT
HETATM    1  N   UNL     1     -42.788  60.135 -52.228  1.00  0.00    -0.052 N 
HETATM    2  H   UNL     1     -42.338  60.225 -53.152  1.00  0.00     0.281 HD
HETATM    3  C   UNL     1     -41.672  59.959 -51.180  1.00  0.00     0.282 C 
HETATM    4  C   UNL     1     -42.392  60.313 -49.889  1.00  0.00     0.072 C 
HETATM    5  C   UNL     1     -43.303  61.494 -50.288  1.00  0.00     0.134 C 
HETATM    6  C   UNL     1     -43.469  61.413 -51.816  1.00  0.00     0.263 C 
ENDROOT
BRANCH   1   7
HETATM    7  C   UNL     1     -43.715  58.931 -52.341  1.00  0.00     0.274 C 
BRANCH   7   8
HETATM    8  C   UNL     1     -43.484  58.078 -53.555  1.00  0.00    -0.032 A 
HETATM    9  C   UNL     1     -44.154  56.857 -53.702  1.00  0.00     0.011 A 
HETATM   10  C   UNL     1     -44.044  56.127 -54.890  1.00  0.00     0.030 A 
HETATM   11  C   UNL     1     -43.276  56.603 -55.953  1.00  0.00     0.034 A 
HETATM   12  C   UNL     1     -42.571  57.800 -55.788  1.00  0.00     0.030 A 
HETATM   13  C   UNL     1     -42.672  58.533 -54.601  1.00  0.00     0.011 A 
BRANCH  11  14
HETATM   14  N   UNL     1     -43.202  55.976 -57.214  1.00  0.00    -0.328 N 
HETATM   15  C   UNL     1     -43.825  56.374 -58.384  1.00  0.00     0.218 C 
HETATM   16  C   UNL     1     -43.389  55.563 -59.578  1.00  0.00     0.117 C 
HETATM   17  O   UNL     1     -44.619  57.300 -58.510  1.00  0.00    -0.274 OA
HETATM   18  H   UNL     1     -42.575  55.184 -57.284  1.00  0.00     0.169 HD
ENDBRANCH  11  14
ENDBRANCH   7   8
ENDBRANCH   1   7
BRANCH   3  19
HETATM   19  C   UNL     1     -40.949  58.616 -51.369  1.00  0.00     0.253 C 
HETATM   20  N   UNL     1     -41.383  57.550 -50.618  1.00  0.00    -0.325 N 
HETATM   21  H   UNL     1     -41.917  57.714 -49.772  1.00  0.00     0.169 HD
HETATM   22  O   UNL     1     -40.084  58.582 -52.246  1.00  0.00    -0.271 OA
BRANCH  20  23
HETATM   23  C   UNL     1     -41.063  56.187 -50.856  1.00  0.00     0.036 A 
HETATM   24  C   UNL     1     -41.280  55.543 -52.083  1.00  0.00     0.048 A 
HETATM   25  C   UNL     1     -40.977  54.185 -52.256  1.00  0.00     0.002 A 
HETATM   26  C   UNL     1     -40.466  53.468 -51.171  1.00  0.00     0.018 A 
HETATM   27  C   UNL     1     -40.253  54.094 -49.943  1.00  0.00     0.004 A 
HETATM   28  C   UNL     1     -40.553  55.447 -49.785  1.00  0.00     0.029 A 
BRANCH  25  29
HETATM   29  S   UNL     1     -41.263  53.282 -53.774  1.00  0.00    -0.134 SA
HETATM   30  C   UNL     1     -40.384  54.268 -55.016  1.00  0.00     0.095 C 
ENDBRANCH  25  29
ENDBRANCH  20  23
ENDBRANCH   3  19
BRANCH   5  31
HETATM   31  N   UNL     1     -44.600  61.503 -49.649  1.00  0.00    -0.276 N 
HETATM   32  N   UNL     1     -45.663  61.968 -50.321  1.00  0.00     0.005 NA
HETATM   33  N   UNL     1     -46.634  62.167 -49.441  1.00  0.00    -0.152 NA
HETATM   34  C   UNL     1     -46.175  61.803 -48.197  1.00  0.00     0.166 A 
HETATM   35  C   UNL     1     -44.876  61.344 -48.328  1.00  0.00     0.147 A 
BRANCH  34  36
HETATM   36  C   UNL     1     -46.926  61.953 -46.959  1.00  0.00     0.314 C 
HETATM   37  O   UNL     1     -47.358  60.995 -46.329  1.00  0.00    -0.257 OA
BRANCH  36  38
HETATM   38  O   UNL     1     -47.036  63.254 -46.568  1.00  0.00    -0.321 OA
HETATM   39  C   UNL     1     -46.286  63.579 -45.396  1.00  0.00     0.213 C 
ENDBRANCH  36  38
ENDBRANCH  34  36
ENDBRANCH   5  31
TORSDOF 9
ENDMDL
MODEL 4
REMARK VINA RESULT:      -7.4      3.412      4.637
REMARK  9 active torsions:
REMARK  status: ('A' for Active; 'I' for Inactive)
REMARK       I    between atoms: C_2  and  N_3 
REMARK    1  A    between atoms: N_3  and  C_4 
REMARK    2  A    between atoms: C_7  and  C_8 
REMARK    3  A    between atoms: C_8  and  N_9 
REMARK    4  A    between atoms: C_11  and  C_12 
REMARK       I    between atoms: C_12  and  N_13 
REMARK    5  A    between atoms: N_13  and  C_14 
REMARK    6  A    between atoms: C_16  and  S_17 
REMARK    7  A    between atoms: C_24  and  N_25 
REMARK    8  A    between atoms: C_28  and  C_29 
REMARK    9  A    between atoms: C_29  and  O_30 
ROOT
HETATM    1  N   UNL     1     -41.940  58.717 -52.956  1.00  0.00    -0.052 N 
HETATM    2  H   UNL     1     -41.272  58.932 -52.200  1.00  0.00     0.281 HD
HETATM    3  C   UNL     1     -42.612  60.039 -53.377  1.00  0.00     0.282 C 
HETATM    4  C   UNL     1     -43.173  59.687 -54.746  1.00  0.00     0.072 C 
HETATM    5  C   UNL     1     -42.076  58.801 -55.375  1.00  0.00     0.134 C 
HETATM    6  C   UNL     1     -41.235  58.259 -54.206  1.00  0.00     0.263 C 
ENDROOT
BRANCH   1   7
HETATM    7  C   UNL     1     -42.910  57.700 -52.368  1.00  0.00     0.274 C 
BRANCH   7   8
HETATM    8  C   UNL     1     -42.294  56.369 -52.042  1.00  0.00    -0.032 A 
HETATM    9  C   UNL     1     -41.252  56.278 -51.110  1.00  0.00     0.011 A 
HETATM   10  C   UNL     1     -40.769  55.029 -50.706  1.00  0.00     0.030 A 
HETATM   11  C   UNL     1     -41.321  53.852 -51.212  1.00  0.00     0.034 A 
HETATM   12  C   UNL     1     -42.331  53.944 -52.177  1.00  0.00     0.030 A 
HETATM   13  C   UNL     1     -42.814  55.190 -52.590  1.00  0.00     0.011 A 
BRANCH  11  14
HETATM   14  N   UNL     1     -40.959  52.561 -50.775  1.00  0.00    -0.328 N 
HETATM   15  C   UNL     1     -40.050  51.702 -51.367  1.00  0.00     0.218 C 
HETATM   16  C   UNL     1     -39.789  50.471 -50.536  1.00  0.00     0.117 C 
HETATM   17  O   UNL     1     -39.456  51.883 -52.425  1.00  0.00    -0.274 OA
HETATM   18  H   UNL     1     -41.363  52.255 -49.899  1.00  0.00     0.169 HD
ENDBRANCH  11  14
ENDBRANCH   7   8
ENDBRANCH   1   7
BRANCH   3  19
HETATM   19  C   UNL     1     -43.499  60.586 -52.248  1.00  0.00     0.253 C 
HETATM   20  N   UNL     1     -42.878  60.984 -51.088  1.00  0.00    -0.325 N 
HETATM   21  H   UNL     1     -41.949  60.640 -50.871  1.00  0.00     0.169 HD
HETATM   22  O   UNL     1     -44.699  60.700 -52.505  1.00  0.00    -0.271 OA
BRANCH  20  23
HETATM   23  C   UNL     1     -43.464  61.779 -50.068  1.00  0.00     0.036 A 
HETATM   24  C   UNL     1     -44.272  61.258 -49.047  1.00  0.00     0.048 A 
HETATM   25  C   UNL     1     -44.854  62.091 -48.082  1.00  0.00     0.002 A 
HETATM   26  C   UNL     1     -44.631  63.468 -48.162  1.00  0.00     0.018 A 
HETATM   27  C   UNL     1     -43.837  64.001 -49.177  1.00  0.00     0.004 A 
HETATM   28  C   UNL     1     -43.258  63.160 -50.129  1.00  0.00     0.029 A 
BRANCH  25  29
HETATM   29  S   UNL     1     -45.929  61.510 -46.776  1.00  0.00    -0.134 SA
HETATM   30  C   UNL     1     -44.769  61.027 -45.467  1.00  0.00     0.095 C 
ENDBRANCH  25  29
ENDBRANCH  20  23
ENDBRANCH   3  19
BRANCH   5  31
HETATM   31  N   UNL     1     -42.569  57.704 -56.179  1.00  0.00    -0.276 N 
HETATM   32  N   UNL     1     -42.495  56.453 -55.705  1.00  0.00     0.005 NA
HETATM   33  N   UNL     1     -42.704  55.628 -56.721  1.00  0.00    -0.152 NA
HETATM   34  C   UNL     1     -42.929  56.380 -57.851  1.00  0.00     0.166 A 
HETATM   35  C   UNL     1     -42.876  57.718 -57.503  1.00  0.00     0.147 A 
BRANCH  34  36
HETATM   36  C   UNL     1     -43.118  55.833 -59.187  1.00  0.00     0.314 C 
HETATM   37  O   UNL     1     -42.351  56.071 -60.113  1.00  0.00    -0.257 OA
BRANCH  36  38
HETATM   38  O   UNL     1     -44.194  54.998 -59.263  1.00  0.00    -0.321 OA
HETATM   39  C   UNL     1     -44.905  55.072 -60.500  1.00  0.00     0.213 C 
ENDBRANCH  36  38
ENDBRANCH  34  36
ENDBRANCH   5  31
TORSDOF 9
ENDMDL
MODEL 5
REMARK VINA RESULT:      -7.3      4.299      8.471
REMARK  9 active torsions:
REMARK  status: ('A' for Active; 'I' for Inactive)
REMARK       I    between atoms: C_2  and  N_3 
REMARK    1  A    between atoms: N_3  and  C_4 
REMARK    2  A    between atoms: C_7  and  C_8 
REMARK    3  A    between atoms: C_8  and  N_9 
REMARK    4  A    between atoms: C_11  and  C_12 
REMARK       I    between atoms: C_12  and  N_13 
REMARK    5  A    between atoms: N_13  and  C_14 
REMARK    6  A    between atoms: C_16  and  S_17 
REMARK    7  A    between atoms: C_24  and  N_25 
REMARK    8  A    between atoms: C_28  and  C_29 
REMARK    9  A    between atoms: C_29  and  O_30 
ROOT
HETATM    1  N   UNL     1     -42.996  60.622 -52.511  1.00  0.00    -0.052 N 
HETATM    2  H   UNL     1     -42.660  60.930 -53.436  1.00  0.00     0.281 HD
HETATM    3  C   UNL     1     -41.766  60.217 -51.676  1.00  0.00     0.282 C 
HETATM    4  C   UNL     1     -42.318  60.253 -50.260  1.00  0.00     0.072 C 
HETATM    5  C   UNL     1     -43.247  61.486 -50.259  1.00  0.00     0.134 C 
HETATM    6  C   UNL     1     -43.598  61.763 -51.732  1.00  0.00     0.263 C 
ENDROOT
BRANCH   1   7
HETATM    7  C   UNL     1     -43.954  59.470 -52.787  1.00  0.00     0.274 C 
BRANCH   7   8
HETATM    8  C   UNL     1     -44.036  59.060 -54.229  1.00  0.00    -0.032 A 
HETATM    9  C   UNL     1     -43.077  59.502 -55.149  1.00  0.00     0.011 A 
HETATM   10  C   UNL     1     -43.074  59.015 -56.460  1.00  0.00     0.030 A 
HETATM   11  C   UNL     1     -44.016  58.074 -56.875  1.00  0.00     0.034 A 
HETATM   12  C   UNL     1     -45.003  57.667 -55.968  1.00  0.00     0.030 A 
HETATM   13  C   UNL     1     -45.014  58.154 -54.657  1.00  0.00     0.011 A 
BRANCH  11  14
HETATM   14  N   UNL     1     -44.012  57.462 -58.145  1.00  0.00    -0.328 N 
HETATM   15  C   UNL     1     -43.488  56.225 -58.475  1.00  0.00     0.218 C 
HETATM   16  C   UNL     1     -43.809  55.818 -59.892  1.00  0.00     0.117 C 
HETATM   17  O   UNL     1     -42.860  55.476 -57.734  1.00  0.00    -0.274 OA
HETATM   18  H   UNL     1     -44.502  57.955 -58.881  1.00  0.00     0.169 HD
ENDBRANCH  11  14
ENDBRANCH   7   8
ENDBRANCH   1   7
BRANCH   3  19
HETATM   19  C   UNL     1     -41.098  58.962 -52.260  1.00  0.00     0.253 C 
HETATM   20  N   UNL     1     -41.609  57.740 -51.891  1.00  0.00    -0.325 N 
HETATM   21  H   UNL     1     -42.168  57.661 -51.049  1.00  0.00     0.169 HD
HETATM   22  O   UNL     1     -40.201  59.155 -53.083  1.00  0.00    -0.271 OA
BRANCH  20  23
HETATM   23  C   UNL     1     -41.341  56.504 -52.536  1.00  0.00     0.036 A 
HETATM   24  C   UNL     1     -40.985  55.333 -51.851  1.00  0.00     0.048 A 
HETATM   25  C   UNL     1     -40.698  54.146 -52.538  1.00  0.00     0.002 A 
HETATM   26  C   UNL     1     -40.756  54.148 -53.935  1.00  0.00     0.018 A 
HETATM   27  C   UNL     1     -41.101  55.307 -54.630  1.00  0.00     0.004 A 
HETATM   28  C   UNL     1     -41.389  56.482 -53.934  1.00  0.00     0.029 A 
BRANCH  25  29
HETATM   29  S   UNL     1     -40.196  52.625 -51.741  1.00  0.00    -0.134 SA
HETATM   30  C   UNL     1     -39.733  51.559 -53.134  1.00  0.00     0.095 C 
ENDBRANCH  25  29
ENDBRANCH  20  23
ENDBRANCH   3  19
BRANCH   5  31
HETATM   31  N   UNL     1     -44.458  61.333 -49.483  1.00  0.00    -0.276 N 
HETATM   32  N   UNL     1     -45.630  61.723 -50.005  1.00  0.00     0.005 NA
HETATM   33  N   UNL     1     -46.508  61.779 -49.014  1.00  0.00    -0.152 NA
HETATM   34  C   UNL     1     -45.876  61.402 -47.851  1.00  0.00     0.166 A 
HETATM   35  C   UNL     1     -44.564  61.082 -48.151  1.00  0.00     0.147 A 
BRANCH  34  36
HETATM   36  C   UNL     1     -46.491  61.414 -46.532  1.00  0.00     0.314 C 
HETATM   37  O   UNL     1     -46.272  62.296 -45.710  1.00  0.00    -0.257 OA
BRANCH  36  38
HETATM   38  O   UNL     1     -47.363  60.382 -46.352  1.00  0.00    -0.321 OA
HETATM   39  C   UNL     1     -46.791  59.238 -45.713  1.00  0.00     0.213 C 
ENDBRANCH  36  38
ENDBRANCH  34  36
ENDBRANCH   5  31
TORSDOF 9
ENDMDL
MODEL 6
REMARK VINA RESULT:      -7.1      4.207      8.390
REMARK  9 active torsions:
REMARK  status: ('A' for Active; 'I' for Inactive)
REMARK       I    between atoms: C_2  and  N_3 
REMARK    1  A    between atoms: N_3  and  C_4 
REMARK    2  A    between atoms: C_7  and  C_8 
REMARK    3  A    between atoms: C_8  and  N_9 
REMARK    4  A    between atoms: C_11  and  C_12 
REMARK       I    between atoms: C_12  and  N_13 
REMARK    5  A    between atoms: N_13  and  C_14 
REMARK    6  A    between atoms: C_16  and  S_17 
REMARK    7  A    between atoms: C_24  and  N_25 
REMARK    8  A    between atoms: C_28  and  C_29 
REMARK    9  A    between atoms: C_29  and  O_30 
ROOT
HETATM    1  N   UNL     1     -44.314  57.571 -52.965  1.00  0.00    -0.052 N 
HETATM    2  H   UNL     1     -44.540  56.605 -53.247  1.00  0.00     0.281 HD
HETATM    3  C   UNL     1     -44.718  58.503 -54.125  1.00  0.00     0.282 C 
HETATM    4  C   UNL     1     -44.790  59.855 -53.433  1.00  0.00     0.072 C 
HETATM    5  C   UNL     1     -45.415  59.532 -52.059  1.00  0.00     0.134 C 
HETATM    6  C   UNL     1     -45.177  58.031 -51.819  1.00  0.00     0.263 C 
ENDROOT
BRANCH   1   7
HETATM    7  C   UNL     1     -42.820  57.573 -52.672  1.00  0.00     0.274 C 
BRANCH   7   8
HETATM    8  C   UNL     1     -42.133  56.263 -52.930  1.00  0.00    -0.032 A 
HETATM    9  C   UNL     1     -42.550  55.100 -52.271  1.00  0.00     0.011 A 
HETATM   10  C   UNL     1     -42.003  53.857 -52.608  1.00  0.00     0.030 A 
HETATM   11  C   UNL     1     -41.040  53.750 -53.612  1.00  0.00     0.034 A 
HETATM   12  C   UNL     1     -40.589  54.918 -54.238  1.00  0.00     0.030 A 
HETATM   13  C   UNL     1     -41.129  56.164 -53.902  1.00  0.00     0.011 A 
BRANCH  11  14
HETATM   14  N   UNL     1     -40.520  52.525 -54.077  1.00  0.00    -0.328 N 
HETATM   15  C   UNL     1     -39.772  51.608 -53.361  1.00  0.00     0.218 C 
HETATM   16  C   UNL     1     -39.527  50.332 -54.128  1.00  0.00     0.117 C 
HETATM   17  O   UNL     1     -39.360  51.739 -52.213  1.00  0.00    -0.274 OA
HETATM   18  H   UNL     1     -40.775  52.260 -55.021  1.00  0.00     0.169 HD
ENDBRANCH  11  14
ENDBRANCH   7   8
ENDBRANCH   1   7
BRANCH   3  19
HETATM   19  C   UNL     1     -43.828  58.262 -55.355  1.00  0.00     0.253 C 
HETATM   20  N   UNL     1     -44.294  57.398 -56.317  1.00  0.00    -0.325 N 
HETATM   21  H   UNL     1     -45.014  56.723 -56.081  1.00  0.00     0.169 HD
HETATM   22  O   UNL     1     -42.794  58.931 -55.419  1.00  0.00    -0.271 OA
BRANCH  20  23
HETATM   23  C   UNL     1     -43.783  57.276 -57.635  1.00  0.00     0.036 A 
HETATM   24  C   UNL     1     -43.714  58.344 -58.542  1.00  0.00     0.048 A 
HETATM   25  C   UNL     1     -43.231  58.163 -59.845  1.00  0.00     0.002 A 
HETATM   26  C   UNL     1     -42.829  56.884 -60.240  1.00  0.00     0.018 A 
HETATM   27  C   UNL     1     -42.900  55.811 -59.352  1.00  0.00     0.004 A 
HETATM   28  C   UNL     1     -43.379  56.005 -58.055  1.00  0.00     0.029 A 
BRANCH  25  29
HETATM   29  S   UNL     1     -43.150  59.462 -61.072  1.00  0.00    -0.134 SA
HETATM   30  C   UNL     1     -41.868  60.568 -60.423  1.00  0.00     0.095 C 
ENDBRANCH  25  29
ENDBRANCH  20  23
ENDBRANCH   3  19
BRANCH   5  31
HETATM   31  N   UNL     1     -44.883  60.300 -50.955  1.00  0.00    -0.276 N 
HETATM   32  N   UNL     1     -43.557  60.343 -50.759  1.00  0.00     0.005 NA
HETATM   33  N   UNL     1     -43.350  60.824 -49.542  1.00  0.00    -0.152 NA
HETATM   34  C   UNL     1     -44.570  61.102 -48.971  1.00  0.00     0.166 A 
HETATM   35  C   UNL     1     -45.561  60.797 -49.887  1.00  0.00     0.147 A 
BRANCH  34  36
HETATM   36  C   UNL     1     -44.759  61.570 -47.606  1.00  0.00     0.314 C 
HETATM   37  O   UNL     1     -44.760  60.814 -46.642  1.00  0.00    -0.257 OA
BRANCH  36  38
HETATM   38  O   UNL     1     -44.872  62.927 -47.529  1.00  0.00    -0.321 OA
HETATM   39  C   UNL     1     -45.466  63.397 -46.318  1.00  0.00     0.213 C 
ENDBRANCH  36  38
ENDBRANCH  34  36
ENDBRANCH   5  31
TORSDOF 9
ENDMDL
MODEL 7
REMARK VINA RESULT:      -7.0      3.603      8.094
REMARK  9 active torsions:
REMARK  status: ('A' for Active; 'I' for Inactive)
REMARK       I    between atoms: C_2  and  N_3 
REMARK    1  A    between atoms: N_3  and  C_4 
REMARK    2  A    between atoms: C_7  and  C_8 
REMARK    3  A    between atoms: C_8  and  N_9 
REMARK    4  A    between atoms: C_11  and  C_12 
REMARK       I    between atoms: C_12  and  N_13 
REMARK    5  A    between atoms: N_13  and  C_14 
REMARK    6  A    between atoms: C_16  and  S_17 
REMARK    7  A    between atoms: C_24  and  N_25 
REMARK    8  A    between atoms: C_28  and  C_29 
REMARK    9  A    between atoms: C_29  and  O_30 
ROOT
HETATM    1  N   UNL     1     -44.567  56.888 -55.837  1.00  0.00    -0.052 N 
HETATM    2  H   UNL     1     -45.241  56.296 -56.346  1.00  0.00     0.281 HD
HETATM    3  C   UNL     1     -44.996  58.356 -56.027  1.00  0.00     0.282 C 
HETATM    4  C   UNL     1     -44.261  59.051 -54.893  1.00  0.00     0.072 C 
HETATM    5  C   UNL     1     -44.369  58.053 -53.720  1.00  0.00     0.134 C 
HETATM    6  C   UNL     1     -44.659  56.679 -54.348  1.00  0.00     0.263 C 
ENDROOT
BRANCH   1   7
HETATM    7  C   UNL     1     -43.205  56.567 -56.438  1.00  0.00     0.274 C 
BRANCH   7   8
HETATM    8  C   UNL     1     -42.389  55.588 -55.643  1.00  0.00    -0.032 A 
HETATM    9  C   UNL     1     -41.202  55.994 -55.020  1.00  0.00     0.011 A 
HETATM   10  C   UNL     1     -40.512  55.122 -54.172  1.00  0.00     0.030 A 
HETATM   11  C   UNL     1     -40.996  53.837 -53.921  1.00  0.00     0.034 A 
HETATM   12  C   UNL     1     -42.157  53.417 -54.580  1.00  0.00     0.030 A 
HETATM   13  C   UNL     1     -42.849  54.282 -55.434  1.00  0.00     0.011 A 
BRANCH  11  14
HETATM   14  N   UNL     1     -40.414  52.943 -53.000  1.00  0.00    -0.328 N 
HETATM   15  C   UNL     1     -40.546  52.956 -51.623  1.00  0.00     0.218 C 
HETATM   16  C   UNL     1     -39.920  51.749 -50.968  1.00  0.00     0.117 C 
HETATM   17  O   UNL     1     -41.130  53.801 -50.953  1.00  0.00    -0.274 OA
HETATM   18  H   UNL     1     -39.893  52.169 -53.396  1.00  0.00     0.169 HD
ENDBRANCH  11  14
ENDBRANCH   7   8
ENDBRANCH   1   7
BRANCH   3  19
HETATM   19  C   UNL     1     -44.831  58.789 -57.493  1.00  0.00     0.253 C 
HETATM   20  N   UNL     1     -43.860  59.720 -57.775  1.00  0.00    -0.325 N 
HETATM   21  H   UNL     1     -43.504  60.317 -57.035  1.00  0.00     0.169 HD
HETATM   22  O   UNL     1     -45.533  58.200 -58.317  1.00  0.00    -0.271 OA
BRANCH  20  23
HETATM   23  C   UNL     1     -43.353  60.020 -59.066  1.00  0.00     0.036 A 
HETATM   24  C   UNL     1     -43.785  61.111 -59.835  1.00  0.00     0.048 A 
HETATM   25  C   UNL     1     -43.276  61.344 -61.120  1.00  0.00     0.002 A 
HETATM   26  C   UNL     1     -42.333  60.453 -61.640  1.00  0.00     0.018 A 
HETATM   27  C   UNL     1     -41.900  59.359 -60.890  1.00  0.00     0.004 A 
HETATM   28  C   UNL     1     -42.411  59.141 -59.610  1.00  0.00     0.029 A 
BRANCH  25  29
HETATM   29  S   UNL     1     -43.805  62.686 -62.178  1.00  0.00    -0.134 SA
HETATM   30  C   UNL     1     -45.534  62.274 -62.538  1.00  0.00     0.095 C 
ENDBRANCH  25  29
ENDBRANCH  20  23
ENDBRANCH   3  19
BRANCH   5  31
HETATM   31  N   UNL     1     -43.194  57.974 -52.880  1.00  0.00    -0.276 N 
HETATM   32  N   UNL     1     -43.024  56.912 -52.080  1.00  0.00     0.005 NA
HETATM   33  N   UNL     1     -42.076  57.218 -51.206  1.00  0.00    -0.152 NA
HETATM   34  C   UNL     1     -41.632  58.492 -51.476  1.00  0.00     0.166 A 
HETATM   35  C   UNL     1     -42.325  58.973 -52.572  1.00  0.00     0.147 A 
BRANCH  34  36
HETATM   36  C   UNL     1     -40.649  59.212 -50.680  1.00  0.00     0.314 C 
HETATM   37  O   UNL     1     -40.835  59.505 -49.505  1.00  0.00    -0.257 OA
BRANCH  36  38
HETATM   38  O   UNL     1     -39.500  59.463 -51.371  1.00  0.00    -0.321 OA
HETATM   39  C   UNL     1     -38.318  59.442 -50.568  1.00  0.00     0.213 C 
ENDBRANCH  36  38
ENDBRANCH  34  36
ENDBRANCH   5  31
TORSDOF 9
ENDMDL
MODEL 8
REMARK VINA RESULT:      -6.9     16.317     18.611
REMARK  9 active torsions:
REMARK  status: ('A' for Active; 'I' for Inactive)
REMARK       I    between atoms: C_2  and  N_3 
REMARK    1  A    between atoms: N_3  and  C_4 
REMARK    2  A    between atoms: C_7  and  C_8 
REMARK    3  A    between atoms: C_8  and  N_9 
REMARK    4  A    between atoms: C_11  and  C_12 
REMARK       I    between atoms: C_12  and  N_13 
REMARK    5  A    between atoms: N_13  and  C_14 
REMARK    6  A    between atoms: C_16  and  S_17 
REMARK    7  A    between atoms: C_24  and  N_25 
REMARK    8  A    between atoms: C_28  and  C_29 
REMARK    9  A    between atoms: C_29  and  O_30 
ROOT
HETATM    1  N   UNL     1     -35.249  41.571 -56.229  1.00  0.00    -0.052 N 
HETATM    2  H   UNL     1     -34.363  42.060 -56.029  1.00  0.00     0.281 HD
HETATM    3  C   UNL     1     -36.350  42.227 -55.372  1.00  0.00     0.282 C 
HETATM    4  C   UNL     1     -37.615  41.773 -56.081  1.00  0.00     0.072 C 
HETATM    5  C   UNL     1     -37.245  41.847 -57.578  1.00  0.00     0.134 C 
HETATM    6  C   UNL     1     -35.707  41.809 -57.644  1.00  0.00     0.263 C 
ENDROOT
BRANCH   1   7
HETATM    7  C   UNL     1     -34.996  40.109 -55.883  1.00  0.00     0.274 C 
BRANCH   7   8
HETATM    8  C   UNL     1     -33.607  39.629 -56.189  1.00  0.00    -0.032 A 
HETATM    9  C   UNL     1     -33.406  38.511 -57.009  1.00  0.00     0.011 A 
HETATM   10  C   UNL     1     -32.116  38.142 -57.404  1.00  0.00     0.030 A 
HETATM   11  C   UNL     1     -31.006  38.884 -57.000  1.00  0.00     0.034 A 
HETATM   12  C   UNL     1     -31.203  39.974 -56.143  1.00  0.00     0.030 A 
HETATM   13  C   UNL     1     -32.490  40.344 -55.740  1.00  0.00     0.011 A 
BRANCH  11  14
HETATM   14  N   UNL     1     -29.690  38.637 -57.441  1.00  0.00    -0.328 N 
HETATM   15  C   UNL     1     -28.699  37.943 -56.769  1.00  0.00     0.218 C 
HETATM   16  C   UNL     1     -27.467  37.730 -57.612  1.00  0.00     0.117 C 
HETATM   17  O   UNL     1     -28.769  37.488 -55.632  1.00  0.00    -0.274 OA
HETATM   18  H   UNL     1     -29.466  38.948 -58.378  1.00  0.00     0.169 HD
ENDBRANCH  11  14
ENDBRANCH   7   8
ENDBRANCH   1   7
BRANCH   3  19
HETATM   19  C   UNL     1     -36.112  41.960 -53.877  1.00  0.00     0.253 C 
HETATM   20  N   UNL     1     -36.438  40.715 -53.394  1.00  0.00    -0.325 N 
HETATM   21  H   UNL     1     -37.087  40.130 -53.908  1.00  0.00     0.169 HD
HETATM   22  O   UNL     1     -35.567  42.865 -53.242  1.00  0.00    -0.271 OA
BRANCH  20  23
HETATM   23  C   UNL     1     -36.024  40.179 -52.147  1.00  0.00     0.036 A 
HETATM   24  C   UNL     1     -34.799  39.524 -51.953  1.00  0.00     0.048 A 
HETATM   25  C   UNL     1     -34.452  38.982 -50.708  1.00  0.00     0.002 A 
HETATM   26  C   UNL     1     -35.362  39.088 -49.652  1.00  0.00     0.018 A 
HETATM   27  C   UNL     1     -36.588  39.729 -49.833  1.00  0.00     0.004 A 
HETATM   28  C   UNL     1     -36.919  40.269 -51.076  1.00  0.00     0.029 A 
BRANCH  25  29
HETATM   29  S   UNL     1     -32.930  38.097 -50.391  1.00  0.00    -0.134 SA
HETATM   30  C   UNL     1     -31.950  38.407 -51.885  1.00  0.00     0.095 C 
ENDBRANCH  25  29
ENDBRANCH  20  23
ENDBRANCH   3  19
BRANCH   5  31
HETATM   31  N   UNL     1     -37.801  40.791 -58.394  1.00  0.00    -0.276 N 
HETATM   32  N   UNL     1     -38.155  39.632 -57.822  1.00  0.00     0.005 NA
HETATM   33  N   UNL     1     -38.327  38.745 -58.791  1.00  0.00    -0.152 NA
HETATM   34  C   UNL     1     -38.091  39.366 -59.996  1.00  0.00     0.166 A 
HETATM   35  C   UNL     1     -37.783  40.692 -59.750  1.00  0.00     0.147 A 
BRANCH  34  36
HETATM   36  C   UNL     1     -38.102  38.699 -61.289  1.00  0.00     0.314 C 
HETATM   37  O   UNL     1     -39.076  38.084 -61.707  1.00  0.00    -0.257 OA
BRANCH  36  38
HETATM   38  O   UNL     1     -36.944  38.887 -61.985  1.00  0.00    -0.321 OA
HETATM   39  C   UNL     1     -37.019  38.502 -63.359  1.00  0.00     0.213 C 
ENDBRANCH  36  38
ENDBRANCH  34  36
ENDBRANCH   5  31
TORSDOF 9
ENDMDL
MODEL 9
REMARK VINA RESULT:      -6.9      2.546      3.143
REMARK  9 active torsions:
REMARK  status: ('A' for Active; 'I' for Inactive)
REMARK       I    between atoms: C_2  and  N_3 
REMARK    1  A    between atoms: N_3  and  C_4 
REMARK    2  A    between atoms: C_7  and  C_8 
REMARK    3  A    between atoms: C_8  and  N_9 
REMARK    4  A    between atoms: C_11  and  C_12 
REMARK       I    between atoms: C_12  and  N_13 
REMARK    5  A    between atoms: N_13  and  C_14 
REMARK    6  A    between atoms: C_16  and  S_17 
REMARK    7  A    between atoms: C_24  and  N_25 
REMARK    8  A    between atoms: C_28  and  C_29 
REMARK    9  A    between atoms: C_29  and  O_30 
ROOT
HETATM    1  N   UNL     1     -42.841  57.148 -57.289  1.00  0.00    -0.052 N 
HETATM    2  H   UNL     1     -41.864  56.977 -57.008  1.00  0.00     0.281 HD
HETATM    3  C   UNL     1     -43.159  58.628 -57.000  1.00  0.00     0.282 C 
HETATM    4  C   UNL     1     -44.389  58.862 -57.863  1.00  0.00     0.072 C 
HETATM    5  C   UNL     1     -44.090  58.068 -59.153  1.00  0.00     0.134 C 
HETATM    6  C   UNL     1     -43.019  57.028 -58.780  1.00  0.00     0.263 C 
ENDROOT
BRANCH   1   7
HETATM    7  C   UNL     1     -43.678  56.173 -56.471  1.00  0.00     0.274 C 
BRANCH   7   8
HETATM    8  C   UNL     1     -42.880  55.238 -55.609  1.00  0.00    -0.032 A 
HETATM    9  C   UNL     1     -41.526  55.005 -55.878  1.00  0.00     0.011 A 
HETATM   10  C   UNL     1     -40.749  54.242 -55.001  1.00  0.00     0.030 A 
HETATM   11  C   UNL     1     -41.302  53.706 -53.837  1.00  0.00     0.034 A 
HETATM   12  C   UNL     1     -42.667  53.900 -53.593  1.00  0.00     0.030 A 
HETATM   13  C   UNL     1     -43.451  54.658 -54.469  1.00  0.00     0.011 A 
BRANCH  11  14
HETATM   14  N   UNL     1     -40.560  53.018 -52.857  1.00  0.00    -0.328 N 
HETATM   15  C   UNL     1     -39.944  51.785 -52.986  1.00  0.00     0.218 C 
HETATM   16  C   UNL     1     -39.099  51.431 -51.788  1.00  0.00     0.117 C 
HETATM   17  O   UNL     1     -40.004  51.037 -53.956  1.00  0.00    -0.274 OA
HETATM   18  H   UNL     1     -40.411  53.507 -51.982  1.00  0.00     0.169 HD
ENDBRANCH  11  14
ENDBRANCH   7   8
ENDBRANCH   1   7
BRANCH   3  19
HETATM   19  C   UNL     1     -43.158  58.903 -55.488  1.00  0.00     0.253 C 
HETATM   20  N   UNL     1     -44.375  59.075 -54.873  1.00  0.00    -0.325 N 
HETATM   21  H   UNL     1     -45.188  59.326 -55.425  1.00  0.00     0.169 HD
HETATM   22  O   UNL     1     -42.060  58.868 -54.929  1.00  0.00    -0.271 OA
BRANCH  20  23
HETATM   23  C   UNL     1     -44.605  59.036 -53.473  1.00  0.00     0.036 A 
HETATM   24  C   UNL     1     -44.735  60.183 -52.676  1.00  0.00     0.048 A 
HETATM   25  C   UNL     1     -44.929  60.090 -51.291  1.00  0.00     0.002 A 
HETATM   26  C   UNL     1     -44.973  58.823 -50.703  1.00  0.00     0.018 A 
HETATM   27  C   UNL     1     -44.837  57.673 -51.482  1.00  0.00     0.004 A 
HETATM   28  C   UNL     1     -44.650  57.779 -52.861  1.00  0.00     0.029 A 
BRANCH  25  29
HETATM   29  S   UNL     1     -45.061  61.503 -50.202  1.00  0.00    -0.134 SA
HETATM   30  C   UNL     1     -46.564  62.337 -50.784  1.00  0.00     0.095 C 
ENDBRANCH  25  29
ENDBRANCH  20  23
ENDBRANCH   3  19
BRANCH   5  31
HETATM   31  N   UNL     1     -45.235  57.410 -59.740  1.00  0.00    -0.276 N 
HETATM   32  N   UNL     1     -45.179  56.097 -60.003  1.00  0.00     0.005 NA
HETATM   33  N   UNL     1     -46.192  55.808 -60.806  1.00  0.00    -0.152 NA
HETATM   34  C   UNL     1     -46.906  56.961 -61.038  1.00  0.00     0.166 A 
HETATM   35  C   UNL     1     -46.315  57.990 -60.329  1.00  0.00     0.147 A 
BRANCH  34  36
HETATM   36  C   UNL     1     -48.046  57.063 -61.938  1.00  0.00     0.314 C 
HETATM   37  O   UNL     1     -48.372  56.158 -62.696  1.00  0.00    -0.257 OA
BRANCH  36  38
HETATM   38  O   UNL     1     -48.722  58.239 -61.794  1.00  0.00    -0.321 OA
HETATM   39  C   UNL     1     -49.868  58.361 -62.638  1.00  0.00     0.213 C 
ENDBRANCH  36  38
ENDBRANCH  34  36
ENDBRANCH   5  31
TORSDOF 9
ENDMDL
MODEL 10
REMARK VINA RESULT:      -6.8      3.133      8.239
REMARK  9 active torsions:
REMARK  status: ('A' for Active; 'I' for Inactive)
REMARK       I    between atoms: C_2  and  N_3 
REMARK    1  A    between atoms: N_3  and  C_4 
REMARK    2  A    between atoms: C_7  and  C_8 
REMARK    3  A    between atoms: C_8  and  N_9 
REMARK    4  A    between atoms: C_11  and  C_12 
REMARK       I    between atoms: C_12  and  N_13 
REMARK    5  A    between atoms: N_13  and  C_14 
REMARK    6  A    between atoms: C_16  and  S_17 
REMARK    7  A    between atoms: C_24  and  N_25 
REMARK    8  A    between atoms: C_28  and  C_29 
REMARK    9  A    between atoms: C_29  and  O_30 
ROOT
HETATM    1  N   UNL     1     -43.396  56.940 -53.480  1.00  0.00    -0.052 N 
HETATM    2  H   UNL     1     -44.306  57.407 -53.608  1.00  0.00     0.281 HD
HETATM    3  C   UNL     1     -42.789  57.448 -52.158  1.00  0.00     0.282 C 
HETATM    4  C   UNL     1     -41.748  56.382 -51.857  1.00  0.00     0.072 C 
HETATM    5  C   UNL     1     -42.437  55.066 -52.277  1.00  0.00     0.134 C 
HETATM    6  C   UNL     1     -43.559  55.460 -53.254  1.00  0.00     0.263 C 
ENDROOT
BRANCH   1   7
HETATM    7  C   UNL     1     -42.573  57.305 -54.709  1.00  0.00     0.274 C 
BRANCH   7   8
HETATM    8  C   UNL     1     -43.373  57.455 -55.972  1.00  0.00    -0.032 A 
HETATM    9  C   UNL     1     -42.894  56.938 -57.182  1.00  0.00     0.011 A 
HETATM   10  C   UNL     1     -43.694  56.958 -58.329  1.00  0.00     0.030 A 
HETATM   11  C   UNL     1     -44.986  57.482 -58.289  1.00  0.00     0.034 A 
HETATM   12  C   UNL     1     -45.448  58.040 -57.091  1.00  0.00     0.030 A 
HETATM   13  C   UNL     1     -44.650  58.028 -55.942  1.00  0.00     0.011 A 
BRANCH  11  14
HETATM   14  N   UNL     1     -45.886  57.442 -59.373  1.00  0.00    -0.328 N 
HETATM   15  C   UNL     1     -46.245  56.335 -60.123  1.00  0.00     0.218 C 
HETATM   16  C   UNL     1     -47.358  56.629 -61.097  1.00  0.00     0.117 C 
HETATM   17  O   UNL     1     -45.778  55.205 -60.025  1.00  0.00    -0.274 OA
HETATM   18  H   UNL     1     -46.369  58.306 -59.586  1.00  0.00     0.169 HD
ENDBRANCH  11  14
ENDBRANCH   7   8
ENDBRANCH   1   7
BRANCH   3  19
HETATM   19  C   UNL     1     -42.426  58.938 -52.259  1.00  0.00     0.253 C 
HETATM   20  N   UNL     1     -43.460  59.841 -52.327  1.00  0.00    -0.325 N 
HETATM   21  H   UNL     1     -44.381  59.531 -52.617  1.00  0.00     0.169 HD
HETATM   22  O   UNL     1     -41.226  59.212 -52.190  1.00  0.00    -0.271 OA
BRANCH  20  23
HETATM   23  C   UNL     1     -43.348  61.241 -52.123  1.00  0.00     0.036 A 
HETATM   24  C   UNL     1     -43.230  62.170 -53.168  1.00  0.00     0.048 A 
HETATM   25  C   UNL     1     -43.089  63.540 -52.911  1.00  0.00     0.002 A 
HETATM   26  C   UNL     1     -43.049  63.974 -51.583  1.00  0.00     0.018 A 
HETATM   27  C   UNL     1     -43.157  63.061 -50.534  1.00  0.00     0.004 A 
HETATM   28  C   UNL     1     -43.303  61.700 -50.803  1.00  0.00     0.029 A 
BRANCH  25  29
HETATM   29  S   UNL     1     -42.891  64.781 -54.185  1.00  0.00    -0.134 SA
HETATM   30  C   UNL     1     -44.092  64.277 -55.447  1.00  0.00     0.095 C 
ENDBRANCH  25  29
ENDBRANCH  20  23
ENDBRANCH   3  19
BRANCH   5  31
HETATM   31  N   UNL     1     -41.563  54.093 -52.893  1.00  0.00    -0.276 N 
HETATM   32  N   UNL     1     -41.795  53.702 -54.154  1.00  0.00     0.005 NA
HETATM   33  N   UNL     1     -41.081  52.607 -54.370  1.00  0.00    -0.152 NA
HETATM   34  C   UNL     1     -40.374  52.317 -53.226  1.00  0.00     0.166 A 
HETATM   35  C   UNL     1     -40.655  53.288 -52.281  1.00  0.00     0.147 A 
BRANCH  34  36
HETATM   36  C   UNL     1     -39.535  51.141 -53.046  1.00  0.00     0.314 C 
HETATM   37  O   UNL     1     -39.236  50.395 -53.971  1.00  0.00    -0.257 OA
BRANCH  36  38
HETATM   38  O   UNL     1     -39.087  51.009 -51.765  1.00  0.00    -0.321 OA
HETATM   39  C   UNL     1     -39.562  49.838 -51.097  1.00  0.00     0.213 C 
ENDBRANCH  36  38
ENDBRANCH  34  36
ENDBRANCH   5  31
TORSDOF 9
ENDMDL
