MODEL 1
REMARK VINA RESULT:      -8.4      0.000      0.000
REMARK  5 active torsions:
REMARK  status: ('A' for Active; 'I' for Inactive)
REMARK    1  A    between atoms: C_2  and  C_3 
REMARK    2  A    between atoms: C_2  and  C_18 
REMARK       I    between atoms: C_3  and  N_4 
REMARK    3  A    between atoms: N_4  and  C_5 
REMARK    4  A    between atoms: C_7  and  C_8 
REMARK    5  A    between atoms: C_18  and  C_19 
ROOT
HETATM    1  C   UNL     1     -42.325  55.665 -53.879  1.00  0.00     0.226 C 
HETATM    2  N   UNL     1     -41.764  55.946 -55.109  1.00  0.00    -0.327 N 
HETATM    3  O   UNL     1     -43.437  56.037 -53.503  1.00  0.00    -0.273 OA
HETATM    4  H   UNL     1     -40.766  55.817 -55.202  1.00  0.00     0.169 HD
ENDROOT
BRANCH   2   5
HETATM    5  C   UNL     1     -42.405  56.531 -56.223  1.00  0.00     0.035 A 
HETATM    6  C   UNL     1     -42.989  55.793 -57.257  1.00  0.00     0.042 A 
HETATM    7  C   UNL     1     -43.556  56.433 -58.373  1.00  0.00    -0.021 A 
HETATM    8  C   UNL     1     -43.539  57.832 -58.433  1.00  0.00     0.012 A 
HETATM    9  C   UNL     1     -42.963  58.576 -57.404  1.00  0.00     0.003 A 
HETATM   10  C   UNL     1     -42.391  57.928 -56.309  1.00  0.00     0.029 A 
BRANCH   7  11
HETATM   11  C   UNL     1     -44.124  55.667 -59.470  1.00  0.00     0.010 A 
HETATM   12  C   UNL     1     -44.520  56.064 -60.769  1.00  0.00     0.152 A 
HETATM   13  N   UNL     1     -45.009  55.055 -61.496  1.00  0.00    -0.187 NA
HETATM   14  N   UNL     1     -44.926  54.005 -60.662  1.00  0.00    -0.289 N 
HETATM   15  H   UNL     1     -45.245  53.101 -60.995  1.00  0.00     0.188 HD
HETATM   16  C   UNL     1     -44.407  54.318 -59.440  1.00  0.00     0.123 A 
ENDBRANCH   7  11
ENDBRANCH   2   5
BRANCH   1  17
HETATM   17  C   UNL     1     -41.510  54.725 -52.987  1.00  0.00     0.078 C 
HETATM   18  C   UNL     1     -42.473  53.711 -52.363  1.00  0.00     0.020 C 
BRANCH  17  19
HETATM   19  C   UNL     1     -40.340  53.990 -53.661  1.00  0.00     0.052 C 
BRANCH  19  20
HETATM   20  C   UNL     1     -40.184  52.507 -53.412  1.00  0.00    -0.057 A 
HETATM   21  C   UNL     1     -40.420  51.534 -54.390  1.00  0.00     0.007 A 
HETATM   22  C   UNL     1     -40.205  50.180 -54.114  1.00  0.00     0.001 A 
HETATM   23  C   UNL     1     -39.737  49.783 -52.864  1.00  0.00     0.000 A 
HETATM   24  C   UNL     1     -39.483  50.739 -51.886  1.00  0.00     0.001 A 
HETATM   25  C   UNL     1     -39.701  52.090 -52.159  1.00  0.00     0.007 A 
ENDBRANCH  19  20
ENDBRANCH  17  19
ENDBRANCH   1  17
TORSDOF 5
ENDMDL
MODEL 2
REMARK VINA RESULT:      -8.2      2.655      8.545
REMARK  5 active torsions:
REMARK  status: ('A' for Active; 'I' for Inactive)
REMARK    1  A    between atoms: C_2  and  C_3 
REMARK    2  A    between atoms: C_2  and  C_18 
REMARK       I    between atoms: C_3  and  N_4 
REMARK    3  A    between atoms: N_4  and  C_5 
REMARK    4  A    between atoms: C_7  and  C_8 
REMARK    5  A    between atoms: C_18  and  C_19 
ROOT
HETATM    1  C   UNL     1     -42.716  54.801 -55.744  1.00  0.00     0.226 C 
HETATM    2  N   UNL     1     -41.474  54.837 -55.142  1.00  0.00    -0.327 N 
HETATM    3  O   UNL     1     -43.562  53.922 -55.577  1.00  0.00    -0.273 OA
HETATM    4  H   UNL     1     -40.781  55.449 -55.550  1.00  0.00     0.169 HD
ENDROOT
BRANCH   2   5
HETATM    5  C   UNL     1     -41.010  54.008 -54.099  1.00  0.00     0.035 A 
HETATM    6  C   UNL     1     -41.137  54.323 -52.742  1.00  0.00     0.042 A 
HETATM    7  C   UNL     1     -40.596  53.486 -51.750  1.00  0.00    -0.021 A 
HETATM    8  C   UNL     1     -39.933  52.316 -52.138  1.00  0.00     0.012 A 
HETATM    9  C   UNL     1     -39.806  51.991 -53.488  1.00  0.00     0.003 A 
HETATM   10  C   UNL     1     -40.334  52.837 -54.463  1.00  0.00     0.029 A 
BRANCH   7  11
HETATM   11  C   UNL     1     -40.689  53.834 -50.342  1.00  0.00     0.010 A 
HETATM   12  C   UNL     1     -41.081  55.039 -49.710  1.00  0.00     0.152 A 
HETATM   13  N   UNL     1     -41.030  54.967 -48.376  1.00  0.00    -0.187 NA
HETATM   14  N   UNL     1     -40.606  53.713 -48.149  1.00  0.00    -0.289 N 
HETATM   15  H   UNL     1     -40.486  53.413 -47.188  1.00  0.00     0.188 HD
HETATM   16  C   UNL     1     -40.386  52.997 -49.290  1.00  0.00     0.123 A 
ENDBRANCH   7  11
ENDBRANCH   2   5
BRANCH   1  17
HETATM   17  C   UNL     1     -43.068  56.025 -56.594  1.00  0.00     0.078 C 
HETATM   18  C   UNL     1     -42.350  57.238 -55.997  1.00  0.00     0.020 C 
BRANCH  17  19
HETATM   19  C   UNL     1     -42.762  55.922 -58.097  1.00  0.00     0.052 C 
BRANCH  19  20
HETATM   20  C   UNL     1     -43.919  55.923 -59.068  1.00  0.00    -0.057 A 
HETATM   21  C   UNL     1     -44.085  54.958 -60.069  1.00  0.00     0.007 A 
HETATM   22  C   UNL     1     -45.207  54.981 -60.902  1.00  0.00     0.001 A 
HETATM   23  C   UNL     1     -46.185  55.960 -60.737  1.00  0.00     0.000 A 
HETATM   24  C   UNL     1     -46.043  56.917 -59.738  1.00  0.00     0.001 A 
HETATM   25  C   UNL     1     -44.921  56.897 -58.909  1.00  0.00     0.007 A 
ENDBRANCH  19  20
ENDBRANCH  17  19
ENDBRANCH   1  17
TORSDOF 5
ENDMDL
MODEL 3
REMARK VINA RESULT:      -8.2      1.851      2.297
REMARK  5 active torsions:
REMARK  status: ('A' for Active; 'I' for Inactive)
REMARK    1  A    between atoms: C_2  and  C_3 
REMARK    2  A    between atoms: C_2  and  C_18 
REMARK       I    between atoms: C_3  and  N_4 
REMARK    3  A    between atoms: N_4  and  C_5 
REMARK    4  A    between atoms: C_7  and  C_8 
REMARK    5  A    between atoms: C_18  and  C_19 
ROOT
HETATM    1  C   UNL     1     -41.847  55.679 -52.743  1.00  0.00     0.226 C 
HETATM    2  N   UNL     1     -42.887  55.354 -53.591  1.00  0.00    -0.327 N 
HETATM    3  O   UNL     1     -41.075  56.626 -52.894  1.00  0.00    -0.273 OA
HETATM    4  H   UNL     1     -43.276  54.424 -53.510  1.00  0.00     0.169 HD
ENDROOT
BRANCH   2   5
HETATM    5  C   UNL     1     -43.383  56.126 -54.663  1.00  0.00     0.035 A 
HETATM    6  C   UNL     1     -42.847  56.097 -55.954  1.00  0.00     0.042 A 
HETATM    7  C   UNL     1     -43.344  56.940 -56.964  1.00  0.00    -0.021 A 
HETATM    8  C   UNL     1     -44.402  57.807 -56.664  1.00  0.00     0.012 A 
HETATM    9  C   UNL     1     -44.946  57.839 -55.381  1.00  0.00     0.003 A 
HETATM   10  C   UNL     1     -44.433  57.009 -54.383  1.00  0.00     0.029 A 
BRANCH   7  11
HETATM   11  C   UNL     1     -42.759  56.943 -58.295  1.00  0.00     0.010 A 
HETATM   12  C   UNL     1     -42.869  56.013 -59.357  1.00  0.00     0.152 A 
HETATM   13  N   UNL     1     -42.168  56.372 -60.436  1.00  0.00    -0.187 NA
HETATM   14  N   UNL     1     -41.607  57.536 -60.069  1.00  0.00    -0.289 N 
HETATM   15  H   UNL     1     -41.013  58.015 -60.738  1.00  0.00     0.188 HD
HETATM   16  C   UNL     1     -41.927  57.918 -58.799  1.00  0.00     0.123 A 
ENDBRANCH   7  11
ENDBRANCH   2   5
BRANCH   1  17
HETATM   17  C   UNL     1     -41.751  54.832 -51.470  1.00  0.00     0.078 C 
HETATM   18  C   UNL     1     -42.954  53.887 -51.438  1.00  0.00     0.020 C 
BRANCH  17  19
HETATM   19  C   UNL     1     -40.452  54.032 -51.280  1.00  0.00     0.052 C 
BRANCH  19  20
HETATM   20  C   UNL     1     -40.251  52.782 -52.105  1.00  0.00    -0.057 A 
HETATM   21  C   UNL     1     -40.403  52.745 -53.496  1.00  0.00     0.007 A 
HETATM   22  C   UNL     1     -40.150  51.570 -54.209  1.00  0.00     0.001 A 
HETATM   23  C   UNL     1     -39.727  50.421 -53.545  1.00  0.00     0.000 A 
HETATM   24  C   UNL     1     -39.557  50.445 -52.164  1.00  0.00     0.001 A 
HETATM   25  C   UNL     1     -39.813  51.616 -51.451  1.00  0.00     0.007 A 
ENDBRANCH  19  20
ENDBRANCH  17  19
ENDBRANCH   1  17
TORSDOF 5
ENDMDL
MODEL 4
REMARK VINA RESULT:      -8.2      1.966      3.248
REMARK  5 active torsions:
REMARK  status: ('A' for Active; 'I' for Inactive)
REMARK    1  A    between atoms: C_2  and  C_3 
REMARK    2  A    between atoms: C_2  and  C_18 
REMARK       I    between atoms: C_3  and  N_4 
REMARK    3  A    between atoms: N_4  and  C_5 
REMARK    4  A    between atoms: C_7  and  C_8 
REMARK    5  A    between atoms: C_18  and  C_19 
ROOT
HETATM    1  C   UNL     1     -40.797  53.299 -54.591  1.00  0.00     0.226 C 
HETATM    2  N   UNL     1     -42.066  53.788 -54.831  1.00  0.00    -0.327 N 
HETATM    3  O   UNL     1     -39.755  53.771 -55.048  1.00  0.00    -0.273 OA
HETATM    4  H   UNL     1     -42.843  53.177 -54.625  1.00  0.00     0.169 HD
ENDROOT
BRANCH   2   5
HETATM    5  C   UNL     1     -42.403  55.003 -55.466  1.00  0.00     0.035 A 
HETATM    6  C   UNL     1     -42.877  55.086 -56.779  1.00  0.00     0.042 A 
HETATM    7  C   UNL     1     -43.135  56.332 -57.379  1.00  0.00    -0.021 A 
HETATM    8  C   UNL     1     -42.922  57.499 -56.635  1.00  0.00     0.012 A 
HETATM    9  C   UNL     1     -42.454  57.425 -55.324  1.00  0.00     0.003 A 
HETATM   10  C   UNL     1     -42.188  56.184 -54.745  1.00  0.00     0.029 A 
BRANCH   7  11
HETATM   11  C   UNL     1     -43.586  56.422 -58.757  1.00  0.00     0.010 A 
HETATM   12  C   UNL     1     -43.700  55.431 -59.761  1.00  0.00     0.152 A 
HETATM   13  N   UNL     1     -44.156  55.914 -60.920  1.00  0.00    -0.187 NA
HETATM   14  N   UNL     1     -44.337  57.220 -60.662  1.00  0.00    -0.289 N 
HETATM   15  H   UNL     1     -44.687  57.813 -61.407  1.00  0.00     0.188 HD
HETATM   16  C   UNL     1     -44.009  57.574 -59.386  1.00  0.00     0.123 A 
ENDBRANCH   7  11
ENDBRANCH   2   5
BRANCH   1  17
HETATM   17  C   UNL     1     -40.719  52.145 -53.588  1.00  0.00     0.078 C 
HETATM   18  C   UNL     1     -40.177  50.915 -54.322  1.00  0.00     0.020 C 
BRANCH  17  19
HETATM   19  C   UNL     1     -39.893  52.401 -52.317  1.00  0.00     0.052 C 
BRANCH  19  20
HETATM   20  C   UNL     1     -40.460  53.329 -51.267  1.00  0.00    -0.057 A 
HETATM   21  C   UNL     1     -41.800  53.733 -51.240  1.00  0.00     0.007 A 
HETATM   22  C   UNL     1     -42.277  54.549 -50.210  1.00  0.00     0.001 A 
HETATM   23  C   UNL     1     -41.426  54.960 -49.187  1.00  0.00     0.000 A 
HETATM   24  C   UNL     1     -40.095  54.555 -49.191  1.00  0.00     0.001 A 
HETATM   25  C   UNL     1     -39.617  53.744 -50.220  1.00  0.00     0.007 A 
ENDBRANCH  19  20
ENDBRANCH  17  19
ENDBRANCH   1  17
TORSDOF 5
ENDMDL
MODEL 5
REMARK VINA RESULT:      -8.1      2.854      7.884
REMARK  5 active torsions:
REMARK  status: ('A' for Active; 'I' for Inactive)
REMARK    1  A    between atoms: C_2  and  C_3 
REMARK    2  A    between atoms: C_2  and  C_18 
REMARK       I    between atoms: C_3  and  N_4 
REMARK    3  A    between atoms: N_4  and  C_5 
REMARK    4  A    between atoms: C_7  and  C_8 
REMARK    5  A    between atoms: C_18  and  C_19 
ROOT
HETATM    1  C   UNL     1     -42.328  54.953 -55.903  1.00  0.00     0.226 C 
HETATM    2  N   UNL     1     -41.127  54.900 -55.223  1.00  0.00    -0.327 N 
HETATM    3  O   UNL     1     -43.244  54.138 -55.793  1.00  0.00    -0.273 OA
HETATM    4  H   UNL     1     -40.367  55.460 -55.584  1.00  0.00     0.169 HD
ENDROOT
BRANCH   2   5
HETATM    5  C   UNL     1     -40.792  54.041 -54.155  1.00  0.00     0.035 A 
HETATM    6  C   UNL     1     -40.947  54.382 -52.807  1.00  0.00     0.042 A 
HETATM    7  C   UNL     1     -40.534  53.508 -51.786  1.00  0.00    -0.021 A 
HETATM    8  C   UNL     1     -39.971  52.275 -52.137  1.00  0.00     0.012 A 
HETATM    9  C   UNL     1     -39.817  51.924 -53.478  1.00  0.00     0.003 A 
HETATM   10  C   UNL     1     -40.217  52.807 -54.481  1.00  0.00     0.029 A 
BRANCH   7  11
HETATM   11  C   UNL     1     -40.654  53.879 -50.386  1.00  0.00     0.010 A 
HETATM   12  C   UNL     1     -41.097  55.079 -49.781  1.00  0.00     0.152 A 
HETATM   13  N   UNL     1     -41.056  55.034 -48.446  1.00  0.00    -0.187 NA
HETATM   14  N   UNL     1     -40.587  53.802 -48.191  1.00  0.00    -0.289 N 
HETATM   15  H   UNL     1     -40.465  53.525 -47.223  1.00  0.00     0.188 HD
HETATM   16  C   UNL     1     -40.329  53.074 -49.316  1.00  0.00     0.123 A 
ENDBRANCH   7  11
ENDBRANCH   2   5
BRANCH   1  17
HETATM   17  C   UNL     1     -42.535  56.198 -56.770  1.00  0.00     0.078 C 
HETATM   18  C   UNL     1     -43.198  55.760 -58.078  1.00  0.00     0.020 C 
BRANCH  17  19
HETATM   19  C   UNL     1     -43.339  57.345 -56.135  1.00  0.00     0.052 C 
BRANCH  19  20
HETATM   20  C   UNL     1     -43.289  57.511 -54.633  1.00  0.00    -0.057 A 
HETATM   21  C   UNL     1     -44.298  57.059 -53.775  1.00  0.00     0.007 A 
HETATM   22  C   UNL     1     -44.168  57.193 -52.390  1.00  0.00     0.001 A 
HETATM   23  C   UNL     1     -43.023  57.769 -51.844  1.00  0.00     0.000 A 
HETATM   24  C   UNL     1     -42.004  58.210 -52.682  1.00  0.00     0.001 A 
HETATM   25  C   UNL     1     -42.135  58.080 -54.065  1.00  0.00     0.007 A 
ENDBRANCH  19  20
ENDBRANCH  17  19
ENDBRANCH   1  17
TORSDOF 5
ENDMDL
MODEL 6
REMARK VINA RESULT:      -8.0      2.454      7.827
REMARK  5 active torsions:
REMARK  status: ('A' for Active; 'I' for Inactive)
REMARK    1  A    between atoms: C_2  and  C_3 
REMARK    2  A    between atoms: C_2  and  C_18 
REMARK       I    between atoms: C_3  and  N_4 
REMARK    3  A    between atoms: N_4  and  C_5 
REMARK    4  A    between atoms: C_7  and  C_8 
REMARK    5  A    between atoms: C_18  and  C_19 
ROOT
HETATM    1  C   UNL     1     -42.566  55.545 -55.646  1.00  0.00     0.226 C 
HETATM    2  N   UNL     1     -41.493  55.721 -54.795  1.00  0.00    -0.327 N 
HETATM    3  O   UNL     1     -43.246  54.523 -55.731  1.00  0.00    -0.273 OA
HETATM    4  H   UNL     1     -40.863  56.485 -54.997  1.00  0.00     0.169 HD
ENDROOT
BRANCH   2   5
HETATM    5  C   UNL     1     -41.090  54.866 -53.747  1.00  0.00     0.035 A 
HETATM    6  C   UNL     1     -40.686  53.540 -53.938  1.00  0.00     0.042 A 
HETATM    7  C   UNL     1     -40.358  52.718 -52.845  1.00  0.00    -0.021 A 
HETATM    8  C   UNL     1     -40.429  53.250 -51.551  1.00  0.00     0.012 A 
HETATM    9  C   UNL     1     -40.826  54.572 -51.352  1.00  0.00     0.003 A 
HETATM   10  C   UNL     1     -41.164  55.372 -52.443  1.00  0.00     0.029 A 
BRANCH   7  11
HETATM   11  C   UNL     1     -39.981  51.328 -53.038  1.00  0.00     0.010 A 
HETATM   12  C   UNL     1     -39.875  50.553 -54.217  1.00  0.00     0.152 A 
HETATM   13  N   UNL     1     -39.498  49.294 -53.980  1.00  0.00    -0.187 NA
HETATM   14  N   UNL     1     -39.359  49.258 -52.644  1.00  0.00    -0.289 N 
HETATM   15  H   UNL     1     -39.071  48.386 -52.214  1.00  0.00     0.188 HD
HETATM   16  C   UNL     1     -39.638  50.447 -52.035  1.00  0.00     0.123 A 
ENDBRANCH   7  11
ENDBRANCH   2   5
BRANCH   1  17
HETATM   17  C   UNL     1     -42.973  56.783 -56.451  1.00  0.00     0.078 C 
HETATM   18  C   UNL     1     -42.249  57.994 -55.857  1.00  0.00     0.020 C 
BRANCH  17  19
HETATM   19  C   UNL     1     -42.730  56.720 -57.968  1.00  0.00     0.052 C 
BRANCH  19  20
HETATM   20  C   UNL     1     -43.880  56.321 -58.863  1.00  0.00    -0.057 A 
HETATM   21  C   UNL     1     -44.050  55.026 -59.366  1.00  0.00     0.007 A 
HETATM   22  C   UNL     1     -45.165  54.705 -60.146  1.00  0.00     0.001 A 
HETATM   23  C   UNL     1     -46.131  55.669 -60.421  1.00  0.00     0.000 A 
HETATM   24  C   UNL     1     -45.986  56.957 -59.917  1.00  0.00     0.001 A 
HETATM   25  C   UNL     1     -44.871  57.280 -59.142  1.00  0.00     0.007 A 
ENDBRANCH  19  20
ENDBRANCH  17  19
ENDBRANCH   1  17
TORSDOF 5
ENDMDL
MODEL 7
REMARK VINA RESULT:      -7.8      2.494      8.205
REMARK  5 active torsions:
REMARK  status: ('A' for Active; 'I' for Inactive)
REMARK    1  A    between atoms: C_2  and  C_3 
REMARK    2  A    between atoms: C_2  and  C_18 
REMARK       I    between atoms: C_3  and  N_4 
REMARK    3  A    between atoms: N_4  and  C_5 
REMARK    4  A    between atoms: C_7  and  C_8 
REMARK    5  A    between atoms: C_18  and  C_19 
ROOT
HETATM    1  C   UNL     1     -42.938  56.403 -55.272  1.00  0.00     0.226 C 
HETATM    2  N   UNL     1     -41.662  55.892 -55.141  1.00  0.00    -0.327 N 
HETATM    3  O   UNL     1     -43.948  55.934 -54.747  1.00  0.00    -0.273 OA
HETATM    4  H   UNL     1     -40.971  56.195 -55.814  1.00  0.00     0.169 HD
ENDROOT
BRANCH   2   5
HETATM    5  C   UNL     1     -41.237  54.880 -54.253  1.00  0.00     0.035 A 
HETATM    6  C   UNL     1     -41.291  54.997 -52.860  1.00  0.00     0.042 A 
HETATM    7  C   UNL     1     -40.792  53.979 -52.028  1.00  0.00    -0.021 A 
HETATM    8  C   UNL     1     -40.248  52.830 -52.615  1.00  0.00     0.012 A 
HETATM    9  C   UNL     1     -40.195  52.703 -54.002  1.00  0.00     0.003 A 
HETATM   10  C   UNL     1     -40.679  53.727 -54.817  1.00  0.00     0.029 A 
BRANCH   7  11
HETATM   11  C   UNL     1     -40.807  54.118 -50.581  1.00  0.00     0.010 A 
HETATM   12  C   UNL     1     -41.189  55.205 -49.759  1.00  0.00     0.152 A 
HETATM   13  N   UNL     1     -41.054  54.944 -48.456  1.00  0.00    -0.187 NA
HETATM   14  N   UNL     1     -40.585  53.685 -48.439  1.00  0.00    -0.289 N 
HETATM   15  H   UNL     1     -40.400  53.254 -47.539  1.00  0.00     0.188 HD
HETATM   16  C   UNL     1     -40.419  53.148 -49.682  1.00  0.00     0.123 A 
ENDBRANCH   7  11
ENDBRANCH   2   5
BRANCH   1  17
HETATM   17  C   UNL     1     -43.041  57.717 -56.051  1.00  0.00     0.078 C 
HETATM   18  C   UNL     1     -42.098  58.731 -55.398  1.00  0.00     0.020 C 
BRANCH  17  19
HETATM   19  C   UNL     1     -42.759  57.637 -57.561  1.00  0.00     0.052 C 
BRANCH  19  20
HETATM   20  C   UNL     1     -43.740  56.893 -58.436  1.00  0.00    -0.057 A 
HETATM   21  C   UNL     1     -45.009  57.386 -58.762  1.00  0.00     0.007 A 
HETATM   22  C   UNL     1     -45.850  56.674 -59.622  1.00  0.00     0.001 A 
HETATM   23  C   UNL     1     -45.430  55.469 -60.179  1.00  0.00     0.000 A 
HETATM   24  C   UNL     1     -44.166  54.972 -59.878  1.00  0.00     0.001 A 
HETATM   25  C   UNL     1     -43.326  55.680 -59.017  1.00  0.00     0.007 A 
ENDBRANCH  19  20
ENDBRANCH  17  19
ENDBRANCH   1  17
TORSDOF 5
ENDMDL
MODEL 8
REMARK VINA RESULT:      -7.6      1.882      2.441
REMARK  5 active torsions:
REMARK  status: ('A' for Active; 'I' for Inactive)
REMARK    1  A    between atoms: C_2  and  C_3 
REMARK    2  A    between atoms: C_2  and  C_18 
REMARK       I    between atoms: C_3  and  N_4 
REMARK    3  A    between atoms: N_4  and  C_5 
REMARK    4  A    between atoms: C_7  and  C_8 
REMARK    5  A    between atoms: C_18  and  C_19 
ROOT
HETATM    1  C   UNL     1     -42.307  56.231 -55.762  1.00  0.00     0.226 C 
HETATM    2  N   UNL     1     -42.469  55.971 -57.108  1.00  0.00    -0.327 N 
HETATM    3  O   UNL     1     -42.405  57.338 -55.234  1.00  0.00    -0.273 OA
HETATM    4  H   UNL     1     -42.111  55.093 -57.456  1.00  0.00     0.169 HD
ENDROOT
BRANCH   2   5
HETATM    5  C   UNL     1     -42.956  56.858 -58.092  1.00  0.00     0.035 A 
HETATM    6  C   UNL     1     -44.204  56.722 -58.710  1.00  0.00     0.042 A 
HETATM    7  C   UNL     1     -44.606  57.601 -59.731  1.00  0.00    -0.021 A 
HETATM    8  C   UNL     1     -43.741  58.632 -60.118  1.00  0.00     0.012 A 
HETATM    9  C   UNL     1     -42.498  58.779 -59.504  1.00  0.00     0.003 A 
HETATM   10  C   UNL     1     -42.105  57.891 -58.503  1.00  0.00     0.029 A 
BRANCH   7  11
HETATM   11  C   UNL     1     -45.883  57.434 -60.405  1.00  0.00     0.010 A 
HETATM   12  C   UNL     1     -46.602  56.265 -60.751  1.00  0.00     0.152 A 
HETATM   13  N   UNL     1     -47.753  56.528 -61.377  1.00  0.00    -0.187 NA
HETATM   14  N   UNL     1     -47.776  57.870 -61.432  1.00  0.00    -0.289 N 
HETATM   15  H   UNL     1     -48.572  58.319 -61.873  1.00  0.00     0.188 HD
HETATM   16  C   UNL     1     -46.682  58.458 -60.868  1.00  0.00     0.123 A 
ENDBRANCH   7  11
ENDBRANCH   2   5
BRANCH   1  17
HETATM   17  C   UNL     1     -42.095  54.998 -54.878  1.00  0.00     0.078 C 
HETATM   18  C   UNL     1     -43.179  53.974 -55.227  1.00  0.00     0.020 C 
BRANCH  17  19
HETATM   19  C   UNL     1     -40.709  54.338 -54.950  1.00  0.00     0.052 C 
BRANCH  19  20
HETATM   20  C   UNL     1     -40.372  53.261 -53.945  1.00  0.00    -0.057 A 
HETATM   21  C   UNL     1     -39.959  51.973 -54.306  1.00  0.00     0.007 A 
HETATM   22  C   UNL     1     -39.609  51.037 -53.328  1.00  0.00     0.001 A 
HETATM   23  C   UNL     1     -39.654  51.379 -51.979  1.00  0.00     0.000 A 
HETATM   24  C   UNL     1     -40.048  52.659 -51.604  1.00  0.00     0.001 A 
HETATM   25  C   UNL     1     -40.401  53.593 -52.578  1.00  0.00     0.007 A 
ENDBRANCH  19  20
ENDBRANCH  17  19
ENDBRANCH   1  17
TORSDOF 5
ENDMDL
MODEL 9
REMARK VINA RESULT:      -7.6      2.836      7.559
REMARK  5 active torsions:
REMARK  status: ('A' for Active; 'I' for Inactive)
REMARK    1  A    between atoms: C_2  and  C_3 
REMARK    2  A    between atoms: C_2  and  C_18 
REMARK       I    between atoms: C_3  and  N_4 
REMARK    3  A    between atoms: N_4  and  C_5 
REMARK    4  A    between atoms: C_7  and  C_8 
REMARK    5  A    between atoms: C_18  and  C_19 
ROOT
HETATM    1  C   UNL     1     -42.373  55.928 -56.047  1.00  0.00     0.226 C 
HETATM    2  N   UNL     1     -41.149  55.674 -55.461  1.00  0.00    -0.327 N 
HETATM    3  O   UNL     1     -43.428  55.362 -55.764  1.00  0.00    -0.273 OA
HETATM    4  H   UNL     1     -40.326  56.003 -55.947  1.00  0.00     0.169 HD
ENDROOT
BRANCH   2   5
HETATM    5  C   UNL     1     -40.900  54.880 -54.321  1.00  0.00     0.035 A 
HETATM    6  C   UNL     1     -40.502  53.540 -54.380  1.00  0.00     0.042 A 
HETATM    7  C   UNL     1     -40.333  52.782 -53.208  1.00  0.00    -0.021 A 
HETATM    8  C   UNL     1     -40.557  53.393 -51.968  1.00  0.00     0.012 A 
HETATM    9  C   UNL     1     -40.948  54.729 -51.899  1.00  0.00     0.003 A 
HETATM   10  C   UNL     1     -41.128  55.466 -53.070  1.00  0.00     0.029 A 
BRANCH   7  11
HETATM   11  C   UNL     1     -39.963  51.378 -53.269  1.00  0.00     0.010 A 
HETATM   12  C   UNL     1     -39.859  50.495 -54.370  1.00  0.00     0.152 A 
HETATM   13  N   UNL     1     -39.489  49.261 -54.014  1.00  0.00    -0.187 NA
HETATM   14  N   UNL     1     -39.353  49.351 -52.680  1.00  0.00    -0.289 N 
HETATM   15  H   UNL     1     -39.071  48.521 -52.170  1.00  0.00     0.188 HD
HETATM   16  C   UNL     1     -39.627  50.593 -52.187  1.00  0.00     0.123 A 
ENDBRANCH   7  11
ENDBRANCH   2   5
BRANCH   1  17
HETATM   17  C   UNL     1     -42.392  57.088 -57.047  1.00  0.00     0.078 C 
HETATM   18  C   UNL     1     -42.921  56.556 -58.380  1.00  0.00     0.020 C 
BRANCH  17  19
HETATM   19  C   UNL     1     -43.188  58.335 -56.628  1.00  0.00     0.052 C 
BRANCH  19  20
HETATM   20  C   UNL     1     -43.056  58.827 -55.205  1.00  0.00    -0.057 A 
HETATM   21  C   UNL     1     -41.879  59.382 -54.688  1.00  0.00     0.007 A 
HETATM   22  C   UNL     1     -41.837  59.870 -53.379  1.00  0.00     0.001 A 
HETATM   23  C   UNL     1     -42.972  59.823 -52.574  1.00  0.00     0.000 A 
HETATM   24  C   UNL     1     -44.154  59.289 -53.077  1.00  0.00     0.001 A 
HETATM   25  C   UNL     1     -44.197  58.798 -54.383  1.00  0.00     0.007 A 
ENDBRANCH  19  20
ENDBRANCH  17  19
ENDBRANCH   1  17
TORSDOF 5
ENDMDL
MODEL 10
REMARK VINA RESULT:      -7.6     14.274     17.668
REMARK  5 active torsions:
REMARK  status: ('A' for Active; 'I' for Inactive)
REMARK    1  A    between atoms: C_2  and  C_3 
REMARK    2  A    between atoms: C_2  and  C_18 
REMARK       I    between atoms: C_3  and  N_4 
REMARK    3  A    between atoms: N_4  and  C_5 
REMARK    4  A    between atoms: C_7  and  C_8 
REMARK    5  A    between atoms: C_18  and  C_19 
ROOT
HETATM    1  C   UNL     1     -36.065  42.071 -53.845  1.00  0.00     0.226 C 
HETATM    2  N   UNL     1     -36.412  40.824 -53.364  1.00  0.00    -0.327 N 
HETATM    3  O   UNL     1     -35.654  43.008 -53.160  1.00  0.00    -0.273 OA
HETATM    4  H   UNL     1     -36.973  40.237 -53.965  1.00  0.00     0.169 HD
ENDROOT
BRANCH   2   5
HETATM    5  C   UNL     1     -36.189  40.321 -52.064  1.00  0.00     0.035 A 
HETATM    6  C   UNL     1     -34.921  40.205 -51.484  1.00  0.00     0.042 A 
HETATM    7  C   UNL     1     -34.758  39.635 -50.209  1.00  0.00    -0.021 A 
HETATM    8  C   UNL     1     -35.891  39.193 -49.514  1.00  0.00     0.012 A 
HETATM    9  C   UNL     1     -37.159  39.310 -50.082  1.00  0.00     0.003 A 
HETATM   10  C   UNL     1     -37.305  39.863 -51.355  1.00  0.00     0.029 A 
BRANCH   7  11
HETATM   11  C   UNL     1     -33.438  39.473 -49.623  1.00  0.00     0.010 A 
HETATM   12  C   UNL     1     -32.182  39.994 -50.013  1.00  0.00     0.152 A 
HETATM   13  N   UNL     1     -31.186  39.607 -49.210  1.00  0.00    -0.187 NA
HETATM   14  N   UNL     1     -31.804  38.837 -48.299  1.00  0.00    -0.289 N 
HETATM   15  H   UNL     1     -31.243  38.418 -47.565  1.00  0.00     0.188 HD
HETATM   16  C   UNL     1     -33.148  38.723 -48.503  1.00  0.00     0.123 A 
ENDBRANCH   7  11
ENDBRANCH   2   5
BRANCH   1  17
HETATM   17  C   UNL     1     -36.109  42.222 -55.368  1.00  0.00     0.078 C 
HETATM   18  C   UNL     1     -35.071  41.270 -55.968  1.00  0.00     0.020 C 
BRANCH  17  19
HETATM   19  C   UNL     1     -37.475  41.996 -56.036  1.00  0.00     0.052 C 
BRANCH  19  20
HETATM   20  C   UNL     1     -37.505  41.453 -57.446  1.00  0.00    -0.057 A 
HETATM   21  C   UNL     1     -37.977  40.175 -57.769  1.00  0.00     0.007 A 
HETATM   22  C   UNL     1     -38.030  39.750 -59.100  1.00  0.00     0.001 A 
HETATM   23  C   UNL     1     -37.625  40.600 -60.126  1.00  0.00     0.000 A 
HETATM   24  C   UNL     1     -37.167  41.879 -59.824  1.00  0.00     0.001 A 
HETATM   25  C   UNL     1     -37.110  42.303 -58.495  1.00  0.00     0.007 A 
ENDBRANCH  19  20
ENDBRANCH  17  19
ENDBRANCH   1  17
TORSDOF 5
ENDMDL
