MODEL 1
REMARK VINA RESULT:      -8.5      0.000      0.000
REMARK  6 active torsions:
REMARK  status: ('A' for Active; 'I' for Inactive)
REMARK    1  A    between atoms: O_2  and  C_3 
REMARK    2  A    between atoms: C_6  and  C_7 
REMARK    3  A    between atoms: C_7  and  N_8 
REMARK       I    between atoms: N_8  and  C_9 
REMARK       I    between atoms: C_9  and  N_10 
REMARK    4  A    between atoms: N_10  and  C_11 
REMARK    5  A    between atoms: C_11  and  C_12 
REMARK    6  A    between atoms: C_13  and  C_14 
ROOT
HETATM    1  N   UNL     1     -43.522  55.350 -56.133  1.00  0.00    -0.339 N 
HETATM    2  C   UNL     1     -42.997  55.135 -54.903  1.00  0.00     0.316 C 
HETATM    3  N   UNL     1     -41.664  55.358 -54.772  1.00  0.00    -0.339 N 
HETATM    4  O   UNL     1     -43.722  54.726 -54.002  1.00  0.00    -0.247 OA
HETATM    5  H   UNL     1     -44.514  55.154 -56.169  1.00  0.00     0.164 HD
HETATM    6  H   UNL     1     -41.239  56.012 -55.411  1.00  0.00     0.164 HD
ENDROOT
BRANCH   3   7
HETATM    7  C   UNL     1     -40.955  55.086 -53.535  1.00  0.00     0.163 C 
BRANCH   7   8
HETATM    8  C   UNL     1     -40.474  53.652 -53.408  1.00  0.00    -0.029 A 
HETATM    9  C   UNL     1     -40.298  53.059 -52.138  1.00  0.00    -0.018 A 
HETATM   10  C   UNL     1     -39.900  51.716 -52.032  1.00  0.00     0.013 A 
HETATM   11  C   UNL     1     -39.671  50.951 -53.173  1.00  0.00     0.001 A 
HETATM   12  C   UNL     1     -39.848  51.519 -54.429  1.00  0.00     0.001 A 
HETATM   13  C   UNL     1     -40.249  52.852 -54.545  1.00  0.00     0.010 A 
BRANCH   9  14
HETATM   14  C   UNL     1     -40.552  53.785 -50.901  1.00  0.00    -0.018 A 
HETATM   15  C   UNL     1     -40.175  53.276 -49.674  1.00  0.00     0.061 A 
HETATM   16  S   UNL     1     -40.620  54.306 -48.382  1.00  0.00    -0.113 SA
HETATM   17  C   UNL     1     -41.349  55.425 -49.451  1.00  0.00     0.050 A 
HETATM   18  C   UNL     1     -41.247  55.026 -50.766  1.00  0.00     0.020 A 
ENDBRANCH   9  14
ENDBRANCH   7   8
ENDBRANCH   3   7
BRANCH   1  19
HETATM   19  C   UNL     1     -42.844  55.613 -57.383  1.00  0.00     0.162 C 
BRANCH  19  20
HETATM   20  C   UNL     1     -43.768  55.676 -58.574  1.00  0.00    -0.040 A 
HETATM   21  C   UNL     1     -44.083  54.500 -59.271  1.00  0.00     0.011 A 
HETATM   22  C   UNL     1     -44.999  54.512 -60.330  1.00  0.00     0.037 A 
HETATM   23  C   UNL     1     -45.626  55.701 -60.702  1.00  0.00     0.068 A 
HETATM   24  C   UNL     1     -45.316  56.875 -60.015  1.00  0.00     0.037 A 
HETATM   25  C   UNL     1     -44.403  56.865 -58.956  1.00  0.00     0.011 A 
BRANCH  23  26
HETATM   26  O   UNL     1     -46.545  55.849 -61.703  1.00  0.00    -0.356 OA
HETATM   27  C   UNL     1     -47.714  56.597 -61.396  1.00  0.00     0.210 C 
ENDBRANCH  23  26
ENDBRANCH  19  20
ENDBRANCH   1  19
TORSDOF 6
ENDMDL
MODEL 2
REMARK VINA RESULT:      -8.5      3.945      6.402
REMARK  6 active torsions:
REMARK  status: ('A' for Active; 'I' for Inactive)
REMARK    1  A    between atoms: O_2  and  C_3 
REMARK    2  A    between atoms: C_6  and  C_7 
REMARK    3  A    between atoms: C_7  and  N_8 
REMARK       I    between atoms: N_8  and  C_9 
REMARK       I    between atoms: C_9  and  N_10 
REMARK    4  A    between atoms: N_10  and  C_11 
REMARK    5  A    between atoms: C_11  and  C_12 
REMARK    6  A    between atoms: C_13  and  C_14 
ROOT
HETATM    1  N   UNL     1     -44.265  56.241 -54.751  1.00  0.00    -0.339 N 
HETATM    2  C   UNL     1     -43.797  55.060 -54.278  1.00  0.00     0.316 C 
HETATM    3  N   UNL     1     -43.658  54.965 -52.931  1.00  0.00    -0.339 N 
HETATM    4  O   UNL     1     -43.496  54.172 -55.070  1.00  0.00    -0.247 OA
HETATM    5  H   UNL     1     -44.333  56.254 -55.760  1.00  0.00     0.164 HD
HETATM    6  H   UNL     1     -44.244  55.556 -52.362  1.00  0.00     0.164 HD
ENDROOT
BRANCH   3   7
HETATM    7  C   UNL     1     -43.088  53.791 -52.296  1.00  0.00     0.163 C 
BRANCH   7   8
HETATM    8  C   UNL     1     -42.012  54.110 -51.274  1.00  0.00    -0.029 A 
HETATM    9  C   UNL     1     -40.743  53.493 -51.346  1.00  0.00    -0.018 A 
HETATM   10  C   UNL     1     -39.738  53.832 -50.425  1.00  0.00     0.013 A 
HETATM   11  C   UNL     1     -39.976  54.776 -49.428  1.00  0.00     0.001 A 
HETATM   12  C   UNL     1     -41.217  55.396 -49.351  1.00  0.00     0.001 A 
HETATM   13  C   UNL     1     -42.222  55.070 -50.266  1.00  0.00     0.010 A 
BRANCH   9  14
HETATM   14  C   UNL     1     -40.409  52.524 -52.380  1.00  0.00    -0.018 A 
HETATM   15  C   UNL     1     -39.890  51.283 -52.066  1.00  0.00     0.061 A 
HETATM   16  S   UNL     1     -39.553  50.352 -53.463  1.00  0.00    -0.113 SA
HETATM   17  C   UNL     1     -40.067  51.614 -54.497  1.00  0.00     0.050 A 
HETATM   18  C   UNL     1     -40.496  52.718 -53.793  1.00  0.00     0.020 A 
ENDBRANCH   9  14
ENDBRANCH   7   8
ENDBRANCH   3   7
BRANCH   1  19
HETATM   19  C   UNL     1     -44.473  57.488 -54.048  1.00  0.00     0.162 C 
BRANCH  19  20
HETATM   20  C   UNL     1     -43.212  58.072 -53.460  1.00  0.00    -0.040 A 
HETATM   21  C   UNL     1     -43.140  58.316 -52.081  1.00  0.00     0.011 A 
HETATM   22  C   UNL     1     -41.957  58.783 -51.492  1.00  0.00     0.037 A 
HETATM   23  C   UNL     1     -40.823  59.001 -52.273  1.00  0.00     0.068 A 
HETATM   24  C   UNL     1     -40.889  58.762 -53.646  1.00  0.00     0.037 A 
HETATM   25  C   UNL     1     -42.067  58.294 -54.235  1.00  0.00     0.011 A 
BRANCH  23  26
HETATM   26  O   UNL     1     -39.607  59.438 -51.826  1.00  0.00    -0.356 OA
HETATM   27  C   UNL     1     -39.456  59.592 -50.421  1.00  0.00     0.210 C 
ENDBRANCH  23  26
ENDBRANCH  19  20
ENDBRANCH   1  19
TORSDOF 6
ENDMDL
MODEL 3
REMARK VINA RESULT:      -8.4      1.380      1.953
REMARK  6 active torsions:
REMARK  status: ('A' for Active; 'I' for Inactive)
REMARK    1  A    between atoms: O_2  and  C_3 
REMARK    2  A    between atoms: C_6  and  C_7 
REMARK    3  A    between atoms: C_7  and  N_8 
REMARK       I    between atoms: N_8  and  C_9 
REMARK       I    between atoms: C_9  and  N_10 
REMARK    4  A    between atoms: N_10  and  C_11 
REMARK    5  A    between atoms: C_11  and  C_12 
REMARK    6  A    between atoms: C_13  and  C_14 
ROOT
HETATM    1  N   UNL     1     -42.989  57.467 -54.900  1.00  0.00    -0.339 N 
HETATM    2  C   UNL     1     -43.222  56.506 -53.975  1.00  0.00     0.316 C 
HETATM    3  N   UNL     1     -42.326  55.487 -53.929  1.00  0.00    -0.339 N 
HETATM    4  O   UNL     1     -44.222  56.580 -53.268  1.00  0.00    -0.247 OA
HETATM    5  H   UNL     1     -43.697  58.190 -54.893  1.00  0.00     0.164 HD
HETATM    6  H   UNL     1     -41.392  55.677 -54.256  1.00  0.00     0.164 HD
ENDROOT
BRANCH   3   7
HETATM    7  C   UNL     1     -42.500  54.347 -53.047  1.00  0.00     0.163 C 
BRANCH   7   8
HETATM    8  C   UNL     1     -41.402  53.306 -53.170  1.00  0.00    -0.029 A 
HETATM    9  C   UNL     1     -40.533  53.041 -52.088  1.00  0.00    -0.018 A 
HETATM   10  C   UNL     1     -39.553  52.041 -52.196  1.00  0.00     0.013 A 
HETATM   11  C   UNL     1     -39.421  51.297 -53.366  1.00  0.00     0.001 A 
HETATM   12  C   UNL     1     -40.275  51.541 -54.435  1.00  0.00     0.001 A 
HETATM   13  C   UNL     1     -41.256  52.530 -54.337  1.00  0.00     0.010 A 
BRANCH   9  14
HETATM   14  C   UNL     1     -40.632  53.752 -50.822  1.00  0.00    -0.018 A 
HETATM   15  C   UNL     1     -40.443  53.109 -49.615  1.00  0.00     0.061 A 
HETATM   16  S   UNL     1     -40.648  54.161 -48.281  1.00  0.00    -0.113 SA
HETATM   17  C   UNL     1     -41.024  55.478 -49.306  1.00  0.00     0.050 A 
HETATM   18  C   UNL     1     -40.984  55.126 -50.637  1.00  0.00     0.020 A 
ENDBRANCH   9  14
ENDBRANCH   7   8
ENDBRANCH   3   7
BRANCH   1  19
HETATM   19  C   UNL     1     -42.022  57.486 -55.975  1.00  0.00     0.162 C 
BRANCH  19  20
HETATM   20  C   UNL     1     -42.593  57.087 -57.314  1.00  0.00    -0.040 A 
HETATM   21  C   UNL     1     -42.529  57.984 -58.390  1.00  0.00     0.011 A 
HETATM   22  C   UNL     1     -42.977  57.616 -59.665  1.00  0.00     0.037 A 
HETATM   23  C   UNL     1     -43.487  56.337 -59.886  1.00  0.00     0.068 A 
HETATM   24  C   UNL     1     -43.556  55.440 -58.820  1.00  0.00     0.037 A 
HETATM   25  C   UNL     1     -43.107  55.805 -57.547  1.00  0.00     0.011 A 
BRANCH  23  26
HETATM   26  O   UNL     1     -43.943  55.845 -61.078  1.00  0.00    -0.356 OA
HETATM   27  C   UNL     1     -45.079  54.992 -61.029  1.00  0.00     0.210 C 
ENDBRANCH  23  26
ENDBRANCH  19  20
ENDBRANCH   1  19
TORSDOF 6
ENDMDL
MODEL 4
REMARK VINA RESULT:      -8.3      1.779      2.366
REMARK  6 active torsions:
REMARK  status: ('A' for Active; 'I' for Inactive)
REMARK    1  A    between atoms: O_2  and  C_3 
REMARK    2  A    between atoms: C_6  and  C_7 
REMARK    3  A    between atoms: C_7  and  N_8 
REMARK       I    between atoms: N_8  and  C_9 
REMARK       I    between atoms: C_9  and  N_10 
REMARK    4  A    between atoms: N_10  and  C_11 
REMARK    5  A    between atoms: C_11  and  C_12 
REMARK    6  A    between atoms: C_13  and  C_14 
ROOT
HETATM    1  N   UNL     1     -42.405  56.718 -57.581  1.00  0.00    -0.339 N 
HETATM    2  C   UNL     1     -42.620  56.284 -56.316  1.00  0.00     0.316 C 
HETATM    3  N   UNL     1     -42.909  54.965 -56.176  1.00  0.00    -0.339 N 
HETATM    4  O   UNL     1     -42.582  57.086 -55.390  1.00  0.00    -0.247 OA
HETATM    5  H   UNL     1     -42.208  57.710 -57.621  1.00  0.00     0.164 HD
HETATM    6  H   UNL     1     -42.571  54.338 -56.889  1.00  0.00     0.164 HD
ENDROOT
BRANCH   3   7
HETATM    7  C   UNL     1     -43.246  54.382 -54.889  1.00  0.00     0.163 C 
BRANCH   7   8
HETATM    8  C   UNL     1     -42.079  53.696 -54.204  1.00  0.00    -0.029 A 
HETATM    9  C   UNL     1     -41.633  54.127 -52.934  1.00  0.00    -0.018 A 
HETATM   10  C   UNL     1     -40.583  53.454 -52.286  1.00  0.00     0.013 A 
HETATM   11  C   UNL     1     -39.967  52.357 -52.883  1.00  0.00     0.001 A 
HETATM   12  C   UNL     1     -40.401  51.917 -54.128  1.00  0.00     0.001 A 
HETATM   13  C   UNL     1     -41.447  52.576 -54.778  1.00  0.00     0.010 A 
BRANCH   9  14
HETATM   14  C   UNL     1     -42.250  55.243 -52.232  1.00  0.00    -0.018 A 
HETATM   15  C   UNL     1     -41.677  56.499 -52.227  1.00  0.00     0.061 A 
HETATM   16  S   UNL     1     -42.583  57.619 -51.302  1.00  0.00    -0.113 SA
HETATM   17  C   UNL     1     -43.731  56.425 -50.876  1.00  0.00     0.050 A 
HETATM   18  C   UNL     1     -43.435  55.201 -51.434  1.00  0.00     0.020 A 
ENDBRANCH   9  14
ENDBRANCH   7   8
ENDBRANCH   3   7
BRANCH   1  19
HETATM   19  C   UNL     1     -42.611  56.024 -58.833  1.00  0.00     0.162 C 
BRANCH  19  20
HETATM   20  C   UNL     1     -44.043  56.039 -59.308  1.00  0.00    -0.040 A 
HETATM   21  C   UNL     1     -44.883  57.103 -58.945  1.00  0.00     0.011 A 
HETATM   22  C   UNL     1     -46.193  57.188 -59.434  1.00  0.00     0.037 A 
HETATM   23  C   UNL     1     -46.680  56.215 -60.306  1.00  0.00     0.068 A 
HETATM   24  C   UNL     1     -45.852  55.153 -60.670  1.00  0.00     0.037 A 
HETATM   25  C   UNL     1     -44.543  55.067 -60.184  1.00  0.00     0.011 A 
BRANCH  23  26
HETATM   26  O   UNL     1     -47.927  56.186 -60.866  1.00  0.00    -0.356 OA
HETATM   27  C   UNL     1     -48.127  56.972 -62.033  1.00  0.00     0.210 C 
ENDBRANCH  23  26
ENDBRANCH  19  20
ENDBRANCH   1  19
TORSDOF 6
ENDMDL
MODEL 5
REMARK VINA RESULT:      -8.2      3.245      8.886
REMARK  6 active torsions:
REMARK  status: ('A' for Active; 'I' for Inactive)
REMARK    1  A    between atoms: O_2  and  C_3 
REMARK    2  A    between atoms: C_6  and  C_7 
REMARK    3  A    between atoms: C_7  and  N_8 
REMARK       I    between atoms: N_8  and  C_9 
REMARK       I    between atoms: C_9  and  N_10 
REMARK    4  A    between atoms: N_10  and  C_11 
REMARK    5  A    between atoms: C_11  and  C_12 
REMARK    6  A    between atoms: C_13  and  C_14 
ROOT
HETATM    1  N   UNL     1     -41.603  55.545 -55.054  1.00  0.00    -0.339 N 
HETATM    2  C   UNL     1     -42.155  56.458 -55.888  1.00  0.00     0.316 C 
HETATM    3  N   UNL     1     -42.175  56.133 -57.206  1.00  0.00    -0.339 N 
HETATM    4  O   UNL     1     -42.566  57.520 -55.431  1.00  0.00    -0.247 OA
HETATM    5  H   UNL     1     -41.606  55.850 -54.090  1.00  0.00     0.164 HD
HETATM    6  H   UNL     1     -42.169  55.153 -57.442  1.00  0.00     0.164 HD
ENDROOT
BRANCH   3   7
HETATM    7  C   UNL     1     -42.658  57.054 -58.219  1.00  0.00     0.163 C 
BRANCH   7   8
HETATM    8  C   UNL     1     -43.868  56.544 -58.982  1.00  0.00    -0.029 A 
HETATM    9  C   UNL     1     -45.100  57.234 -58.926  1.00  0.00    -0.018 A 
HETATM   10  C   UNL     1     -46.199  56.782 -59.675  1.00  0.00     0.013 A 
HETATM   11  C   UNL     1     -46.094  55.650 -60.479  1.00  0.00     0.001 A 
HETATM   12  C   UNL     1     -44.886  54.966 -60.550  1.00  0.00     0.001 A 
HETATM   13  C   UNL     1     -43.785  55.411 -59.814  1.00  0.00     0.010 A 
BRANCH   9  14
HETATM   14  C   UNL     1     -45.276  58.444 -58.136  1.00  0.00    -0.018 A 
HETATM   15  C   UNL     1     -45.026  59.695 -58.664  1.00  0.00     0.061 A 
HETATM   16  S   UNL     1     -45.277  60.942 -57.519  1.00  0.00    -0.113 SA
HETATM   17  C   UNL     1     -45.692  59.816 -56.300  1.00  0.00     0.050 A 
HETATM   18  C   UNL     1     -45.649  58.518 -56.758  1.00  0.00     0.020 A 
ENDBRANCH   9  14
ENDBRANCH   7   8
ENDBRANCH   3   7
BRANCH   1  19
HETATM   19  C   UNL     1     -40.865  54.343 -55.375  1.00  0.00     0.162 C 
BRANCH  19  20
HETATM   20  C   UNL     1     -40.598  53.457 -54.183  1.00  0.00    -0.040 A 
HETATM   21  C   UNL     1     -40.141  52.146 -54.382  1.00  0.00     0.011 A 
HETATM   22  C   UNL     1     -39.807  51.326 -53.297  1.00  0.00     0.037 A 
HETATM   23  C   UNL     1     -39.914  51.809 -51.993  1.00  0.00     0.068 A 
HETATM   24  C   UNL     1     -40.371  53.111 -51.787  1.00  0.00     0.037 A 
HETATM   25  C   UNL     1     -40.702  53.932 -52.869  1.00  0.00     0.011 A 
BRANCH  23  26
HETATM   26  O   UNL     1     -39.609  51.123 -50.851  1.00  0.00    -0.356 OA
HETATM   27  C   UNL     1     -39.598  49.704 -50.937  1.00  0.00     0.210 C 
ENDBRANCH  23  26
ENDBRANCH  19  20
ENDBRANCH   1  19
TORSDOF 6
ENDMDL
MODEL 6
REMARK VINA RESULT:      -8.1      3.512      8.966
REMARK  6 active torsions:
REMARK  status: ('A' for Active; 'I' for Inactive)
REMARK    1  A    between atoms: O_2  and  C_3 
REMARK    2  A    between atoms: C_6  and  C_7 
REMARK    3  A    between atoms: C_7  and  N_8 
REMARK       I    between atoms: N_8  and  C_9 
REMARK       I    between atoms: C_9  and  N_10 
REMARK    4  A    between atoms: N_10  and  C_11 
REMARK    5  A    between atoms: C_11  and  C_12 
REMARK    6  A    between atoms: C_13  and  C_14 
ROOT
HETATM    1  N   UNL     1     -42.249  55.722 -53.434  1.00  0.00    -0.339 N 
HETATM    2  C   UNL     1     -43.188  56.389 -54.148  1.00  0.00     0.316 C 
HETATM    3  N   UNL     1     -42.944  56.530 -55.476  1.00  0.00    -0.339 N 
HETATM    4  O   UNL     1     -44.166  56.852 -53.571  1.00  0.00    -0.247 OA
HETATM    5  H   UNL     1     -42.481  55.661 -52.452  1.00  0.00     0.164 HD
HETATM    6  H   UNL     1     -42.352  55.842 -55.914  1.00  0.00     0.164 HD
ENDROOT
BRANCH   3   7
HETATM    7  C   UNL     1     -43.821  57.296 -56.344  1.00  0.00     0.163 C 
BRANCH   7   8
HETATM    8  C   UNL     1     -43.084  58.214 -57.302  1.00  0.00    -0.029 A 
HETATM    9  C   UNL     1     -43.149  58.003 -58.697  1.00  0.00    -0.018 A 
HETATM   10  C   UNL     1     -42.504  58.888 -59.578  1.00  0.00     0.013 A 
HETATM   11  C   UNL     1     -41.792  59.981 -59.091  1.00  0.00     0.001 A 
HETATM   12  C   UNL     1     -41.727  60.206 -57.722  1.00  0.00     0.001 A 
HETATM   13  C   UNL     1     -42.369  59.335 -56.838  1.00  0.00     0.010 A 
BRANCH   9  14
HETATM   14  C   UNL     1     -43.902  56.903 -59.282  1.00  0.00    -0.018 A 
HETATM   15  C   UNL     1     -45.182  57.081 -59.768  1.00  0.00     0.061 A 
HETATM   16  S   UNL     1     -45.855  55.626 -60.368  1.00  0.00    -0.113 SA
HETATM   17  C   UNL     1     -44.452  54.740 -59.952  1.00  0.00     0.050 A 
HETATM   18  C   UNL     1     -43.487  55.538 -59.377  1.00  0.00     0.020 A 
ENDBRANCH   9  14
ENDBRANCH   7   8
ENDBRANCH   3   7
BRANCH   1  19
HETATM   19  C   UNL     1     -40.931  55.285 -53.841  1.00  0.00     0.162 C 
BRANCH  19  20
HETATM   20  C   UNL     1     -40.619  53.859 -53.458  1.00  0.00    -0.040 A 
HETATM   21  C   UNL     1     -40.399  52.905 -54.462  1.00  0.00     0.011 A 
HETATM   22  C   UNL     1     -40.028  51.592 -54.142  1.00  0.00     0.037 A 
HETATM   23  C   UNL     1     -39.859  51.217 -52.809  1.00  0.00     0.068 A 
HETATM   24  C   UNL     1     -40.079  52.161 -51.805  1.00  0.00     0.037 A 
HETATM   25  C   UNL     1     -40.446  53.472 -52.124  1.00  0.00     0.011 A 
BRANCH  23  26
HETATM   26  O   UNL     1     -39.488  49.980 -52.361  1.00  0.00    -0.356 OA
HETATM   27  C   UNL     1     -39.480  49.783 -50.953  1.00  0.00     0.210 C 
ENDBRANCH  23  26
ENDBRANCH  19  20
ENDBRANCH   1  19
TORSDOF 6
ENDMDL
MODEL 7
REMARK VINA RESULT:      -8.1      3.655      9.285
REMARK  6 active torsions:
REMARK  status: ('A' for Active; 'I' for Inactive)
REMARK    1  A    between atoms: O_2  and  C_3 
REMARK    2  A    between atoms: C_6  and  C_7 
REMARK    3  A    between atoms: C_7  and  N_8 
REMARK       I    between atoms: N_8  and  C_9 
REMARK       I    between atoms: C_9  and  N_10 
REMARK    4  A    between atoms: N_10  and  C_11 
REMARK    5  A    between atoms: C_11  and  C_12 
REMARK    6  A    between atoms: C_13  and  C_14 
ROOT
HETATM    1  N   UNL     1     -41.595  54.888 -55.861  1.00  0.00    -0.339 N 
HETATM    2  C   UNL     1     -42.483  55.635 -56.560  1.00  0.00     0.316 C 
HETATM    3  N   UNL     1     -42.605  56.934 -56.181  1.00  0.00    -0.339 N 
HETATM    4  O   UNL     1     -43.142  55.110 -57.451  1.00  0.00    -0.247 OA
HETATM    5  H   UNL     1     -41.559  53.930 -56.181  1.00  0.00     0.164 HD
HETATM    6  H   UNL     1     -41.812  57.360 -55.727  1.00  0.00     0.164 HD
ENDROOT
BRANCH   3   7
HETATM    7  C   UNL     1     -43.579  57.824 -56.785  1.00  0.00     0.163 C 
BRANCH   7   8
HETATM    8  C   UNL     1     -43.000  58.722 -57.864  1.00  0.00    -0.029 A 
HETATM    9  C   UNL     1     -43.436  58.612 -59.204  1.00  0.00    -0.018 A 
HETATM   10  C   UNL     1     -42.931  59.480 -60.186  1.00  0.00     0.013 A 
HETATM   11  C   UNL     1     -41.995  60.458 -59.857  1.00  0.00     0.001 A 
HETATM   12  C   UNL     1     -41.565  60.583 -58.542  1.00  0.00     0.001 A 
HETATM   13  C   UNL     1     -42.065  59.728 -57.557  1.00  0.00     0.010 A 
BRANCH   9  14
HETATM   14  C   UNL     1     -44.437  57.638 -59.617  1.00  0.00    -0.018 A 
HETATM   15  C   UNL     1     -44.098  56.524 -60.359  1.00  0.00     0.061 A 
HETATM   16  S   UNL     1     -45.461  55.562 -60.742  1.00  0.00    -0.113 SA
HETATM   17  C   UNL     1     -46.519  56.646 -59.946  1.00  0.00     0.050 A 
HETATM   18  C   UNL     1     -45.846  57.713 -59.393  1.00  0.00     0.020 A 
ENDBRANCH   9  14
ENDBRANCH   7   8
ENDBRANCH   3   7
BRANCH   1  19
HETATM   19  C   UNL     1     -40.878  55.218 -54.648  1.00  0.00     0.162 C 
BRANCH  19  20
HETATM   20  C   UNL     1     -40.577  54.023 -53.777  1.00  0.00    -0.040 A 
HETATM   21  C   UNL     1     -40.244  52.797 -54.373  1.00  0.00     0.011 A 
HETATM   22  C   UNL     1     -39.881  51.691 -53.593  1.00  0.00     0.037 A 
HETATM   23  C   UNL     1     -39.833  51.798 -52.204  1.00  0.00     0.068 A 
HETATM   24  C   UNL     1     -40.166  53.013 -51.604  1.00  0.00     0.037 A 
HETATM   25  C   UNL     1     -40.526  54.119 -52.380  1.00  0.00     0.011 A 
BRANCH  23  26
HETATM   26  O   UNL     1     -39.483  50.806 -51.330  1.00  0.00    -0.356 OA
HETATM   27  C   UNL     1     -39.557  49.470 -51.811  1.00  0.00     0.210 C 
ENDBRANCH  23  26
ENDBRANCH  19  20
ENDBRANCH   1  19
TORSDOF 6
ENDMDL
MODEL 8
REMARK VINA RESULT:      -8.0      3.619      9.219
REMARK  6 active torsions:
REMARK  status: ('A' for Active; 'I' for Inactive)
REMARK    1  A    between atoms: O_2  and  C_3 
REMARK    2  A    between atoms: C_6  and  C_7 
REMARK    3  A    between atoms: C_7  and  N_8 
REMARK       I    between atoms: N_8  and  C_9 
REMARK       I    between atoms: C_9  and  N_10 
REMARK    4  A    between atoms: N_10  and  C_11 
REMARK    5  A    between atoms: C_11  and  C_12 
REMARK    6  A    between atoms: C_13  and  C_14 
ROOT
HETATM    1  N   UNL     1     -41.031  55.111 -54.631  1.00  0.00    -0.339 N 
HETATM    2  C   UNL     1     -41.757  56.058 -55.273  1.00  0.00     0.316 C 
HETATM    3  N   UNL     1     -41.992  55.842 -56.592  1.00  0.00    -0.339 N 
HETATM    4  O   UNL     1     -42.124  57.054 -54.658  1.00  0.00    -0.247 OA
HETATM    5  H   UNL     1     -40.879  55.335 -53.656  1.00  0.00     0.164 HD
HETATM    6  H   UNL     1     -41.986  54.887 -56.914  1.00  0.00     0.164 HD
ENDROOT
BRANCH   3   7
HETATM    7  C   UNL     1     -42.681  56.815 -57.421  1.00  0.00     0.163 C 
BRANCH   7   8
HETATM    8  C   UNL     1     -43.460  56.198 -58.569  1.00  0.00    -0.029 A 
HETATM    9  C   UNL     1     -43.750  56.949 -59.730  1.00  0.00    -0.018 A 
HETATM   10  C   UNL     1     -44.428  56.354 -60.807  1.00  0.00     0.013 A 
HETATM   11  C   UNL     1     -44.826  55.021 -60.747  1.00  0.00     0.001 A 
HETATM   12  C   UNL     1     -44.539  54.268 -59.615  1.00  0.00     0.001 A 
HETATM   13  C   UNL     1     -43.860  54.849 -58.540  1.00  0.00     0.010 A 
BRANCH   9  14
HETATM   14  C   UNL     1     -43.337  58.337 -59.880  1.00  0.00    -0.018 A 
HETATM   15  C   UNL     1     -44.137  59.379 -59.456  1.00  0.00     0.061 A 
HETATM   16  S   UNL     1     -43.435  60.907 -59.780  1.00  0.00    -0.113 SA
HETATM   17  C   UNL     1     -42.071  60.186 -60.518  1.00  0.00     0.050 A 
HETATM   18  C   UNL     1     -42.144  58.810 -60.510  1.00  0.00     0.020 A 
ENDBRANCH   9  14
ENDBRANCH   7   8
ENDBRANCH   3   7
BRANCH   1  19
HETATM   19  C   UNL     1     -40.312  53.982 -55.181  1.00  0.00     0.162 C 
BRANCH  19  20
HETATM   20  C   UNL     1     -40.056  52.880 -54.182  1.00  0.00    -0.040 A 
HETATM   21  C   UNL     1     -40.055  53.174 -52.810  1.00  0.00     0.011 A 
HETATM   22  C   UNL     1     -39.901  52.161 -51.855  1.00  0.00     0.037 A 
HETATM   23  C   UNL     1     -39.757  50.834 -52.258  1.00  0.00     0.068 A 
HETATM   24  C   UNL     1     -39.755  50.534 -53.620  1.00  0.00     0.037 A 
HETATM   25  C   UNL     1     -39.911  51.544 -54.575  1.00  0.00     0.011 A 
BRANCH  23  26
HETATM   26  O   UNL     1     -39.613  49.752 -51.434  1.00  0.00    -0.356 OA
HETATM   27  C   UNL     1     -40.007  49.920 -50.078  1.00  0.00     0.210 C 
ENDBRANCH  23  26
ENDBRANCH  19  20
ENDBRANCH   1  19
TORSDOF 6
ENDMDL
MODEL 9
REMARK VINA RESULT:      -8.0     14.503     16.493
REMARK  6 active torsions:
REMARK  status: ('A' for Active; 'I' for Inactive)
REMARK    1  A    between atoms: O_2  and  C_3 
REMARK    2  A    between atoms: C_6  and  C_7 
REMARK    3  A    between atoms: C_7  and  N_8 
REMARK       I    between atoms: N_8  and  C_9 
REMARK       I    between atoms: C_9  and  N_10 
REMARK    4  A    between atoms: N_10  and  C_11 
REMARK    5  A    between atoms: C_11  and  C_12 
REMARK    6  A    between atoms: C_13  and  C_14 
ROOT
HETATM    1  N   UNL     1     -37.393  42.208 -55.406  1.00  0.00    -0.339 N 
HETATM    2  C   UNL     1     -36.249  42.079 -54.694  1.00  0.00     0.316 C 
HETATM    3  N   UNL     1     -35.758  40.819 -54.568  1.00  0.00    -0.339 N 
HETATM    4  O   UNL     1     -35.744  43.072 -54.180  1.00  0.00    -0.247 OA
HETATM    5  H   UNL     1     -37.714  43.166 -55.452  1.00  0.00     0.164 HD
HETATM    6  H   UNL     1     -36.000  40.155 -55.287  1.00  0.00     0.164 HD
ENDROOT
BRANCH   3   7
HETATM    7  C   UNL     1     -34.589  40.524 -53.761  1.00  0.00     0.163 C 
BRANCH   7   8
HETATM    8  C   UNL     1     -33.348  40.204 -54.575  1.00  0.00    -0.029 A 
HETATM    9  C   UNL     1     -32.226  39.596 -53.971  1.00  0.00    -0.018 A 
HETATM   10  C   UNL     1     -31.101  39.259 -54.744  1.00  0.00     0.013 A 
HETATM   11  C   UNL     1     -31.075  39.520 -56.111  1.00  0.00     0.001 A 
HETATM   12  C   UNL     1     -32.175  40.111 -56.720  1.00  0.00     0.001 A 
HETATM   13  C   UNL     1     -33.300  40.445 -55.962  1.00  0.00     0.010 A 
BRANCH   9  14
HETATM   14  C   UNL     1     -32.193  39.260 -52.555  1.00  0.00    -0.018 A 
HETATM   15  C   UNL     1     -32.602  38.023 -52.096  1.00  0.00     0.061 A 
HETATM   16  S   UNL     1     -32.497  37.899 -50.392  1.00  0.00    -0.113 SA
HETATM   17  C   UNL     1     -31.934  39.508 -50.253  1.00  0.00     0.050 A 
HETATM   18  C   UNL     1     -31.820  40.125 -51.479  1.00  0.00     0.020 A 
ENDBRANCH   9  14
ENDBRANCH   7   8
ENDBRANCH   3   7
BRANCH   1  19
HETATM   19  C   UNL     1     -38.277  41.180 -55.910  1.00  0.00     0.162 C 
BRANCH  19  20
HETATM   20  C   UNL     1     -38.009  40.799 -57.346  1.00  0.00    -0.040 A 
HETATM   21  C   UNL     1     -37.475  41.750 -58.228  1.00  0.00     0.011 A 
HETATM   22  C   UNL     1     -37.141  41.407 -59.544  1.00  0.00     0.037 A 
HETATM   23  C   UNL     1     -37.323  40.100 -59.996  1.00  0.00     0.068 A 
HETATM   24  C   UNL     1     -37.856  39.149 -59.125  1.00  0.00     0.037 A 
HETATM   25  C   UNL     1     -38.189  39.490 -57.810  1.00  0.00     0.011 A 
BRANCH  23  26
HETATM   26  O   UNL     1     -37.027  39.630 -61.245  1.00  0.00    -0.356 OA
HETATM   27  C   UNL     1     -36.094  38.560 -61.324  1.00  0.00     0.210 C 
ENDBRANCH  23  26
ENDBRANCH  19  20
ENDBRANCH   1  19
TORSDOF 6
ENDMDL
MODEL 10
REMARK VINA RESULT:      -7.8      4.085      7.543
REMARK  6 active torsions:
REMARK  status: ('A' for Active; 'I' for Inactive)
REMARK    1  A    between atoms: O_2  and  C_3 
REMARK    2  A    between atoms: C_6  and  C_7 
REMARK    3  A    between atoms: C_7  and  N_8 
REMARK       I    between atoms: N_8  and  C_9 
REMARK       I    between atoms: C_9  and  N_10 
REMARK    4  A    between atoms: N_10  and  C_11 
REMARK    5  A    between atoms: C_11  and  C_12 
REMARK    6  A    between atoms: C_13  and  C_14 
ROOT
HETATM    1  N   UNL     1     -42.975  55.614 -55.360  1.00  0.00    -0.339 N 
HETATM    2  C   UNL     1     -42.639  56.924 -55.289  1.00  0.00     0.316 C 
HETATM    3  N   UNL     1     -42.566  57.459 -54.043  1.00  0.00    -0.339 N 
HETATM    4  O   UNL     1     -42.456  57.555 -56.325  1.00  0.00    -0.247 OA
HETATM    5  H   UNL     1     -43.025  55.278 -56.312  1.00  0.00     0.164 HD
HETATM    6  H   UNL     1     -42.369  56.831 -53.280  1.00  0.00     0.164 HD
ENDROOT
BRANCH   3   7
HETATM    7  C   UNL     1     -42.301  58.870 -53.824  1.00  0.00     0.163 C 
BRANCH   7   8
HETATM    8  C   UNL     1     -41.487  59.152 -52.574  1.00  0.00    -0.029 A 
HETATM    9  C   UNL     1     -42.117  59.588 -51.387  1.00  0.00    -0.018 A 
HETATM   10  C   UNL     1     -41.362  59.800 -50.221  1.00  0.00     0.013 A 
HETATM   11  C   UNL     1     -39.985  59.585 -50.218  1.00  0.00     0.001 A 
HETATM   12  C   UNL     1     -39.354  59.148 -51.376  1.00  0.00     0.001 A 
HETATM   13  C   UNL     1     -40.097  58.930 -52.539  1.00  0.00     0.010 A 
BRANCH   9  14
HETATM   14  C   UNL     1     -43.555  59.800 -51.304  1.00  0.00    -0.018 A 
HETATM   15  C   UNL     1     -44.107  61.061 -51.411  1.00  0.00     0.061 A 
HETATM   16  S   UNL     1     -45.811  61.038 -51.244  1.00  0.00    -0.113 SA
HETATM   17  C   UNL     1     -45.819  59.346 -50.995  1.00  0.00     0.050 A 
HETATM   18  C   UNL     1     -44.552  58.808 -51.047  1.00  0.00     0.020 A 
ENDBRANCH   9  14
ENDBRANCH   7   8
ENDBRANCH   3   7
BRANCH   1  19
HETATM   19  C   UNL     1     -43.446  54.734 -54.313  1.00  0.00     0.162 C 
BRANCH  19  20
HETATM   20  C   UNL     1     -42.356  53.901 -53.683  1.00  0.00    -0.040 A 
HETATM   21  C   UNL     1     -41.525  53.118 -54.497  1.00  0.00     0.011 A 
HETATM   22  C   UNL     1     -40.454  52.396 -53.953  1.00  0.00     0.037 A 
HETATM   23  C   UNL     1     -40.190  52.458 -52.585  1.00  0.00     0.068 A 
HETATM   24  C   UNL     1     -41.015  53.233 -51.769  1.00  0.00     0.037 A 
HETATM   25  C   UNL     1     -42.082  53.956 -52.310  1.00  0.00     0.011 A 
BRANCH  23  26
HETATM   26  O   UNL     1     -39.175  51.818 -51.931  1.00  0.00    -0.356 OA
HETATM   27  C   UNL     1     -39.476  50.554 -51.354  1.00  0.00     0.210 C 
ENDBRANCH  23  26
ENDBRANCH  19  20
ENDBRANCH   1  19
TORSDOF 6
ENDMDL
