MODEL 1
REMARK VINA RESULT:      -9.3      0.000      0.000
REMARK  5 active torsions:
REMARK  status: ('A' for Active; 'I' for Inactive)
REMARK    1  A    between atoms: C_4  and  O_5 
REMARK    2  A    between atoms: O_5  and  C_6 
REMARK    3  A    between atoms: C_6  and  C_7 
REMARK       I    between atoms: C_7  and  N_8 
REMARK    4  A    between atoms: N_8  and  C_9 
REMARK    5  A    between atoms: C_11  and  C_12 
ROOT
HETATM    1  C   UNL     1     -41.824  57.133 -52.462  1.00  0.00     0.035 A 
HETATM    2  C   UNL     1     -41.452  55.811 -52.734  1.00  0.00     0.045 A 
HETATM    3  C   UNL     1     -40.991  54.962 -51.713  1.00  0.00     0.019 A 
HETATM    4  C   UNL     1     -40.913  55.461 -50.405  1.00  0.00     0.016 A 
HETATM    5  C   UNL     1     -41.287  56.773 -50.122  1.00  0.00     0.003 A 
HETATM    6  C   UNL     1     -41.740  57.604 -51.147  1.00  0.00     0.029 A 
ENDROOT
BRANCH   1   7
HETATM    7  N   UNL     1     -42.292  58.034 -53.436  1.00  0.00    -0.325 N 
HETATM    8  C   UNL     1     -41.628  59.115 -53.991  1.00  0.00     0.251 C 
HETATM    9  O   UNL     1     -40.496  59.501 -53.712  1.00  0.00    -0.270 OA
HETATM   10  H   UNL     1     -43.256  57.924 -53.741  1.00  0.00     0.169 HD
BRANCH   8  11
HETATM   11  C   UNL     1     -42.441  59.805 -55.099  1.00  0.00     0.217 C 
HETATM   12  C   UNL     1     -42.950  61.143 -54.574  1.00  0.00     0.050 C 
BRANCH  11  13
HETATM   13  O   UNL     1     -41.625  60.087 -56.247  1.00  0.00    -0.337 OA
BRANCH  13  14
HETATM   14  C   UNL     1     -41.973  59.342 -57.341  1.00  0.00     0.070 A 
HETATM   15  C   UNL     1     -41.827  59.946 -58.588  1.00  0.00     0.043 A 
HETATM   16  C   UNL     1     -42.157  59.244 -59.754  1.00  0.00    -0.059 A 
HETATM   17  C   UNL     1     -42.013  59.883 -61.104  1.00  0.00     0.048 C 
HETATM   18  C   UNL     1     -42.596  57.918 -59.649  1.00  0.00     0.013 A 
HETATM   19  C   UNL     1     -42.719  57.296 -58.397  1.00  0.00    -0.059 A 
HETATM   20  C   UNL     1     -42.395  58.015 -57.241  1.00  0.00     0.043 A 
HETATM   21  C   UNL     1     -43.163  55.865 -58.316  1.00  0.00     0.048 C 
ENDBRANCH  13  14
ENDBRANCH  11  13
ENDBRANCH   8  11
ENDBRANCH   1   7
BRANCH   3  22
HETATM   22  C   UNL     1     -40.589  53.582 -51.980  1.00  0.00     0.181 A 
HETATM   23  O   UNL     1     -40.621  53.173 -53.290  1.00  0.00    -0.289 OA
HETATM   24  C   UNL     1     -40.205  51.876 -53.243  1.00  0.00     0.106 A 
HETATM   25  C   UNL     1     -39.942  51.563 -51.920  1.00  0.00     0.093 A 
HETATM   26  C   UNL     1     -40.059  50.999 -54.311  1.00  0.00     0.040 A 
HETATM   27  N   UNL     1     -40.195  52.652 -51.125  1.00  0.00    -0.221 NA
HETATM   28  C   UNL     1     -39.489  50.275 -51.607  1.00  0.00     0.034 A 
HETATM   29  C   UNL     1     -39.325  49.358 -52.657  1.00  0.00     0.002 A 
HETATM   30  C   UNL     1     -39.606  49.715 -53.982  1.00  0.00     0.003 A 
ENDBRANCH   3  22
TORSDOF 5
ENDMDL
MODEL 2
REMARK VINA RESULT:      -8.7      2.779      9.941
REMARK  5 active torsions:
REMARK  status: ('A' for Active; 'I' for Inactive)
REMARK    1  A    between atoms: C_4  and  O_5 
REMARK    2  A    between atoms: O_5  and  C_6 
REMARK    3  A    between atoms: C_6  and  C_7 
REMARK       I    between atoms: C_7  and  N_8 
REMARK    4  A    between atoms: N_8  and  C_9 
REMARK    5  A    between atoms: C_11  and  C_12 
ROOT
HETATM    1  C   UNL     1     -42.884  56.808 -58.207  1.00  0.00     0.035 A 
HETATM    2  C   UNL     1     -42.237  58.014 -58.497  1.00  0.00     0.045 A 
HETATM    3  C   UNL     1     -42.610  58.788 -59.610  1.00  0.00     0.019 A 
HETATM    4  C   UNL     1     -43.652  58.332 -60.429  1.00  0.00     0.016 A 
HETATM    5  C   UNL     1     -44.308  57.136 -60.145  1.00  0.00     0.003 A 
HETATM    6  C   UNL     1     -43.924  56.379 -59.038  1.00  0.00     0.029 A 
ENDROOT
BRANCH   1   7
HETATM    7  N   UNL     1     -42.560  55.986 -57.111  1.00  0.00    -0.325 N 
HETATM    8  C   UNL     1     -42.614  56.298 -55.762  1.00  0.00     0.251 C 
HETATM    9  O   UNL     1     -42.941  57.376 -55.273  1.00  0.00    -0.270 OA
HETATM   10  H   UNL     1     -42.185  55.064 -57.320  1.00  0.00     0.169 HD
BRANCH   8  11
HETATM   11  C   UNL     1     -42.271  55.100 -54.862  1.00  0.00     0.217 C 
HETATM   12  C   UNL     1     -43.241  53.964 -55.165  1.00  0.00     0.050 C 
BRANCH  11  13
HETATM   13  O   UNL     1     -40.949  54.607 -55.130  1.00  0.00    -0.337 OA
BRANCH  13  14
HETATM   14  C   UNL     1     -40.547  53.652 -54.236  1.00  0.00     0.070 A 
HETATM   15  C   UNL     1     -40.524  54.016 -52.891  1.00  0.00     0.043 A 
HETATM   16  C   UNL     1     -40.129  53.091 -51.918  1.00  0.00    -0.059 A 
HETATM   17  C   UNL     1     -40.092  53.468 -50.467  1.00  0.00     0.048 C 
HETATM   18  C   UNL     1     -39.795  51.788 -52.312  1.00  0.00     0.013 A 
HETATM   19  C   UNL     1     -39.842  51.409 -53.662  1.00  0.00    -0.059 A 
HETATM   20  C   UNL     1     -40.230  52.349 -54.624  1.00  0.00     0.043 A 
HETATM   21  C   UNL     1     -39.509  49.998 -54.052  1.00  0.00     0.048 C 
ENDBRANCH  13  14
ENDBRANCH  11  13
ENDBRANCH   8  11
ENDBRANCH   1   7
BRANCH   3  22
HETATM   22  C   UNL     1     -41.938  60.046 -59.936  1.00  0.00     0.181 A 
HETATM   23  O   UNL     1     -41.403  60.749 -58.884  1.00  0.00    -0.289 OA
HETATM   24  C   UNL     1     -40.853  61.850 -59.468  1.00  0.00     0.106 A 
HETATM   25  C   UNL     1     -41.077  61.763 -60.832  1.00  0.00     0.093 A 
HETATM   26  C   UNL     1     -40.181  62.890 -58.839  1.00  0.00     0.040 A 
HETATM   27  N   UNL     1     -41.773  60.617 -61.118  1.00  0.00    -0.221 NA
HETATM   28  C   UNL     1     -40.597  62.784 -61.663  1.00  0.00     0.034 A 
HETATM   29  C   UNL     1     -39.909  63.853 -61.067  1.00  0.00     0.002 A 
HETATM   30  C   UNL     1     -39.707  63.903 -59.682  1.00  0.00     0.003 A 
ENDBRANCH   3  22
TORSDOF 5
ENDMDL
MODEL 3
REMARK VINA RESULT:      -8.6      2.806      9.834
REMARK  5 active torsions:
REMARK  status: ('A' for Active; 'I' for Inactive)
REMARK    1  A    between atoms: C_4  and  O_5 
REMARK    2  A    between atoms: O_5  and  C_6 
REMARK    3  A    between atoms: C_6  and  C_7 
REMARK       I    between atoms: C_7  and  N_8 
REMARK    4  A    between atoms: N_8  and  C_9 
REMARK    5  A    between atoms: C_11  and  C_12 
ROOT
HETATM    1  C   UNL     1     -43.049  57.633 -57.568  1.00  0.00     0.035 A 
HETATM    2  C   UNL     1     -42.159  58.668 -57.874  1.00  0.00     0.045 A 
HETATM    3  C   UNL     1     -42.524  59.704 -58.752  1.00  0.00     0.019 A 
HETATM    4  C   UNL     1     -43.806  59.686 -59.320  1.00  0.00     0.016 A 
HETATM    5  C   UNL     1     -44.703  58.663 -59.017  1.00  0.00     0.003 A 
HETATM    6  C   UNL     1     -44.324  57.642 -58.145  1.00  0.00     0.029 A 
ENDROOT
BRANCH   1   7
HETATM    7  N   UNL     1     -42.748  56.568 -56.699  1.00  0.00    -0.325 N 
HETATM    8  C   UNL     1     -42.331  56.633 -55.379  1.00  0.00     0.251 C 
HETATM    9  O   UNL     1     -42.126  57.652 -54.726  1.00  0.00    -0.270 OA
HETATM   10  H   UNL     1     -42.783  55.630 -57.089  1.00  0.00     0.169 HD
BRANCH   8  11
HETATM   11  C   UNL     1     -42.193  55.245 -54.732  1.00  0.00     0.217 C 
HETATM   12  C   UNL     1     -43.185  54.295 -55.393  1.00  0.00     0.050 C 
BRANCH  11  13
HETATM   13  O   UNL     1     -40.883  54.698 -54.942  1.00  0.00    -0.337 OA
BRANCH  13  14
HETATM   14  C   UNL     1     -40.566  53.716 -54.043  1.00  0.00     0.070 A 
HETATM   15  C   UNL     1     -40.219  52.471 -54.565  1.00  0.00     0.043 A 
HETATM   16  C   UNL     1     -39.878  51.418 -53.708  1.00  0.00    -0.059 A 
HETATM   17  C   UNL     1     -39.509  50.070 -54.252  1.00  0.00     0.048 C 
HETATM   18  C   UNL     1     -39.853  51.647 -52.325  1.00  0.00     0.013 A 
HETATM   19  C   UNL     1     -40.176  52.905 -51.796  1.00  0.00    -0.059 A 
HETATM   20  C   UNL     1     -40.525  53.944 -52.667  1.00  0.00     0.043 A 
HETATM   21  C   UNL     1     -40.112  53.130 -50.314  1.00  0.00     0.048 C 
ENDBRANCH  13  14
ENDBRANCH  11  13
ENDBRANCH   8  11
ENDBRANCH   1   7
BRANCH   3  22
HETATM   22  C   UNL     1     -41.604  60.788 -59.091  1.00  0.00     0.181 A 
HETATM   23  O   UNL     1     -41.552  61.162 -60.412  1.00  0.00    -0.289 OA
HETATM   24  C   UNL     1     -40.635  62.169 -60.436  1.00  0.00     0.106 A 
HETATM   25  C   UNL     1     -40.179  62.359 -59.142  1.00  0.00     0.093 A 
HETATM   26  C   UNL     1     -40.211  62.896 -61.541  1.00  0.00     0.040 A 
HETATM   27  N   UNL     1     -40.797  61.472 -58.296  1.00  0.00    -0.221 NA
HETATM   28  C   UNL     1     -39.225  63.354 -58.899  1.00  0.00     0.034 A 
HETATM   29  C   UNL     1     -38.771  64.115 -59.989  1.00  0.00     0.002 A 
HETATM   30  C   UNL     1     -39.255  63.887 -61.284  1.00  0.00     0.003 A 
ENDBRANCH   3  22
TORSDOF 5
ENDMDL
MODEL 4
REMARK VINA RESULT:      -8.6      2.505      8.150
REMARK  5 active torsions:
REMARK  status: ('A' for Active; 'I' for Inactive)
REMARK    1  A    between atoms: C_4  and  O_5 
REMARK    2  A    between atoms: O_5  and  C_6 
REMARK    3  A    between atoms: C_6  and  C_7 
REMARK       I    between atoms: C_7  and  N_8 
REMARK    4  A    between atoms: N_8  and  C_9 
REMARK    5  A    between atoms: C_11  and  C_12 
ROOT
HETATM    1  C   UNL     1     -42.309  58.972 -54.399  1.00  0.00     0.035 A 
HETATM    2  C   UNL     1     -42.775  58.097 -55.387  1.00  0.00     0.045 A 
HETATM    3  C   UNL     1     -43.161  58.570 -56.653  1.00  0.00     0.019 A 
HETATM    4  C   UNL     1     -43.069  59.945 -56.915  1.00  0.00     0.016 A 
HETATM    5  C   UNL     1     -42.599  60.824 -55.941  1.00  0.00     0.003 A 
HETATM    6  C   UNL     1     -42.221  60.338 -54.689  1.00  0.00     0.029 A 
ENDROOT
BRANCH   1   7
HETATM    7  N   UNL     1     -41.906  58.563 -53.114  1.00  0.00    -0.325 N 
HETATM    8  C   UNL     1     -40.659  58.694 -52.526  1.00  0.00     0.251 C 
HETATM    9  O   UNL     1     -39.655  59.180 -53.039  1.00  0.00    -0.270 OA
HETATM   10  H   UNL     1     -42.590  58.059 -52.555  1.00  0.00     0.169 HD
BRANCH   8  11
HETATM   11  C   UNL     1     -40.637  58.209 -51.067  1.00  0.00     0.217 C 
HETATM   12  C   UNL     1     -40.863  59.405 -50.149  1.00  0.00     0.050 C 
BRANCH  11  13
HETATM   13  O   UNL     1     -41.698  57.276 -50.811  1.00  0.00    -0.337 OA
BRANCH  13  14
HETATM   14  C   UNL     1     -41.253  55.988 -50.677  1.00  0.00     0.070 A 
HETATM   15  C   UNL     1     -41.031  55.529 -49.380  1.00  0.00     0.043 A 
HETATM   16  C   UNL     1     -40.580  54.221 -49.164  1.00  0.00    -0.059 A 
HETATM   17  C   UNL     1     -40.330  53.713 -47.775  1.00  0.00     0.048 C 
HETATM   18  C   UNL     1     -40.395  53.374 -50.265  1.00  0.00     0.013 A 
HETATM   19  C   UNL     1     -40.642  53.823 -51.570  1.00  0.00    -0.059 A 
HETATM   20  C   UNL     1     -41.082  55.137 -51.770  1.00  0.00     0.043 A 
HETATM   21  C   UNL     1     -40.464  52.885 -52.729  1.00  0.00     0.048 C 
ENDBRANCH  13  14
ENDBRANCH  11  13
ENDBRANCH   8  11
ENDBRANCH   1   7
BRANCH   3  22
HETATM   22  C   UNL     1     -43.661  57.673 -57.694  1.00  0.00     0.181 A 
HETATM   23  O   UNL     1     -44.862  58.006 -58.269  1.00  0.00    -0.289 OA
HETATM   24  C   UNL     1     -45.076  57.019 -59.184  1.00  0.00     0.106 A 
HETATM   25  C   UNL     1     -44.005  56.143 -59.121  1.00  0.00     0.093 A 
HETATM   26  C   UNL     1     -46.161  56.885 -60.040  1.00  0.00     0.040 A 
HETATM   27  N   UNL     1     -43.114  56.565 -58.167  1.00  0.00    -0.221 NA
HETATM   28  C   UNL     1     -43.986  55.035 -59.977  1.00  0.00     0.034 A 
HETATM   29  C   UNL     1     -45.062  54.864 -60.862  1.00  0.00     0.002 A 
HETATM   30  C   UNL     1     -46.129  55.771 -60.890  1.00  0.00     0.003 A 
ENDBRANCH   3  22
TORSDOF 5
ENDMDL
MODEL 5
REMARK VINA RESULT:      -8.4      3.112      4.186
REMARK  5 active torsions:
REMARK  status: ('A' for Active; 'I' for Inactive)
REMARK    1  A    between atoms: C_4  and  O_5 
REMARK    2  A    between atoms: O_5  and  C_6 
REMARK    3  A    between atoms: C_6  and  C_7 
REMARK       I    between atoms: C_7  and  N_8 
REMARK    4  A    between atoms: N_8  and  C_9 
REMARK    5  A    between atoms: C_11  and  C_12 
ROOT
HETATM    1  C   UNL     1     -41.906  56.556 -55.477  1.00  0.00     0.035 A 
HETATM    2  C   UNL     1     -41.532  55.291 -55.012  1.00  0.00     0.045 A 
HETATM    3  C   UNL     1     -41.079  55.106 -53.694  1.00  0.00     0.019 A 
HETATM    4  C   UNL     1     -41.011  56.219 -52.843  1.00  0.00     0.016 A 
HETATM    5  C   UNL     1     -41.388  57.483 -53.294  1.00  0.00     0.003 A 
HETATM    6  C   UNL     1     -41.833  57.649 -54.606  1.00  0.00     0.029 A 
ENDROOT
BRANCH   1   7
HETATM    7  N   UNL     1     -42.367  56.809 -56.783  1.00  0.00    -0.325 N 
HETATM    8  C   UNL     1     -43.099  55.972 -57.609  1.00  0.00     0.251 C 
HETATM    9  O   UNL     1     -43.467  54.829 -57.351  1.00  0.00    -0.270 OA
HETATM   10  H   UNL     1     -42.089  57.690 -57.208  1.00  0.00     0.169 HD
BRANCH   8  11
HETATM   11  C   UNL     1     -43.497  56.645 -58.933  1.00  0.00     0.217 C 
HETATM   12  C   UNL     1     -42.326  56.544 -59.905  1.00  0.00     0.050 C 
BRANCH  11  13
HETATM   13  O   UNL     1     -44.610  55.976 -59.544  1.00  0.00    -0.337 OA
BRANCH  13  14
HETATM   14  C   UNL     1     -45.583  56.842 -59.966  1.00  0.00     0.070 A 
HETATM   15  C   UNL     1     -46.544  56.335 -60.839  1.00  0.00     0.043 A 
HETATM   16  C   UNL     1     -47.574  57.159 -61.308  1.00  0.00    -0.059 A 
HETATM   17  C   UNL     1     -48.612  56.632 -62.254  1.00  0.00     0.048 C 
HETATM   18  C   UNL     1     -47.645  58.484 -60.857  1.00  0.00     0.013 A 
HETATM   19  C   UNL     1     -46.696  58.992 -59.958  1.00  0.00    -0.059 A 
HETATM   20  C   UNL     1     -45.667  58.157 -59.506  1.00  0.00     0.043 A 
HETATM   21  C   UNL     1     -46.813  60.405 -59.468  1.00  0.00     0.048 C 
ENDBRANCH  13  14
ENDBRANCH  11  13
ENDBRANCH   8  11
ENDBRANCH   1   7
BRANCH   3  22
HETATM   22  C   UNL     1     -40.674  53.794 -53.193  1.00  0.00     0.181 A 
HETATM   23  O   UNL     1     -40.514  52.800 -54.127  1.00  0.00    -0.289 OA
HETATM   24  C   UNL     1     -40.142  51.713 -53.394  1.00  0.00     0.106 A 
HETATM   25  C   UNL     1     -40.094  52.095 -52.064  1.00  0.00     0.093 A 
HETATM   26  C   UNL     1     -39.855  50.439 -53.865  1.00  0.00     0.040 A 
HETATM   27  N   UNL     1     -40.440  53.417 -51.946  1.00  0.00    -0.221 NA
HETATM   28  C   UNL     1     -39.727  51.147 -51.101  1.00  0.00     0.034 A 
HETATM   29  C   UNL     1     -39.425  49.846 -51.535  1.00  0.00     0.002 A 
HETATM   30  C   UNL     1     -39.490  49.500 -52.891  1.00  0.00     0.003 A 
ENDBRANCH   3  22
TORSDOF 5
ENDMDL
MODEL 6
REMARK VINA RESULT:      -8.4      2.336      9.386
REMARK  5 active torsions:
REMARK  status: ('A' for Active; 'I' for Inactive)
REMARK    1  A    between atoms: C_4  and  O_5 
REMARK    2  A    between atoms: O_5  and  C_6 
REMARK    3  A    between atoms: C_6  and  C_7 
REMARK       I    between atoms: C_7  and  N_8 
REMARK    4  A    between atoms: N_8  and  C_9 
REMARK    5  A    between atoms: C_11  and  C_12 
ROOT
HETATM    1  C   UNL     1     -42.863  57.138 -56.340  1.00  0.00     0.035 A 
HETATM    2  C   UNL     1     -42.390  58.388 -56.753  1.00  0.00     0.045 A 
HETATM    3  C   UNL     1     -42.139  58.658 -58.110  1.00  0.00     0.019 A 
HETATM    4  C   UNL     1     -42.377  57.647 -59.053  1.00  0.00     0.016 A 
HETATM    5  C   UNL     1     -42.854  56.400 -58.653  1.00  0.00     0.003 A 
HETATM    6  C   UNL     1     -43.096  56.149 -57.302  1.00  0.00     0.029 A 
ENDROOT
BRANCH   1   7
HETATM    7  N   UNL     1     -43.133  56.804 -55.000  1.00  0.00    -0.325 N 
HETATM    8  C   UNL     1     -42.280  56.876 -53.911  1.00  0.00     0.251 C 
HETATM    9  O   UNL     1     -41.105  57.233 -53.925  1.00  0.00    -0.270 OA
HETATM   10  H   UNL     1     -44.047  56.406 -54.799  1.00  0.00     0.169 HD
BRANCH   8  11
HETATM   11  C   UNL     1     -42.974  56.512 -52.589  1.00  0.00     0.217 C 
HETATM   12  C   UNL     1     -44.334  57.199 -52.542  1.00  0.00     0.050 C 
BRANCH  11  13
HETATM   13  O   UNL     1     -43.213  55.100 -52.496  1.00  0.00    -0.337 OA
BRANCH  13  14
HETATM   14  C   UNL     1     -42.081  54.387 -52.205  1.00  0.00     0.070 A 
HETATM   15  C   UNL     1     -41.499  54.607 -50.958  1.00  0.00     0.043 A 
HETATM   16  C   UNL     1     -40.343  53.910 -50.587  1.00  0.00    -0.059 A 
HETATM   17  C   UNL     1     -39.701  54.140 -49.251  1.00  0.00     0.048 C 
HETATM   18  C   UNL     1     -39.805  52.965 -51.470  1.00  0.00     0.013 A 
HETATM   19  C   UNL     1     -40.401  52.721 -52.717  1.00  0.00    -0.059 A 
HETATM   20  C   UNL     1     -41.551  53.433 -53.076  1.00  0.00     0.043 A 
HETATM   21  C   UNL     1     -39.821  51.682 -53.631  1.00  0.00     0.048 C 
ENDBRANCH  13  14
ENDBRANCH  11  13
ENDBRANCH   8  11
ENDBRANCH   1   7
BRANCH   3  22
HETATM   22  C   UNL     1     -41.636  59.954 -58.560  1.00  0.00     0.181 A 
HETATM   23  O   UNL     1     -41.815  60.259 -59.887  1.00  0.00    -0.289 OA
HETATM   24  C   UNL     1     -41.263  61.497 -60.021  1.00  0.00     0.106 A 
HETATM   25  C   UNL     1     -40.780  61.882 -58.782  1.00  0.00     0.093 A 
HETATM   26  C   UNL     1     -41.183  62.263 -61.177  1.00  0.00     0.040 A 
HETATM   27  N   UNL     1     -41.016  60.892 -57.862  1.00  0.00    -0.221 NA
HETATM   28  C   UNL     1     -40.166  63.134 -58.655  1.00  0.00     0.034 A 
HETATM   29  C   UNL     1     -40.067  63.942 -59.799  1.00  0.00     0.002 A 
HETATM   30  C   UNL     1     -40.565  63.512 -61.035  1.00  0.00     0.003 A 
ENDBRANCH   3  22
TORSDOF 5
ENDMDL
MODEL 7
REMARK VINA RESULT:      -8.3      1.448      2.052
REMARK  5 active torsions:
REMARK  status: ('A' for Active; 'I' for Inactive)
REMARK    1  A    between atoms: C_4  and  O_5 
REMARK    2  A    between atoms: O_5  and  C_6 
REMARK    3  A    between atoms: C_6  and  C_7 
REMARK       I    between atoms: C_7  and  N_8 
REMARK    4  A    between atoms: N_8  and  C_9 
REMARK    5  A    between atoms: C_11  and  C_12 
ROOT
HETATM    1  C   UNL     1     -41.582  57.714 -53.062  1.00  0.00     0.035 A 
HETATM    2  C   UNL     1     -41.238  56.371 -53.255  1.00  0.00     0.045 A 
HETATM    3  C   UNL     1     -41.019  55.514 -52.162  1.00  0.00     0.019 A 
HETATM    4  C   UNL     1     -41.155  56.028 -50.865  1.00  0.00     0.016 A 
HETATM    5  C   UNL     1     -41.503  57.361 -50.661  1.00  0.00     0.003 A 
HETATM    6  C   UNL     1     -41.716  58.199 -51.757  1.00  0.00     0.029 A 
ENDROOT
BRANCH   1   7
HETATM    7  N   UNL     1     -41.815  58.623 -54.110  1.00  0.00    -0.325 N 
HETATM    8  C   UNL     1     -42.696  58.498 -55.172  1.00  0.00     0.251 C 
HETATM    9  O   UNL     1     -43.431  57.542 -55.405  1.00  0.00    -0.270 OA
HETATM   10  H   UNL     1     -41.233  59.457 -54.136  1.00  0.00     0.169 HD
BRANCH   8  11
HETATM   11  C   UNL     1     -42.733  59.751 -56.063  1.00  0.00     0.217 C 
HETATM   12  C   UNL     1     -43.079  60.958 -55.198  1.00  0.00     0.050 C 
BRANCH  11  13
HETATM   13  O   UNL     1     -41.451  60.010 -56.654  1.00  0.00    -0.337 OA
BRANCH  13  14
HETATM   14  C   UNL     1     -41.543  60.512 -57.924  1.00  0.00     0.070 A 
HETATM   15  C   UNL     1     -40.676  61.552 -58.256  1.00  0.00     0.043 A 
HETATM   16  C   UNL     1     -40.707  62.113 -59.537  1.00  0.00    -0.059 A 
HETATM   17  C   UNL     1     -39.786  63.237 -59.909  1.00  0.00     0.048 C 
HETATM   18  C   UNL     1     -41.592  61.589 -60.489  1.00  0.00     0.013 A 
HETATM   19  C   UNL     1     -42.449  60.525 -60.168  1.00  0.00    -0.059 A 
HETATM   20  C   UNL     1     -42.412  59.982 -58.878  1.00  0.00     0.043 A 
HETATM   21  C   UNL     1     -43.365  59.963 -61.215  1.00  0.00     0.048 C 
ENDBRANCH  13  14
ENDBRANCH  11  13
ENDBRANCH   8  11
ENDBRANCH   1   7
BRANCH   3  22
HETATM   22  C   UNL     1     -40.649  54.111 -52.344  1.00  0.00     0.181 A 
HETATM   23  O   UNL     1     -40.759  53.604 -53.615  1.00  0.00    -0.289 OA
HETATM   24  C   UNL     1     -40.357  52.308 -53.491  1.00  0.00     0.106 A 
HETATM   25  C   UNL     1     -40.025  52.092 -52.165  1.00  0.00     0.093 A 
HETATM   26  C   UNL     1     -40.281  51.350 -54.495  1.00  0.00     0.040 A 
HETATM   27  N   UNL     1     -40.220  53.242 -51.443  1.00  0.00    -0.221 NA
HETATM   28  C   UNL     1     -39.571  50.825 -51.778  1.00  0.00     0.034 A 
HETATM   29  C   UNL     1     -39.477  49.828 -52.762  1.00  0.00     0.002 A 
HETATM   30  C   UNL     1     -39.827  50.087 -54.093  1.00  0.00     0.003 A 
ENDBRANCH   3  22
TORSDOF 5
ENDMDL
MODEL 8
REMARK VINA RESULT:      -8.2      2.418      9.372
REMARK  5 active torsions:
REMARK  status: ('A' for Active; 'I' for Inactive)
REMARK    1  A    between atoms: C_4  and  O_5 
REMARK    2  A    between atoms: O_5  and  C_6 
REMARK    3  A    between atoms: C_6  and  C_7 
REMARK       I    between atoms: C_7  and  N_8 
REMARK    4  A    between atoms: N_8  and  C_9 
REMARK    5  A    between atoms: C_11  and  C_12 
ROOT
HETATM    1  C   UNL     1     -42.932  57.087 -56.509  1.00  0.00     0.035 A 
HETATM    2  C   UNL     1     -42.523  58.322 -57.023  1.00  0.00     0.045 A 
HETATM    3  C   UNL     1     -42.265  58.488 -58.395  1.00  0.00     0.019 A 
HETATM    4  C   UNL     1     -42.429  57.388 -59.249  1.00  0.00     0.016 A 
HETATM    5  C   UNL     1     -42.843  56.155 -58.749  1.00  0.00     0.003 A 
HETATM    6  C   UNL     1     -43.093  56.007 -57.384  1.00  0.00     0.029 A 
ENDROOT
BRANCH   1   7
HETATM    7  N   UNL     1     -43.207  56.854 -55.148  1.00  0.00    -0.325 N 
HETATM    8  C   UNL     1     -42.343  56.960 -54.070  1.00  0.00     0.251 C 
HETATM    9  O   UNL     1     -41.154  57.264 -54.114  1.00  0.00    -0.270 OA
HETATM   10  H   UNL     1     -44.136  56.511 -54.917  1.00  0.00     0.169 HD
BRANCH   8  11
HETATM   11  C   UNL     1     -43.041  56.715 -52.723  1.00  0.00     0.217 C 
HETATM   12  C   UNL     1     -44.373  57.458 -52.719  1.00  0.00     0.050 C 
BRANCH  11  13
HETATM   13  O   UNL     1     -43.335  55.323 -52.533  1.00  0.00    -0.337 OA
BRANCH  13  14
HETATM   14  C   UNL     1     -42.233  54.590 -52.186  1.00  0.00     0.070 A 
HETATM   15  C   UNL     1     -41.781  53.651 -53.113  1.00  0.00     0.043 A 
HETATM   16  C   UNL     1     -40.656  52.868 -52.830  1.00  0.00    -0.059 A 
HETATM   17  C   UNL     1     -40.161  51.849 -53.814  1.00  0.00     0.048 C 
HETATM   18  C   UNL     1     -39.972  53.069 -51.624  1.00  0.00     0.013 A 
HETATM   19  C   UNL     1     -40.407  54.030 -50.700  1.00  0.00    -0.059 A 
HETATM   20  C   UNL     1     -41.540  54.798 -50.993  1.00  0.00     0.043 A 
HETATM   21  C   UNL     1     -39.637  54.245 -49.429  1.00  0.00     0.048 C 
ENDBRANCH  13  14
ENDBRANCH  11  13
ENDBRANCH   8  11
ENDBRANCH   1   7
BRANCH   3  22
HETATM   22  C   UNL     1     -41.827  59.768 -58.949  1.00  0.00     0.181 A 
HETATM   23  O   UNL     1     -41.138  60.603 -58.103  1.00  0.00    -0.289 OA
HETATM   24  C   UNL     1     -40.861  61.695 -58.868  1.00  0.00     0.106 A 
HETATM   25  C   UNL     1     -41.387  61.474 -60.130  1.00  0.00     0.093 A 
HETATM   26  C   UNL     1     -40.175  62.840 -58.484  1.00  0.00     0.040 A 
HETATM   27  N   UNL     1     -42.005  60.250 -60.169  1.00  0.00    -0.221 NA
HETATM   28  C   UNL     1     -41.227  62.459 -61.112  1.00  0.00     0.034 A 
HETATM   29  C   UNL     1     -40.536  63.631 -60.766  1.00  0.00     0.002 A 
HETATM   30  C   UNL     1     -40.023  63.817 -59.476  1.00  0.00     0.003 A 
ENDBRANCH   3  22
TORSDOF 5
ENDMDL
MODEL 9
REMARK VINA RESULT:      -8.2      2.005      2.318
REMARK  5 active torsions:
REMARK  status: ('A' for Active; 'I' for Inactive)
REMARK    1  A    between atoms: C_4  and  O_5 
REMARK    2  A    between atoms: O_5  and  C_6 
REMARK    3  A    between atoms: C_6  and  C_7 
REMARK       I    between atoms: C_7  and  N_8 
REMARK    4  A    between atoms: N_8  and  C_9 
REMARK    5  A    between atoms: C_11  and  C_12 
ROOT
HETATM    1  C   UNL     1     -42.317  57.180 -53.339  1.00  0.00     0.035 A 
HETATM    2  C   UNL     1     -41.842  55.868 -53.444  1.00  0.00     0.045 A 
HETATM    3  C   UNL     1     -41.405  55.160 -52.311  1.00  0.00     0.019 A 
HETATM    4  C   UNL     1     -41.457  55.793 -51.060  1.00  0.00     0.016 A 
HETATM    5  C   UNL     1     -41.935  57.097 -50.943  1.00  0.00     0.003 A 
HETATM    6  C   UNL     1     -42.363  57.785 -52.078  1.00  0.00     0.029 A 
ENDROOT
BRANCH   1   7
HETATM    7  N   UNL     1     -42.768  57.942 -54.432  1.00  0.00    -0.325 N 
HETATM    8  C   UNL     1     -44.034  57.967 -54.994  1.00  0.00     0.251 C 
HETATM    9  O   UNL     1     -45.003  57.299 -54.645  1.00  0.00    -0.270 OA
HETATM   10  H   UNL     1     -42.076  58.510 -54.915  1.00  0.00     0.169 HD
BRANCH   8  11
HETATM   11  C   UNL     1     -44.162  59.004 -56.122  1.00  0.00     0.217 C 
HETATM   12  C   UNL     1     -43.540  60.316 -55.656  1.00  0.00     0.050 C 
BRANCH  11  13
HETATM   13  O   UNL     1     -43.444  58.592 -57.295  1.00  0.00    -0.337 OA
BRANCH  13  14
HETATM   14  C   UNL     1     -44.231  57.920 -58.191  1.00  0.00     0.070 A 
HETATM   15  C   UNL     1     -45.269  58.637 -58.783  1.00  0.00     0.043 A 
HETATM   16  C   UNL     1     -46.112  58.019 -59.713  1.00  0.00    -0.059 A 
HETATM   17  C   UNL     1     -47.238  58.775 -60.354  1.00  0.00     0.048 C 
HETATM   18  C   UNL     1     -45.874  56.684 -60.066  1.00  0.00     0.013 A 
HETATM   19  C   UNL     1     -44.815  55.964 -59.493  1.00  0.00    -0.059 A 
HETATM   20  C   UNL     1     -43.987  56.595 -58.557  1.00  0.00     0.043 A 
HETATM   21  C   UNL     1     -44.564  54.545 -59.912  1.00  0.00     0.048 C 
ENDBRANCH  13  14
ENDBRANCH  11  13
ENDBRANCH   8  11
ENDBRANCH   1   7
BRANCH   3  22
HETATM   22  C   UNL     1     -40.896  53.793 -52.402  1.00  0.00     0.181 A 
HETATM   23  O   UNL     1     -40.928  53.205 -53.643  1.00  0.00    -0.289 OA
HETATM   24  C   UNL     1     -40.404  51.965 -53.436  1.00  0.00     0.106 A 
HETATM   25  C   UNL     1     -40.081  51.860 -52.094  1.00  0.00     0.093 A 
HETATM   26  C   UNL     1     -40.214  50.963 -54.379  1.00  0.00     0.040 A 
HETATM   27  N   UNL     1     -40.403  53.024 -51.445  1.00  0.00    -0.221 NA
HETATM   28  C   UNL     1     -39.514  50.668 -51.626  1.00  0.00     0.034 A 
HETATM   29  C   UNL     1     -39.301  49.630 -52.547  1.00  0.00     0.002 A 
HETATM   30  C   UNL     1     -39.647  49.776 -53.897  1.00  0.00     0.003 A 
ENDBRANCH   3  22
TORSDOF 5
ENDMDL
MODEL 10
REMARK VINA RESULT:      -8.2     15.966     19.300
REMARK  5 active torsions:
REMARK  status: ('A' for Active; 'I' for Inactive)
REMARK    1  A    between atoms: C_4  and  O_5 
REMARK    2  A    between atoms: O_5  and  C_6 
REMARK    3  A    between atoms: C_6  and  C_7 
REMARK       I    between atoms: C_7  and  N_8 
REMARK    4  A    between atoms: N_8  and  C_9 
REMARK    5  A    between atoms: C_11  and  C_12 
ROOT
HETATM    1  C   UNL     1     -35.116  40.639 -56.691  1.00  0.00     0.035 A 
HETATM    2  C   UNL     1     -35.726  39.909 -57.716  1.00  0.00     0.045 A 
HETATM    3  C   UNL     1     -36.598  40.527 -58.629  1.00  0.00     0.019 A 
HETATM    4  C   UNL     1     -36.847  41.901 -58.497  1.00  0.00     0.016 A 
HETATM    5  C   UNL     1     -36.240  42.640 -57.484  1.00  0.00     0.003 A 
HETATM    6  C   UNL     1     -35.378  42.010 -56.586  1.00  0.00     0.029 A 
ENDROOT
BRANCH   1   7
HETATM    7  N   UNL     1     -34.234  40.082 -55.746  1.00  0.00    -0.325 N 
HETATM    8  C   UNL     1     -32.852  39.999 -55.810  1.00  0.00     0.251 C 
HETATM    9  O   UNL     1     -32.138  40.387 -56.730  1.00  0.00    -0.270 OA
HETATM   10  H   UNL     1     -34.651  39.630 -54.936  1.00  0.00     0.169 HD
BRANCH   8  11
HETATM   11  C   UNL     1     -32.235  39.403 -54.534  1.00  0.00     0.217 C 
HETATM   12  C   UNL     1     -31.005  38.588 -54.919  1.00  0.00     0.050 C 
BRANCH  11  13
HETATM   13  O   UNL     1     -31.793  40.433 -53.637  1.00  0.00    -0.337 OA
BRANCH  13  14
HETATM   14  C   UNL     1     -32.407  40.373 -52.415  1.00  0.00     0.070 A 
HETATM   15  C   UNL     1     -33.790  40.543 -52.395  1.00  0.00     0.043 A 
HETATM   16  C   UNL     1     -34.488  40.489 -51.183  1.00  0.00    -0.059 A 
HETATM   17  C   UNL     1     -35.976  40.676 -51.142  1.00  0.00     0.048 C 
HETATM   18  C   UNL     1     -33.783  40.224 -50.002  1.00  0.00     0.013 A 
HETATM   19  C   UNL     1     -32.394  40.026 -50.020  1.00  0.00    -0.059 A 
HETATM   20  C   UNL     1     -31.709  40.093 -51.239  1.00  0.00     0.043 A 
HETATM   21  C   UNL     1     -31.668  39.714 -48.744  1.00  0.00     0.048 C 
ENDBRANCH  13  14
ENDBRANCH  11  13
ENDBRANCH   8  11
ENDBRANCH   1   7
BRANCH   3  22
HETATM   22  C   UNL     1     -37.253  39.779 -59.700  1.00  0.00     0.181 A 
HETATM   23  O   UNL     1     -38.477  39.227 -59.408  1.00  0.00    -0.289 OA
HETATM   24  C   UNL     1     -38.844  38.604 -60.563  1.00  0.00     0.106 A 
HETATM   25  C   UNL     1     -37.837  38.806 -61.492  1.00  0.00     0.093 A 
HETATM   26  C   UNL     1     -40.010  37.888 -60.799  1.00  0.00     0.040 A 
HETATM   27  N   UNL     1     -36.828  39.548 -60.932  1.00  0.00    -0.221 NA
HETATM   28  C   UNL     1     -37.981  38.263 -62.775  1.00  0.00     0.034 A 
HETATM   29  C   UNL     1     -39.148  37.535 -63.057  1.00  0.00     0.002 A 
HETATM   30  C   UNL     1     -40.141  37.351 -62.086  1.00  0.00     0.003 A 
ENDBRANCH   3  22
TORSDOF 5
ENDMDL
