MODEL 1
REMARK VINA RESULT:      -8.8      0.000      0.000
REMARK  3 active torsions:
REMARK  status: ('A' for Active; 'I' for Inactive)
REMARK    1  A    between atoms: C_5  and  C_6 
REMARK       I    between atoms: C_6  and  N_7 
REMARK    2  A    between atoms: N_7  and  C_8 
REMARK    3  A    between atoms: C_15  and  C_16 
REMARK       I    between atoms: C_16  and  N_17 
ROOT
HETATM    1  C   UNL     1     -42.859  55.703 -54.912  1.00  0.00     0.036 A 
HETATM    2  C   UNL     1     -42.768  55.620 -56.309  1.00  0.00     0.046 A 
HETATM    3  C   UNL     1     -43.455  56.560 -57.109  1.00  0.00     0.030 A 
HETATM    4  C   UNL     1     -44.210  57.547 -56.489  1.00  0.00     0.063 A 
HETATM    5  N   UNL     1     -44.745  58.289 -57.505  1.00  0.00    -0.277 N 
HETATM    6  H   UNL     1     -45.352  59.096 -57.422  1.00  0.00     0.189 HD
HETATM    7  N   UNL     1     -44.405  57.874 -58.735  1.00  0.00    -0.168 NA
HETATM    8  C   UNL     1     -43.608  56.805 -58.509  1.00  0.00     0.156 A 
HETATM    9  C   UNL     1     -44.325  57.660 -55.104  1.00  0.00     0.034 A 
HETATM   10  C   UNL     1     -43.634  56.717 -54.331  1.00  0.00     0.032 A 
ENDROOT
BRANCH   1  11
HETATM   11  N   UNL     1     -42.212  54.819 -54.021  1.00  0.00    -0.322 N 
HETATM   12  C   UNL     1     -40.863  54.523 -53.928  1.00  0.00     0.276 C 
HETATM   13  O   UNL     1     -40.010  55.026 -54.650  1.00  0.00    -0.266 OA
HETATM   14  H   UNL     1     -42.823  54.342 -53.370  1.00  0.00     0.169 HD
BRANCH  12  15
HETATM   15  C   UNL     1     -40.511  53.568 -52.891  1.00  0.00     0.150 A 
HETATM   16  N   UNL     1     -40.216  52.226 -53.116  1.00  0.00    -0.299 N 
HETATM   17  C   UNL     1     -39.937  51.656 -51.873  1.00  0.00     0.136 A 
HETATM   18  C   UNL     1     -40.160  51.479 -54.299  1.00  0.00     0.099 A 
HETATM   19  C   UNL     1     -39.599  50.274 -51.832  1.00  0.00     0.051 A 
HETATM   20  N   UNL     1     -40.037  52.533 -50.904  1.00  0.00    -0.216 NA
HETATM   21  C   UNL     1     -39.551  49.561 -52.972  1.00  0.00     0.005 A 
HETATM   22  C   UNL     1     -39.837  50.174 -54.256  1.00  0.00     0.018 A 
HETATM   23  C   UNL     1     -40.394  53.705 -51.514  1.00  0.00     0.161 A 
HETATM   24 CL   UNL     1     -40.642  55.105 -50.564  1.00  0.00    -0.060 Cl
ENDBRANCH  12  15
ENDBRANCH   1  11
BRANCH   8  25
HETATM   25  C   UNL     1     -43.015  56.049 -59.621  1.00  0.00     0.270 C 
HETATM   26  N   UNL     1     -41.690  56.317 -59.833  1.00  0.00    -0.365 N 
HETATM   27  H   UNL     1     -41.229  56.991 -59.234  1.00  0.00     0.159 HD
HETATM   28  H   UNL     1     -41.198  55.847 -60.576  1.00  0.00     0.159 HD
HETATM   29  O   UNL     1     -43.619  55.242 -60.319  1.00  0.00    -0.266 OA
ENDBRANCH   8  25
TORSDOF 3
ENDMDL
MODEL 2
REMARK VINA RESULT:      -8.5      2.820      8.102
REMARK  3 active torsions:
REMARK  status: ('A' for Active; 'I' for Inactive)
REMARK    1  A    between atoms: C_5  and  C_6 
REMARK       I    between atoms: C_6  and  N_7 
REMARK    2  A    between atoms: N_7  and  C_8 
REMARK    3  A    between atoms: C_15  and  C_16 
REMARK       I    between atoms: C_16  and  N_17 
ROOT
HETATM    1  C   UNL     1     -41.251  54.510 -54.969  1.00  0.00     0.036 A 
HETATM    2  C   UNL     1     -40.821  53.192 -54.763  1.00  0.00     0.046 A 
HETATM    3  C   UNL     1     -40.406  52.787 -53.474  1.00  0.00     0.030 A 
HETATM    4  C   UNL     1     -40.433  53.711 -52.439  1.00  0.00     0.063 A 
HETATM    5  N   UNL     1     -39.983  53.037 -51.337  1.00  0.00    -0.277 N 
HETATM    6  H   UNL     1     -39.871  53.401 -50.398  1.00  0.00     0.189 HD
HETATM    7  N   UNL     1     -39.665  51.753 -51.563  1.00  0.00    -0.168 NA
HETATM    8  C   UNL     1     -39.920  51.582 -52.880  1.00  0.00     0.156 A 
HETATM    9  C   UNL     1     -40.853  55.030 -52.605  1.00  0.00     0.034 A 
HETATM   10  C   UNL     1     -41.261  55.408 -53.892  1.00  0.00     0.032 A 
ENDROOT
BRANCH   1  11
HETATM   11  N   UNL     1     -41.688  55.018 -56.213  1.00  0.00    -0.322 N 
HETATM   12  C   UNL     1     -42.896  55.618 -56.522  1.00  0.00     0.276 C 
HETATM   13  O   UNL     1     -43.790  55.798 -55.702  1.00  0.00    -0.266 OA
HETATM   14  H   UNL     1     -41.025  54.923 -56.971  1.00  0.00     0.169 HD
BRANCH  12  15
HETATM   15  C   UNL     1     -43.038  56.042 -57.904  1.00  0.00     0.150 A 
HETATM   16  N   UNL     1     -42.651  57.286 -58.397  1.00  0.00    -0.299 N 
HETATM   17  C   UNL     1     -42.959  57.299 -59.757  1.00  0.00     0.136 A 
HETATM   18  C   UNL     1     -42.051  58.383 -57.765  1.00  0.00     0.099 A 
HETATM   19  C   UNL     1     -42.654  58.475 -60.500  1.00  0.00     0.051 A 
HETATM   20  N   UNL     1     -43.503  56.171 -60.142  1.00  0.00    -0.216 NA
HETATM   21  C   UNL     1     -42.081  59.526 -59.887  1.00  0.00     0.005 A 
HETATM   22  C   UNL     1     -41.762  59.489 -58.471  1.00  0.00     0.018 A 
HETATM   23  C   UNL     1     -43.563  55.396 -59.016  1.00  0.00     0.161 A 
HETATM   24 CL   UNL     1     -44.238  53.828 -59.109  1.00  0.00    -0.060 Cl
ENDBRANCH  12  15
ENDBRANCH   1  11
BRANCH   8  25
HETATM   25  C   UNL     1     -39.698  50.285 -53.535  1.00  0.00     0.270 C 
HETATM   26  N   UNL     1     -39.499  49.248 -52.666  1.00  0.00    -0.365 N 
HETATM   27  H   UNL     1     -39.517  49.438 -51.671  1.00  0.00     0.159 HD
HETATM   28  H   UNL     1     -39.337  48.320 -53.023  1.00  0.00     0.159 HD
HETATM   29  O   UNL     1     -39.686  50.107 -54.749  1.00  0.00    -0.266 OA
ENDBRANCH   8  25
TORSDOF 3
ENDMDL
MODEL 3
REMARK VINA RESULT:      -8.5      2.349      8.104
REMARK  3 active torsions:
REMARK  status: ('A' for Active; 'I' for Inactive)
REMARK    1  A    between atoms: C_5  and  C_6 
REMARK       I    between atoms: C_6  and  N_7 
REMARK    2  A    between atoms: N_7  and  C_8 
REMARK    3  A    between atoms: C_15  and  C_16 
REMARK       I    between atoms: C_16  and  N_17 
ROOT
HETATM    1  C   UNL     1     -40.825  54.507 -54.077  1.00  0.00     0.036 A 
HETATM    2  C   UNL     1     -40.970  54.560 -52.684  1.00  0.00     0.046 A 
HETATM    3  C   UNL     1     -40.604  53.443 -51.901  1.00  0.00     0.030 A 
HETATM    4  C   UNL     1     -40.108  52.311 -52.537  1.00  0.00     0.063 A 
HETATM    5  N   UNL     1     -39.849  51.417 -51.536  1.00  0.00    -0.277 N 
HETATM    6  H   UNL     1     -39.476  50.479 -51.632  1.00  0.00     0.189 HD
HETATM    7  N   UNL     1     -40.131  51.864 -50.302  1.00  0.00    -0.168 NA
HETATM    8  C   UNL     1     -40.600  53.115 -50.510  1.00  0.00     0.156 A 
HETATM    9  C   UNL     1     -39.951  52.221 -53.919  1.00  0.00     0.034 A 
HETATM   10  C   UNL     1     -40.319  53.343 -54.674  1.00  0.00     0.032 A 
ENDROOT
BRANCH   1  11
HETATM   11  N   UNL     1     -41.157  55.567 -54.951  1.00  0.00    -0.322 N 
HETATM   12  C   UNL     1     -42.412  56.025 -55.311  1.00  0.00     0.276 C 
HETATM   13  O   UNL     1     -43.455  55.541 -54.887  1.00  0.00    -0.266 OA
HETATM   14  H   UNL     1     -40.367  56.044 -55.365  1.00  0.00     0.169 HD
BRANCH  12  15
HETATM   15  C   UNL     1     -42.417  57.148 -56.234  1.00  0.00     0.150 A 
HETATM   16  N   UNL     1     -42.657  57.049 -57.602  1.00  0.00    -0.299 N 
HETATM   17  C   UNL     1     -42.568  58.339 -58.125  1.00  0.00     0.136 A 
HETATM   18  C   UNL     1     -42.953  55.943 -58.410  1.00  0.00     0.099 A 
HETATM   19  C   UNL     1     -42.780  58.509 -59.523  1.00  0.00     0.051 A 
HETATM   20  N   UNL     1     -42.294  59.221 -57.196  1.00  0.00    -0.216 NA
HETATM   21  C   UNL     1     -43.060  57.443 -60.294  1.00  0.00     0.005 A 
HETATM   22  C   UNL     1     -43.154  56.110 -59.728  1.00  0.00     0.018 A 
HETATM   23  C   UNL     1     -42.193  58.504 -56.035  1.00  0.00     0.161 A 
HETATM   24 CL   UNL     1     -41.820  59.313 -54.576  1.00  0.00    -0.060 Cl
ENDBRANCH  12  15
ENDBRANCH   1  11
BRANCH   8  25
HETATM   25  C   UNL     1     -41.028  53.963 -49.389  1.00  0.00     0.270 C 
HETATM   26  N   UNL     1     -40.118  54.041 -48.370  1.00  0.00    -0.365 N 
HETATM   27  H   UNL     1     -39.249  53.529 -48.455  1.00  0.00     0.159 HD
HETATM   28  H   UNL     1     -40.325  54.599 -47.557  1.00  0.00     0.159 HD
HETATM   29  O   UNL     1     -42.096  54.564 -49.334  1.00  0.00    -0.266 OA
ENDBRANCH   8  25
TORSDOF 3
ENDMDL
MODEL 4
REMARK VINA RESULT:      -8.3      2.292      7.638
REMARK  3 active torsions:
REMARK  status: ('A' for Active; 'I' for Inactive)
REMARK    1  A    between atoms: C_5  and  C_6 
REMARK       I    between atoms: C_6  and  N_7 
REMARK    2  A    between atoms: N_7  and  C_8 
REMARK    3  A    between atoms: C_15  and  C_16 
REMARK       I    between atoms: C_16  and  N_17 
ROOT
HETATM    1  C   UNL     1     -40.951  54.584 -53.851  1.00  0.00     0.036 A 
HETATM    2  C   UNL     1     -40.643  53.246 -54.133  1.00  0.00     0.046 A 
HETATM    3  C   UNL     1     -40.292  52.374 -53.077  1.00  0.00     0.030 A 
HETATM    4  C   UNL     1     -40.260  52.869 -51.780  1.00  0.00     0.063 A 
HETATM    5  N   UNL     1     -39.893  51.810 -50.996  1.00  0.00    -0.277 N 
HETATM    6  H   UNL     1     -39.769  51.805 -49.991  1.00  0.00     0.189 HD
HETATM    7  N   UNL     1     -39.685  50.667 -51.667  1.00  0.00    -0.168 NA
HETATM    8  C   UNL     1     -39.926  50.998 -52.956  1.00  0.00     0.156 A 
HETATM    9  C   UNL     1     -40.558  54.193 -51.462  1.00  0.00     0.034 A 
HETATM   10  C   UNL     1     -40.905  55.038 -52.525  1.00  0.00     0.032 A 
ENDROOT
BRANCH   1  11
HETATM   11  N   UNL     1     -41.316  55.538 -54.828  1.00  0.00    -0.322 N 
HETATM   12  C   UNL     1     -42.581  55.861 -55.286  1.00  0.00     0.276 C 
HETATM   13  O   UNL     1     -43.605  55.329 -54.873  1.00  0.00    -0.266 OA
HETATM   14  H   UNL     1     -40.544  56.043 -55.242  1.00  0.00     0.169 HD
BRANCH  12  15
HETATM   15  C   UNL     1     -42.623  56.900 -56.301  1.00  0.00     0.150 A 
HETATM   16  N   UNL     1     -42.951  56.690 -57.638  1.00  0.00    -0.299 N 
HETATM   17  C   UNL     1     -42.870  57.928 -58.276  1.00  0.00     0.136 A 
HETATM   18  C   UNL     1     -43.319  55.527 -58.327  1.00  0.00     0.099 A 
HETATM   19  C   UNL     1     -43.167  57.983 -59.668  1.00  0.00     0.051 A 
HETATM   20  N   UNL     1     -42.520  58.879 -57.446  1.00  0.00    -0.216 NA
HETATM   21  C   UNL     1     -43.516  56.861 -60.324  1.00  0.00     0.005 A 
HETATM   22  C   UNL     1     -43.600  55.584 -59.640  1.00  0.00     0.018 A 
HETATM   23  C   UNL     1     -42.360  58.262 -56.236  1.00  0.00     0.161 A 
HETATM   24 CL   UNL     1     -41.879  59.184 -54.878  1.00  0.00    -0.060 Cl
ENDBRANCH  12  15
ENDBRANCH   1  11
BRANCH   8  25
HETATM   25  C   UNL     1     -39.805  50.005 -54.032  1.00  0.00     0.270 C 
HETATM   26  N   UNL     1     -40.962  49.799 -54.734  1.00  0.00    -0.365 N 
HETATM   27  H   UNL     1     -41.789  50.322 -54.471  1.00  0.00     0.159 HD
HETATM   28  H   UNL     1     -40.976  49.133 -55.490  1.00  0.00     0.159 HD
HETATM   29  O   UNL     1     -38.778  49.395 -54.310  1.00  0.00    -0.266 OA
ENDBRANCH   8  25
TORSDOF 3
ENDMDL
MODEL 5
REMARK VINA RESULT:      -8.2      4.340      7.881
REMARK  3 active torsions:
REMARK  status: ('A' for Active; 'I' for Inactive)
REMARK    1  A    between atoms: C_5  and  C_6 
REMARK       I    between atoms: C_6  and  N_7 
REMARK    2  A    between atoms: N_7  and  C_8 
REMARK    3  A    between atoms: C_15  and  C_16 
REMARK       I    between atoms: C_16  and  N_17 
ROOT
HETATM    1  C   UNL     1     -40.819  54.676 -53.061  1.00  0.00     0.036 A 
HETATM    2  C   UNL     1     -40.556  53.572 -52.239  1.00  0.00     0.046 A 
HETATM    3  C   UNL     1     -40.195  52.337 -52.824  1.00  0.00     0.030 A 
HETATM    4  C   UNL     1     -40.110  52.249 -54.207  1.00  0.00     0.063 A 
HETATM    5  N   UNL     1     -39.749  50.956 -54.467  1.00  0.00    -0.277 N 
HETATM    6  H   UNL     1     -39.594  50.533 -55.375  1.00  0.00     0.189 HD
HETATM    7  N   UNL     1     -39.588  50.192 -53.375  1.00  0.00    -0.168 NA
HETATM    8  C   UNL     1     -39.861  51.031 -52.350  1.00  0.00     0.156 A 
HETATM    9  C   UNL     1     -40.365  53.324 -55.056  1.00  0.00     0.034 A 
HETATM   10  C   UNL     1     -40.720  54.538 -54.453  1.00  0.00     0.032 A 
ENDROOT
BRANCH   1  11
HETATM   11  N   UNL     1     -41.184  55.954 -52.581  1.00  0.00    -0.322 N 
HETATM   12  C   UNL     1     -41.116  56.441 -51.288  1.00  0.00     0.276 C 
HETATM   13  O   UNL     1     -40.702  55.783 -50.340  1.00  0.00    -0.266 OA
HETATM   14  H   UNL     1     -41.543  56.588 -53.283  1.00  0.00     0.169 HD
BRANCH  12  15
HETATM   15  C   UNL     1     -41.565  57.812 -51.120  1.00  0.00     0.150 A 
HETATM   16  N   UNL     1     -42.896  58.221 -51.154  1.00  0.00    -0.299 N 
HETATM   17  C   UNL     1     -42.902  59.603 -50.959  1.00  0.00     0.136 A 
HETATM   18  C   UNL     1     -44.081  57.494 -51.324  1.00  0.00     0.099 A 
HETATM   19  C   UNL     1     -44.160  60.270 -50.948  1.00  0.00     0.051 A 
HETATM   20  N   UNL     1     -41.690  60.077 -50.811  1.00  0.00    -0.216 NA
HETATM   21  C   UNL     1     -45.295  59.566 -51.117  1.00  0.00     0.005 A 
HETATM   22  C   UNL     1     -45.266  58.128 -51.310  1.00  0.00     0.018 A 
HETATM   23  C   UNL     1     -40.862  58.992 -50.913  1.00  0.00     0.161 A 
HETATM   24 CL   UNL     1     -39.171  59.210 -50.788  1.00  0.00    -0.060 Cl
ENDBRANCH  12  15
ENDBRANCH   1  11
BRANCH   8  25
HETATM   25  C   UNL     1     -39.797  50.573 -50.955  1.00  0.00     0.270 C 
HETATM   26  N   UNL     1     -39.064  49.432 -50.776  1.00  0.00    -0.365 N 
HETATM   27  H   UNL     1     -38.635  48.999 -51.585  1.00  0.00     0.159 HD
HETATM   28  H   UNL     1     -38.965  49.041 -49.853  1.00  0.00     0.159 HD
HETATM   29  O   UNL     1     -40.338  51.135 -50.008  1.00  0.00    -0.266 OA
ENDBRANCH   8  25
TORSDOF 3
ENDMDL
MODEL 6
REMARK VINA RESULT:      -8.2      3.022      4.534
REMARK  3 active torsions:
REMARK  status: ('A' for Active; 'I' for Inactive)
REMARK    1  A    between atoms: C_5  and  C_6 
REMARK       I    between atoms: C_6  and  N_7 
REMARK    2  A    between atoms: N_7  and  C_8 
REMARK    3  A    between atoms: C_15  and  C_16 
REMARK       I    between atoms: C_16  and  N_17 
ROOT
HETATM    1  C   UNL     1     -43.224  56.015 -52.857  1.00  0.00     0.036 A 
HETATM    2  C   UNL     1     -43.661  57.052 -52.022  1.00  0.00     0.046 A 
HETATM    3  C   UNL     1     -44.448  58.095 -52.559  1.00  0.00     0.030 A 
HETATM    4  C   UNL     1     -44.768  58.068 -53.910  1.00  0.00     0.063 A 
HETATM    5  N   UNL     1     -45.522  59.188 -54.128  1.00  0.00    -0.277 N 
HETATM    6  H   UNL     1     -45.930  59.492 -55.004  1.00  0.00     0.189 HD
HETATM    7  N   UNL     1     -45.723  59.944 -53.037  1.00  0.00    -0.168 NA
HETATM    8  C   UNL     1     -45.065  59.283 -52.058  1.00  0.00     0.156 A 
HETATM    9  C   UNL     1     -44.350  57.055 -54.772  1.00  0.00     0.034 A 
HETATM   10  C   UNL     1     -43.572  56.030 -54.216  1.00  0.00     0.032 A 
ENDROOT
BRANCH   1  11
HETATM   11  N   UNL     1     -42.437  54.924 -52.424  1.00  0.00    -0.322 N 
HETATM   12  C   UNL     1     -41.150  54.585 -52.803  1.00  0.00     0.276 C 
HETATM   13  O   UNL     1     -40.492  55.232 -53.610  1.00  0.00    -0.266 OA
HETATM   14  H   UNL     1     -42.883  54.315 -51.750  1.00  0.00     0.169 HD
BRANCH  12  15
HETATM   15  C   UNL     1     -40.611  53.397 -52.165  1.00  0.00     0.150 A 
HETATM   16  N   UNL     1     -40.336  52.199 -52.821  1.00  0.00    -0.299 N 
HETATM   17  C   UNL     1     -39.841  51.315 -51.862  1.00  0.00     0.136 A 
HETATM   18  C   UNL     1     -40.468  51.832 -54.166  1.00  0.00     0.099 A 
HETATM   19  C   UNL     1     -39.477  50.005 -52.286  1.00  0.00     0.051 A 
HETATM   20  N   UNL     1     -39.791  51.865 -50.674  1.00  0.00    -0.216 NA
HETATM   21  C   UNL     1     -39.610  49.657 -53.579  1.00  0.00     0.005 A 
HETATM   22  C   UNL     1     -40.120  50.596 -54.562  1.00  0.00     0.018 A 
HETATM   23  C   UNL     1     -40.265  53.137 -50.845  1.00  0.00     0.161 A 
HETATM   24 CL   UNL     1     -40.373  54.183 -49.497  1.00  0.00    -0.060 Cl
ENDBRANCH  12  15
ENDBRANCH   1  11
BRANCH   8  25
HETATM   25  C   UNL     1     -45.040  59.793 -50.680  1.00  0.00     0.270 C 
HETATM   26  N   UNL     1     -43.800  60.178 -50.250  1.00  0.00    -0.365 N 
HETATM   27  H   UNL     1     -43.016  60.087 -50.885  1.00  0.00     0.159 HD
HETATM   28  H   UNL     1     -43.684  60.540 -49.317  1.00  0.00     0.159 HD
HETATM   29  O   UNL     1     -46.021  59.882 -49.949  1.00  0.00    -0.266 OA
ENDBRANCH   8  25
TORSDOF 3
ENDMDL
MODEL 7
REMARK VINA RESULT:      -8.1      1.734      2.824
REMARK  3 active torsions:
REMARK  status: ('A' for Active; 'I' for Inactive)
REMARK    1  A    between atoms: C_5  and  C_6 
REMARK       I    between atoms: C_6  and  N_7 
REMARK    2  A    between atoms: N_7  and  C_8 
REMARK    3  A    between atoms: C_15  and  C_16 
REMARK       I    between atoms: C_16  and  N_17 
ROOT
HETATM    1  C   UNL     1     -42.924  56.112 -54.836  1.00  0.00     0.036 A 
HETATM    2  C   UNL     1     -43.056  55.815 -56.200  1.00  0.00     0.046 A 
HETATM    3  C   UNL     1     -43.678  56.748 -57.059  1.00  0.00     0.030 A 
HETATM    4  C   UNL     1     -44.148  57.942 -56.527  1.00  0.00     0.063 A 
HETATM    5  N   UNL     1     -44.689  58.622 -57.583  1.00  0.00    -0.277 N 
HETATM    6  H   UNL     1     -45.126  59.536 -57.564  1.00  0.00     0.189 HD
HETATM    7  N   UNL     1     -44.613  57.978 -58.758  1.00  0.00    -0.168 NA
HETATM    8  C   UNL     1     -43.991  56.817 -58.452  1.00  0.00     0.156 A 
HETATM    9  C   UNL     1     -44.036  58.271 -55.177  1.00  0.00     0.034 A 
HETATM   10  C   UNL     1     -43.414  57.331 -54.345  1.00  0.00     0.032 A 
ENDROOT
BRANCH   1  11
HETATM   11  N   UNL     1     -42.317  55.254 -53.892  1.00  0.00    -0.322 N 
HETATM   12  C   UNL     1     -40.988  54.879 -53.797  1.00  0.00     0.276 C 
HETATM   13  O   UNL     1     -40.119  55.273 -54.567  1.00  0.00    -0.266 OA
HETATM   14  H   UNL     1     -42.945  54.866 -53.200  1.00  0.00     0.169 HD
BRANCH  12  15
HETATM   15  C   UNL     1     -40.677  53.980 -52.699  1.00  0.00     0.150 A 
HETATM   16  N   UNL     1     -40.768  54.314 -51.350  1.00  0.00    -0.299 N 
HETATM   17  C   UNL     1     -40.382  53.186 -50.625  1.00  0.00     0.136 A 
HETATM   18  C   UNL     1     -41.166  55.498 -50.717  1.00  0.00     0.099 A 
HETATM   19  C   UNL     1     -40.393  53.271 -49.203  1.00  0.00     0.051 A 
HETATM   20  N   UNL     1     -40.061  52.189 -51.412  1.00  0.00    -0.216 NA
HETATM   21  C   UNL     1     -40.772  54.413 -48.602  1.00  0.00     0.005 A 
HETATM   22  C   UNL     1     -41.177  55.572 -49.375  1.00  0.00     0.018 A 
HETATM   23  C   UNL     1     -40.231  52.665 -52.684  1.00  0.00     0.161 A 
HETATM   24 CL   UNL     1     -39.890  51.647 -54.014  1.00  0.00    -0.060 Cl
ENDBRANCH  12  15
ENDBRANCH   1  11
BRANCH   8  25
HETATM   25  C   UNL     1     -43.711  55.809 -59.484  1.00  0.00     0.270 C 
HETATM   26  N   UNL     1     -44.498  54.693 -59.401  1.00  0.00    -0.365 N 
HETATM   27  H   UNL     1     -45.189  54.640 -58.663  1.00  0.00     0.159 HD
HETATM   28  H   UNL     1     -44.377  53.946 -60.067  1.00  0.00     0.159 HD
HETATM   29  O   UNL     1     -42.859  55.922 -60.358  1.00  0.00    -0.266 OA
ENDBRANCH   8  25
TORSDOF 3
ENDMDL
MODEL 8
REMARK VINA RESULT:      -7.9      4.124      5.465
REMARK  3 active torsions:
REMARK  status: ('A' for Active; 'I' for Inactive)
REMARK    1  A    between atoms: C_5  and  C_6 
REMARK       I    between atoms: C_6  and  N_7 
REMARK    2  A    between atoms: N_7  and  C_8 
REMARK    3  A    between atoms: C_15  and  C_16 
REMARK       I    between atoms: C_16  and  N_17 
ROOT
HETATM    1  C   UNL     1     -41.767  57.847 -52.127  1.00  0.00     0.036 A 
HETATM    2  C   UNL     1     -42.713  58.557 -51.375  1.00  0.00     0.046 A 
HETATM    3  C   UNL     1     -43.113  59.845 -51.794  1.00  0.00     0.030 A 
HETATM    4  C   UNL     1     -42.553  60.381 -52.946  1.00  0.00     0.063 A 
HETATM    5  N   UNL     1     -43.126  61.614 -53.089  1.00  0.00    -0.277 N 
HETATM    6  H   UNL     1     -42.953  62.289 -53.825  1.00  0.00     0.189 HD
HETATM    7  N   UNL     1     -44.011  61.931 -52.132  1.00  0.00    -0.168 NA
HETATM    8  C   UNL     1     -44.015  60.848 -51.322  1.00  0.00     0.156 A 
HETATM    9  C   UNL     1     -41.609  59.706 -53.719  1.00  0.00     0.034 A 
HETATM   10  C   UNL     1     -41.229  58.429 -53.284  1.00  0.00     0.032 A 
ENDROOT
BRANCH   1  11
HETATM   11  N   UNL     1     -41.300  56.554 -51.800  1.00  0.00    -0.322 N 
HETATM   12  C   UNL     1     -41.976  55.349 -51.879  1.00  0.00     0.276 C 
HETATM   13  O   UNL     1     -43.134  55.248 -52.269  1.00  0.00    -0.266 OA
HETATM   14  H   UNL     1     -40.347  56.515 -51.464  1.00  0.00     0.169 HD
BRANCH  12  15
HETATM   15  C   UNL     1     -41.209  54.184 -51.473  1.00  0.00     0.150 A 
HETATM   16  N   UNL     1     -40.738  53.201 -52.341  1.00  0.00    -0.299 N 
HETATM   17  C   UNL     1     -40.060  52.262 -51.563  1.00  0.00     0.136 A 
HETATM   18  C   UNL     1     -40.842  53.072 -53.731  1.00  0.00     0.099 A 
HETATM   19  C   UNL     1     -39.475  51.146 -52.224  1.00  0.00     0.051 A 
HETATM   20  N   UNL     1     -40.075  52.583 -50.292  1.00  0.00    -0.216 NA
HETATM   21  C   UNL     1     -39.582  51.024 -53.560  1.00  0.00     0.005 A 
HETATM   22  C   UNL     1     -40.286  52.017 -54.351  1.00  0.00     0.018 A 
HETATM   23  C   UNL     1     -40.780  53.753 -50.223  1.00  0.00     0.161 A 
HETATM   24 CL   UNL     1     -41.036  54.492 -48.704  1.00  0.00    -0.060 Cl
ENDBRANCH  12  15
ENDBRANCH   1  11
BRANCH   8  25
HETATM   25  C   UNL     1     -44.871  60.794 -50.128  1.00  0.00     0.270 C 
HETATM   26  N   UNL     1     -44.184  60.864 -48.947  1.00  0.00    -0.365 N 
HETATM   27  H   UNL     1     -43.175  60.942 -48.975  1.00  0.00     0.159 HD
HETATM   28  H   UNL     1     -44.687  60.832 -48.074  1.00  0.00     0.159 HD
HETATM   29  O   UNL     1     -46.093  60.697 -50.148  1.00  0.00    -0.266 OA
ENDBRANCH   8  25
TORSDOF 3
ENDMDL
MODEL 9
REMARK VINA RESULT:      -7.9      1.649      2.046
REMARK  3 active torsions:
REMARK  status: ('A' for Active; 'I' for Inactive)
REMARK    1  A    between atoms: C_5  and  C_6 
REMARK       I    between atoms: C_6  and  N_7 
REMARK    2  A    between atoms: N_7  and  C_8 
REMARK    3  A    between atoms: C_15  and  C_16 
REMARK       I    between atoms: C_16  and  N_17 
ROOT
HETATM    1  C   UNL     1     -43.531  56.512 -53.559  1.00  0.00     0.036 A 
HETATM    2  C   UNL     1     -43.595  56.633 -54.954  1.00  0.00     0.046 A 
HETATM    3  C   UNL     1     -44.395  57.645 -55.531  1.00  0.00     0.030 A 
HETATM    4  C   UNL     1     -45.105  58.497 -54.695  1.00  0.00     0.063 A 
HETATM    5  N   UNL     1     -45.772  59.351 -55.529  1.00  0.00    -0.277 N 
HETATM    6  H   UNL     1     -46.391  60.109 -55.264  1.00  0.00     0.189 HD
HETATM    7  N   UNL     1     -45.560  59.132 -56.836  1.00  0.00    -0.168 NA
HETATM    8  C   UNL     1     -44.711  58.079 -56.855  1.00  0.00     0.156 A 
HETATM    9  C   UNL     1     -45.068  58.406 -53.304  1.00  0.00     0.034 A 
HETATM   10  C   UNL     1     -44.266  57.396 -52.756  1.00  0.00     0.032 A 
ENDROOT
BRANCH   1  11
HETATM   11  N   UNL     1     -42.762  55.540 -52.880  1.00  0.00    -0.322 N 
HETATM   12  C   UNL     1     -41.512  55.680 -52.304  1.00  0.00     0.276 C 
HETATM   13  O   UNL     1     -40.879  56.730 -52.309  1.00  0.00    -0.266 OA
HETATM   14  H   UNL     1     -43.189  54.625 -52.815  1.00  0.00     0.169 HD
BRANCH  12  15
HETATM   15  C   UNL     1     -40.988  54.483 -51.670  1.00  0.00     0.150 A 
HETATM   16  N   UNL     1     -40.548  53.351 -52.352  1.00  0.00    -0.299 N 
HETATM   17  C   UNL     1     -40.131  52.432 -51.389  1.00  0.00     0.136 A 
HETATM   18  C   UNL     1     -40.471  53.070 -53.722  1.00  0.00     0.099 A 
HETATM   19  C   UNL     1     -39.627  51.178 -51.837  1.00  0.00     0.051 A 
HETATM   20  N   UNL     1     -40.278  52.901 -50.174  1.00  0.00    -0.216 NA
HETATM   21  C   UNL     1     -39.561  50.912 -53.154  1.00  0.00     0.005 A 
HETATM   22  C   UNL     1     -39.993  51.886 -54.140  1.00  0.00     0.018 A 
HETATM   23  C   UNL     1     -40.808  54.153 -50.333  1.00  0.00     0.161 A 
HETATM   24 CL   UNL     1     -41.166  55.095 -48.952  1.00  0.00    -0.060 Cl
ENDBRANCH  12  15
ENDBRANCH   1  11
BRANCH   8  25
HETATM   25  C   UNL     1     -44.224  57.518 -58.122  1.00  0.00     0.270 C 
HETATM   26  N   UNL     1     -44.895  56.397 -58.531  1.00  0.00    -0.365 N 
HETATM   27  H   UNL     1     -45.649  56.046 -57.953  1.00  0.00     0.159 HD
HETATM   28  H   UNL     1     -44.630  55.941 -59.388  1.00  0.00     0.159 HD
HETATM   29  O   UNL     1     -43.303  57.982 -58.786  1.00  0.00    -0.266 OA
ENDBRANCH   8  25
TORSDOF 3
ENDMDL
MODEL 10
REMARK VINA RESULT:      -7.8      3.132      3.767
REMARK  3 active torsions:
REMARK  status: ('A' for Active; 'I' for Inactive)
REMARK    1  A    between atoms: C_5  and  C_6 
REMARK       I    between atoms: C_6  and  N_7 
REMARK    2  A    between atoms: N_7  and  C_8 
REMARK    3  A    between atoms: C_15  and  C_16 
REMARK       I    between atoms: C_16  and  N_17 
ROOT
HETATM    1  C   UNL     1     -41.701  58.025 -52.340  1.00  0.00     0.036 A 
HETATM    2  C   UNL     1     -41.783  58.466 -53.668  1.00  0.00     0.046 A 
HETATM    3  C   UNL     1     -42.246  59.773 -53.942  1.00  0.00     0.030 A 
HETATM    4  C   UNL     1     -42.614  60.590 -52.881  1.00  0.00     0.063 A 
HETATM    5  N   UNL     1     -43.012  61.768 -53.452  1.00  0.00    -0.277 N 
HETATM    6  H   UNL     1     -43.348  62.597 -52.976  1.00  0.00     0.189 HD
HETATM    7  N   UNL     1     -42.936  61.791 -54.791  1.00  0.00    -0.168 NA
HETATM    8  C   UNL     1     -42.465  60.564 -55.111  1.00  0.00     0.156 A 
HETATM    9  C   UNL     1     -42.548  60.186 -51.549  1.00  0.00     0.034 A 
HETATM   10  C   UNL     1     -42.084  58.887 -51.302  1.00  0.00     0.032 A 
ENDROOT
BRANCH   1  11
HETATM   11  N   UNL     1     -41.250  56.742 -51.956  1.00  0.00    -0.322 N 
HETATM   12  C   UNL     1     -41.980  55.573 -51.834  1.00  0.00     0.276 C 
HETATM   13  O   UNL     1     -43.182  55.500 -52.062  1.00  0.00    -0.266 OA
HETATM   14  H   UNL     1     -40.263  56.682 -51.742  1.00  0.00     0.169 HD
BRANCH  12  15
HETATM   15  C   UNL     1     -41.215  54.408 -51.422  1.00  0.00     0.150 A 
HETATM   16  N   UNL     1     -40.752  53.417 -52.283  1.00  0.00    -0.299 N 
HETATM   17  C   UNL     1     -40.074  52.482 -51.501  1.00  0.00     0.136 A 
HETATM   18  C   UNL     1     -40.861  53.277 -53.673  1.00  0.00     0.099 A 
HETATM   19  C   UNL     1     -39.495  51.358 -52.156  1.00  0.00     0.051 A 
HETATM   20  N   UNL     1     -40.083  52.813 -50.233  1.00  0.00    -0.216 NA
HETATM   21  C   UNL     1     -39.608  51.227 -53.490  1.00  0.00     0.005 A 
HETATM   22  C   UNL     1     -40.311  52.215 -54.286  1.00  0.00     0.018 A 
HETATM   23  C   UNL     1     -40.784  53.986 -50.171  1.00  0.00     0.161 A 
HETATM   24 CL   UNL     1     -41.032  54.738 -48.656  1.00  0.00    -0.060 Cl
ENDBRANCH  12  15
ENDBRANCH   1  11
BRANCH   8  25
HETATM   25  C   UNL     1     -42.235  60.179 -56.510  1.00  0.00     0.270 C 
HETATM   26  N   UNL     1     -43.198  59.356 -57.028  1.00  0.00    -0.365 N 
HETATM   27  H   UNL     1     -43.970  59.079 -56.433  1.00  0.00     0.159 HD
HETATM   28  H   UNL     1     -43.124  59.038 -57.981  1.00  0.00     0.159 HD
HETATM   29  O   UNL     1     -41.279  60.542 -57.188  1.00  0.00    -0.266 OA
ENDBRANCH   8  25
TORSDOF 3
ENDMDL
