MODEL 1
REMARK VINA RESULT:      -7.9      0.000      0.000
REMARK  6 active torsions:
REMARK  status: ('A' for Active; 'I' for Inactive)
REMARK    1  A    between atoms: C_3  and  C_4 
REMARK    2  A    between atoms: C_4  and  N_5 
REMARK    3  A    between atoms: N_5  and  C_6 
REMARK    4  A    between atoms: C_8  and  N_9 
REMARK    5  A    between atoms: C_11  and  N_12 
REMARK    6  A    between atoms: C_18  and  N_19 
ROOT
HETATM    1  C   UNL     1     -42.226  54.736 -52.713  1.00  0.00     0.110 A 
HETATM    2  N   UNL     1     -43.242  54.257 -51.983  1.00  0.00    -0.206 NA
HETATM    3  C   UNL     1     -43.681  55.006 -50.969  1.00  0.00     0.202 A 
HETATM    4  N   UNL     1     -43.202  56.203 -50.644  1.00  0.00    -0.199 NA
HETATM    5  C   UNL     1     -42.184  56.668 -51.405  1.00  0.00     0.156 A 
HETATM    6  C   UNL     1     -41.663  55.966 -52.472  1.00  0.00     0.096 A 
ENDROOT
BRANCH   1   7
HETATM    7  N   UNL     1     -41.814  53.905 -53.762  1.00  0.00    -0.273 NA
HETATM    8  H   UNL     1     -42.391  53.077 -53.616  1.00  0.00     0.129 HD
BRANCH   7   9
HETATM    9  C   UNL     1     -40.391  53.563 -53.736  1.00  0.00     0.134 C 
BRANCH   9  10
HETATM   10  C   UNL     1     -40.103  52.141 -53.262  1.00  0.00    -0.018 A 
HETATM   11  C   UNL     1     -39.983  51.098 -54.212  1.00  0.00     0.011 A 
HETATM   12  C   UNL     1     -39.682  49.785 -53.845  1.00  0.00     0.001 A 
HETATM   13  C   UNL     1     -39.485  49.470 -52.512  1.00  0.00     0.002 A 
HETATM   14  C   UNL     1     -39.593  50.468 -51.546  1.00  0.00     0.030 A 
HETATM   15  C   UNL     1     -39.911  51.800 -51.895  1.00  0.00     0.047 A 
BRANCH  15  16
HETATM   16  N   UNL     1     -40.008  52.733 -50.815  1.00  0.00    -0.315 N 
HETATM   17  C   UNL     1     -39.293  53.891 -50.598  1.00  0.00     0.214 A 
HETATM   18  N   UNL     1     -39.638  54.508 -49.488  1.00  0.00    -0.254 NA
HETATM   19  C   UNL     1     -40.649  53.759 -48.966  1.00  0.00     0.135 A 
HETATM   20  C   UNL     1     -40.914  52.677 -49.770  1.00  0.00     0.117 A 
ENDBRANCH  15  16
ENDBRANCH   9  10
ENDBRANCH   7   9
ENDBRANCH   1   7
BRANCH   3  21
HETATM   21  N   UNL     1     -44.736  54.519 -50.228  1.00  0.00    -0.271 NA
HETATM   22  H   UNL     1     -45.297  53.900 -50.799  1.00  0.00     0.127 HD
HETATM   23  H   UNL     1     -45.216  55.281 -49.769  1.00  0.00     0.127 HD
ENDBRANCH   3  21
BRANCH   5  24
HETATM   24  N   UNL     1     -41.630  57.939 -51.076  1.00  0.00    -0.227 N 
HETATM   25  N   UNL     1     -42.388  59.067 -50.992  1.00  0.00    -0.179 NA
HETATM   26  C   UNL     1     -41.516  60.031 -50.692  1.00  0.00     0.141 A 
HETATM   27  C   UNL     1     -40.202  59.555 -50.569  1.00  0.00     0.040 A 
HETATM   28  C   UNL     1     -40.300  58.207 -50.819  1.00  0.00     0.122 A 
ENDBRANCH   5  24
TORSDOF 6
ENDMDL
MODEL 2
REMARK VINA RESULT:      -7.5      1.429      2.910
REMARK  6 active torsions:
REMARK  status: ('A' for Active; 'I' for Inactive)
REMARK    1  A    between atoms: C_3  and  C_4 
REMARK    2  A    between atoms: C_4  and  N_5 
REMARK    3  A    between atoms: N_5  and  C_6 
REMARK    4  A    between atoms: C_8  and  N_9 
REMARK    5  A    between atoms: C_11  and  N_12 
REMARK    6  A    between atoms: C_18  and  N_19 
ROOT
HETATM    1  C   UNL     1     -41.654  54.418 -50.669  1.00  0.00     0.110 A 
HETATM    2  N   UNL     1     -42.925  54.208 -50.298  1.00  0.00    -0.206 NA
HETATM    3  C   UNL     1     -43.805  55.184 -50.529  1.00  0.00     0.202 A 
HETATM    4  N   UNL     1     -43.522  56.340 -51.122  1.00  0.00    -0.199 NA
HETATM    5  C   UNL     1     -42.234  56.520 -51.498  1.00  0.00     0.156 A 
HETATM    6  C   UNL     1     -41.254  55.570 -51.300  1.00  0.00     0.096 A 
ENDROOT
BRANCH   1   7
HETATM    7  N   UNL     1     -40.782  53.356 -50.402  1.00  0.00    -0.273 NA
HETATM    8  H   UNL     1     -40.439  53.592 -49.470  1.00  0.00     0.129 HD
BRANCH   7   9
HETATM    9  C   UNL     1     -39.675  53.232 -51.352  1.00  0.00     0.134 C 
BRANCH   9  10
HETATM   10  C   UNL     1     -39.804  52.046 -52.304  1.00  0.00    -0.018 A 
HETATM   11  C   UNL     1     -39.373  50.764 -51.884  1.00  0.00     0.011 A 
HETATM   12  C   UNL     1     -39.501  49.633 -52.692  1.00  0.00     0.001 A 
HETATM   13  C   UNL     1     -40.069  49.744 -53.949  1.00  0.00     0.002 A 
HETATM   14  C   UNL     1     -40.507  50.987 -54.398  1.00  0.00     0.030 A 
HETATM   15  C   UNL     1     -40.374  52.147 -53.602  1.00  0.00     0.047 A 
BRANCH  15  16
HETATM   16  N   UNL     1     -40.847  53.369 -54.176  1.00  0.00    -0.315 N 
HETATM   17  C   UNL     1     -40.131  54.387 -54.769  1.00  0.00     0.214 A 
HETATM   18  N   UNL     1     -40.891  55.376 -55.184  1.00  0.00    -0.254 NA
HETATM   19  C   UNL     1     -42.165  54.989 -54.898  1.00  0.00     0.135 A 
HETATM   20  C   UNL     1     -42.171  53.752 -54.300  1.00  0.00     0.117 A 
ENDBRANCH  15  16
ENDBRANCH   9  10
ENDBRANCH   7   9
ENDBRANCH   1   7
BRANCH   3  21
HETATM   21  N   UNL     1     -45.114  54.961 -50.160  1.00  0.00    -0.271 NA
HETATM   22  H   UNL     1     -45.636  54.608 -50.951  1.00  0.00     0.127 HD
HETATM   23  H   UNL     1     -45.484  55.776 -49.693  1.00  0.00     0.127 HD
ENDBRANCH   3  21
BRANCH   5  24
HETATM   24  N   UNL     1     -41.887  57.755 -52.119  1.00  0.00    -0.227 N 
HETATM   25  N   UNL     1     -40.788  57.889 -52.913  1.00  0.00    -0.179 NA
HETATM   26  C   UNL     1     -40.796  59.173 -53.276  1.00  0.00     0.141 A 
HETATM   27  C   UNL     1     -41.883  59.881 -52.742  1.00  0.00     0.040 A 
HETATM   28  C   UNL     1     -42.571  58.948 -52.004  1.00  0.00     0.122 A 
ENDBRANCH   5  24
TORSDOF 6
ENDMDL
MODEL 3
REMARK VINA RESULT:      -7.4      2.198      6.184
REMARK  6 active torsions:
REMARK  status: ('A' for Active; 'I' for Inactive)
REMARK    1  A    between atoms: C_3  and  C_4 
REMARK    2  A    between atoms: C_4  and  N_5 
REMARK    3  A    between atoms: N_5  and  C_6 
REMARK    4  A    between atoms: C_8  and  N_9 
REMARK    5  A    between atoms: C_11  and  N_12 
REMARK    6  A    between atoms: C_18  and  N_19 
ROOT
HETATM    1  C   UNL     1     -41.513  55.154 -50.694  1.00  0.00     0.110 A 
HETATM    2  N   UNL     1     -41.330  55.257 -49.370  1.00  0.00    -0.206 NA
HETATM    3  C   UNL     1     -40.762  54.226 -48.742  1.00  0.00     0.202 A 
HETATM    4  N   UNL     1     -40.340  53.113 -49.334  1.00  0.00    -0.199 NA
HETATM    5  C   UNL     1     -40.526  53.039 -50.672  1.00  0.00     0.156 A 
HETATM    6  C   UNL     1     -41.105  54.053 -51.407  1.00  0.00     0.096 A 
ENDROOT
BRANCH   1   7
HETATM    7  N   UNL     1     -42.111  56.268 -51.293  1.00  0.00    -0.273 NA
HETATM    8  H   UNL     1     -42.336  56.849 -50.485  1.00  0.00     0.129 HD
BRANCH   7   9
HETATM    9  C   UNL     1     -43.314  55.962 -52.069  1.00  0.00     0.134 C 
BRANCH   9  10
HETATM   10  C   UNL     1     -43.047  55.693 -53.547  1.00  0.00    -0.018 A 
HETATM   11  C   UNL     1     -43.425  54.450 -54.110  1.00  0.00     0.011 A 
HETATM   12  C   UNL     1     -43.244  54.157 -55.463  1.00  0.00     0.001 A 
HETATM   13  C   UNL     1     -42.683  55.102 -56.304  1.00  0.00     0.002 A 
HETATM   14  C   UNL     1     -42.299  56.338 -55.790  1.00  0.00     0.030 A 
HETATM   15  C   UNL     1     -42.460  56.649 -54.420  1.00  0.00     0.047 A 
BRANCH  15  16
HETATM   16  N   UNL     1     -42.015  57.944 -54.007  1.00  0.00    -0.315 N 
HETATM   17  C   UNL     1     -40.753  58.354 -53.638  1.00  0.00     0.214 A 
HETATM   18  N   UNL     1     -40.702  59.626 -53.304  1.00  0.00    -0.254 NA
HETATM   19  C   UNL     1     -41.967  60.093 -53.496  1.00  0.00     0.135 A 
HETATM   20  C   UNL     1     -42.789  59.090 -53.949  1.00  0.00     0.117 A 
ENDBRANCH  15  16
ENDBRANCH   9  10
ENDBRANCH   7   9
ENDBRANCH   1   7
BRANCH   3  21
HETATM   21  N   UNL     1     -40.562  54.341 -47.383  1.00  0.00    -0.271 NA
HETATM   22  H   UNL     1     -40.817  53.476 -46.926  1.00  0.00     0.127 HD
HETATM   23  H   UNL     1     -40.996  55.187 -47.041  1.00  0.00     0.127 HD
ENDBRANCH   3  21
BRANCH   5  24
HETATM   24  N   UNL     1     -40.105  51.853 -51.341  1.00  0.00    -0.227 N 
HETATM   25  N   UNL     1     -39.920  50.673 -50.687  1.00  0.00    -0.179 NA
HETATM   26  C   UNL     1     -39.511  49.829 -51.636  1.00  0.00     0.141 A 
HETATM   27  C   UNL     1     -39.433  50.431 -52.901  1.00  0.00     0.040 A 
HETATM   28  C   UNL     1     -39.821  51.732 -52.687  1.00  0.00     0.122 A 
ENDBRANCH   5  24
TORSDOF 6
ENDMDL
MODEL 4
REMARK VINA RESULT:      -7.4      2.424      6.966
REMARK  6 active torsions:
REMARK  status: ('A' for Active; 'I' for Inactive)
REMARK    1  A    between atoms: C_3  and  C_4 
REMARK    2  A    between atoms: C_4  and  N_5 
REMARK    3  A    between atoms: N_5  and  C_6 
REMARK    4  A    between atoms: C_8  and  N_9 
REMARK    5  A    between atoms: C_11  and  N_12 
REMARK    6  A    between atoms: C_18  and  N_19 
ROOT
HETATM    1  C   UNL     1     -41.831  55.432 -50.186  1.00  0.00     0.110 A 
HETATM    2  N   UNL     1     -41.495  55.158 -48.918  1.00  0.00    -0.206 NA
HETATM    3  C   UNL     1     -40.793  54.046 -48.691  1.00  0.00     0.202 A 
HETATM    4  N   UNL     1     -40.380  53.201 -49.631  1.00  0.00    -0.199 NA
HETATM    5  C   UNL     1     -40.723  53.507 -50.904  1.00  0.00     0.156 A 
HETATM    6  C   UNL     1     -41.448  54.633 -51.236  1.00  0.00     0.096 A 
ENDROOT
BRANCH   1   7
HETATM    7  N   UNL     1     -42.564  56.612 -50.358  1.00  0.00    -0.273 NA
HETATM    8  H   UNL     1     -42.556  57.005 -49.416  1.00  0.00     0.129 HD
BRANCH   7   9
HETATM    9  C   UNL     1     -43.935  56.407 -50.829  1.00  0.00     0.134 C 
BRANCH   9  10
HETATM   10  C   UNL     1     -44.494  57.575 -51.637  1.00  0.00    -0.018 A 
HETATM   11  C   UNL     1     -45.317  58.534 -50.999  1.00  0.00     0.011 A 
HETATM   12  C   UNL     1     -45.827  59.646 -51.672  1.00  0.00     0.001 A 
HETATM   13  C   UNL     1     -45.527  59.840 -53.008  1.00  0.00     0.002 A 
HETATM   14  C   UNL     1     -44.718  58.920 -53.672  1.00  0.00     0.030 A 
HETATM   15  C   UNL     1     -44.204  57.781 -53.013  1.00  0.00     0.047 A 
BRANCH  15  16
HETATM   16  N   UNL     1     -43.398  56.900 -53.802  1.00  0.00    -0.315 N 
HETATM   17  C   UNL     1     -42.058  56.988 -54.110  1.00  0.00     0.214 A 
HETATM   18  N   UNL     1     -41.640  56.002 -54.874  1.00  0.00    -0.254 NA
HETATM   19  C   UNL     1     -42.730  55.204 -55.049  1.00  0.00     0.135 A 
HETATM   20  C   UNL     1     -43.817  55.717 -54.384  1.00  0.00     0.117 A 
ENDBRANCH  15  16
ENDBRANCH   9  10
ENDBRANCH   7   9
ENDBRANCH   1   7
BRANCH   3  21
HETATM   21  N   UNL     1     -40.435  53.774 -47.388  1.00  0.00    -0.271 NA
HETATM   22  H   UNL     1     -41.033  54.289 -46.755  1.00  0.00     0.127 HD
HETATM   23  H   UNL     1     -39.438  53.888 -47.273  1.00  0.00     0.127 HD
ENDBRANCH   3  21
BRANCH   5  24
HETATM   24  N   UNL     1     -40.317  52.615 -51.939  1.00  0.00    -0.227 N 
HETATM   25  N   UNL     1     -39.748  51.406 -51.678  1.00  0.00    -0.179 NA
HETATM   26  C   UNL     1     -39.494  50.893 -52.884  1.00  0.00     0.141 A 
HETATM   27  C   UNL     1     -39.893  51.740 -53.929  1.00  0.00     0.040 A 
HETATM   28  C   UNL     1     -40.420  52.840 -53.297  1.00  0.00     0.122 A 
ENDBRANCH   5  24
TORSDOF 6
ENDMDL
MODEL 5
REMARK VINA RESULT:      -7.3      3.456      4.318
REMARK  6 active torsions:
REMARK  status: ('A' for Active; 'I' for Inactive)
REMARK    1  A    between atoms: C_3  and  C_4 
REMARK    2  A    between atoms: C_4  and  N_5 
REMARK    3  A    between atoms: N_5  and  C_6 
REMARK    4  A    between atoms: C_8  and  N_9 
REMARK    5  A    between atoms: C_11  and  N_12 
REMARK    6  A    between atoms: C_18  and  N_19 
ROOT
HETATM    1  C   UNL     1     -42.613  54.550 -55.027  1.00  0.00     0.110 A 
HETATM    2  N   UNL     1     -43.428  55.155 -54.153  1.00  0.00    -0.206 NA
HETATM    3  C   UNL     1     -43.943  56.335 -54.502  1.00  0.00     0.202 A 
HETATM    4  N   UNL     1     -43.728  56.946 -55.664  1.00  0.00    -0.199 NA
HETATM    5  C   UNL     1     -42.910  56.307 -56.533  1.00  0.00     0.156 A 
HETATM    6  C   UNL     1     -42.330  55.086 -56.260  1.00  0.00     0.096 A 
ENDROOT
BRANCH   1   7
HETATM    7  N   UNL     1     -42.108  53.315 -54.603  1.00  0.00    -0.273 NA
HETATM    8  H   UNL     1     -42.761  53.063 -53.860  1.00  0.00     0.129 HD
BRANCH   7   9
HETATM    9  C   UNL     1     -40.735  53.367 -54.097  1.00  0.00     0.134 C 
BRANCH   9  10
HETATM   10  C   UNL     1     -40.310  52.119 -53.328  1.00  0.00    -0.018 A 
HETATM   11  C   UNL     1     -39.978  50.940 -54.038  1.00  0.00     0.011 A 
HETATM   12  C   UNL     1     -39.544  49.779 -53.396  1.00  0.00     0.001 A 
HETATM   13  C   UNL     1     -39.422  49.758 -52.018  1.00  0.00     0.002 A 
HETATM   14  C   UNL     1     -39.736  50.899 -51.282  1.00  0.00     0.030 A 
HETATM   15  C   UNL     1     -40.191  52.080 -51.912  1.00  0.00     0.047 A 
BRANCH  15  16
HETATM   16  N   UNL     1     -40.496  53.181 -51.051  1.00  0.00    -0.315 N 
HETATM   17  C   UNL     1     -39.647  53.946 -50.282  1.00  0.00     0.214 A 
HETATM   18  N   UNL     1     -40.273  54.879 -49.599  1.00  0.00    -0.254 NA
HETATM   19  C   UNL     1     -41.582  54.762 -49.955  1.00  0.00     0.135 A 
HETATM   20  C   UNL     1     -41.746  53.744 -50.863  1.00  0.00     0.117 A 
ENDBRANCH  15  16
ENDBRANCH   9  10
ENDBRANCH   7   9
ENDBRANCH   1   7
BRANCH   3  21
HETATM   21  N   UNL     1     -44.793  56.949 -53.608  1.00  0.00    -0.271 NA
HETATM   22  H   UNL     1     -45.682  56.466 -53.595  1.00  0.00     0.127 HD
HETATM   23  H   UNL     1     -44.813  57.944 -53.779  1.00  0.00     0.127 HD
ENDBRANCH   3  21
BRANCH   5  24
HETATM   24  N   UNL     1     -42.639  56.939 -57.782  1.00  0.00    -0.227 N 
HETATM   25  N   UNL     1     -42.155  58.209 -57.867  1.00  0.00    -0.179 NA
HETATM   26  C   UNL     1     -42.060  58.440 -59.178  1.00  0.00     0.141 A 
HETATM   27  C   UNL     1     -42.464  57.342 -59.953  1.00  0.00     0.040 A 
HETATM   28  C   UNL     1     -42.830  56.389 -59.033  1.00  0.00     0.122 A 
ENDBRANCH   5  24
TORSDOF 6
ENDMDL
MODEL 6
REMARK VINA RESULT:      -7.3      4.415      6.057
REMARK  6 active torsions:
REMARK  status: ('A' for Active; 'I' for Inactive)
REMARK    1  A    between atoms: C_3  and  C_4 
REMARK    2  A    between atoms: C_4  and  N_5 
REMARK    3  A    between atoms: N_5  and  C_6 
REMARK    4  A    between atoms: C_8  and  N_9 
REMARK    5  A    between atoms: C_11  and  N_12 
REMARK    6  A    between atoms: C_18  and  N_19 
ROOT
HETATM    1  C   UNL     1     -42.212  56.017 -56.194  1.00  0.00     0.110 A 
HETATM    2  N   UNL     1     -42.319  57.283 -55.767  1.00  0.00    -0.206 NA
HETATM    3  C   UNL     1     -43.097  58.109 -56.468  1.00  0.00     0.202 A 
HETATM    4  N   UNL     1     -43.796  57.765 -57.546  1.00  0.00    -0.199 NA
HETATM    5  C   UNL     1     -43.680  56.478 -57.949  1.00  0.00     0.156 A 
HETATM    6  C   UNL     1     -42.898  55.552 -57.290  1.00  0.00     0.096 A 
ENDROOT
BRANCH   1   7
HETATM    7  N   UNL     1     -41.383  55.202 -55.415  1.00  0.00    -0.273 NA
HETATM    8  H   UNL     1     -40.654  54.942 -56.080  1.00  0.00     0.129 HD
BRANCH   7   9
HETATM    9  C   UNL     1     -42.045  54.014 -54.872  1.00  0.00     0.134 C 
BRANCH   9  10
HETATM   10  C   UNL     1     -41.186  53.218 -53.894  1.00  0.00    -0.018 A 
HETATM   11  C   UNL     1     -40.354  52.180 -54.380  1.00  0.00     0.011 A 
HETATM   12  C   UNL     1     -39.516  51.441 -53.543  1.00  0.00     0.001 A 
HETATM   13  C   UNL     1     -39.476  51.720 -52.188  1.00  0.00     0.002 A 
HETATM   14  C   UNL     1     -40.276  52.736 -51.670  1.00  0.00     0.030 A 
HETATM   15  C   UNL     1     -41.143  53.485 -52.498  1.00  0.00     0.047 A 
BRANCH  15  16
HETATM   16  N   UNL     1     -41.927  54.491 -51.851  1.00  0.00    -0.315 N 
HETATM   17  C   UNL     1     -43.181  54.389 -51.288  1.00  0.00     0.214 A 
HETATM   18  N   UNL     1     -43.611  55.525 -50.783  1.00  0.00    -0.254 NA
HETATM   19  C   UNL     1     -42.592  56.408 -50.977  1.00  0.00     0.135 A 
HETATM   20  C   UNL     1     -41.537  55.796 -51.609  1.00  0.00     0.117 A 
ENDBRANCH  15  16
ENDBRANCH   9  10
ENDBRANCH   7   9
ENDBRANCH   1   7
BRANCH   3  21
HETATM   21  N   UNL     1     -43.217  59.406 -56.018  1.00  0.00    -0.271 NA
HETATM   22  H   UNL     1     -42.649  60.019 -56.588  1.00  0.00     0.127 HD
HETATM   23  H   UNL     1     -43.070  59.440 -55.019  1.00  0.00     0.127 HD
ENDBRANCH   3  21
BRANCH   5  24
HETATM   24  N   UNL     1     -44.398  56.075 -59.112  1.00  0.00    -0.227 N 
HETATM   25  N   UNL     1     -45.567  56.663 -59.489  1.00  0.00    -0.179 NA
HETATM   26  C   UNL     1     -45.930  56.002 -60.590  1.00  0.00     0.141 A 
HETATM   27  C   UNL     1     -45.017  54.998 -60.946  1.00  0.00     0.040 A 
HETATM   28  C   UNL     1     -44.040  55.065 -59.983  1.00  0.00     0.122 A 
ENDBRANCH   5  24
TORSDOF 6
ENDMDL
MODEL 7
REMARK VINA RESULT:      -7.2      2.050      6.749
REMARK  6 active torsions:
REMARK  status: ('A' for Active; 'I' for Inactive)
REMARK    1  A    between atoms: C_3  and  C_4 
REMARK    2  A    between atoms: C_4  and  N_5 
REMARK    3  A    between atoms: N_5  and  C_6 
REMARK    4  A    between atoms: C_8  and  N_9 
REMARK    5  A    between atoms: C_11  and  N_12 
REMARK    6  A    between atoms: C_18  and  N_19 
ROOT
HETATM    1  C   UNL     1     -41.709  55.336 -50.089  1.00  0.00     0.110 A 
HETATM    2  N   UNL     1     -41.389  55.154 -48.800  1.00  0.00    -0.206 NA
HETATM    3  C   UNL     1     -40.706  54.053 -48.483  1.00  0.00     0.202 A 
HETATM    4  N   UNL     1     -40.298  53.133 -49.352  1.00  0.00    -0.199 NA
HETATM    5  C   UNL     1     -40.624  53.347 -50.648  1.00  0.00     0.156 A 
HETATM    6  C   UNL     1     -41.329  54.455 -51.072  1.00  0.00     0.096 A 
ENDROOT
BRANCH   1   7
HETATM    7  N   UNL     1     -42.422  56.511 -50.356  1.00  0.00    -0.273 NA
HETATM    8  H   UNL     1     -43.127  56.504 -49.619  1.00  0.00     0.129 HD
BRANCH   7   9
HETATM    9  C   UNL     1     -43.049  56.547 -51.679  1.00  0.00     0.134 C 
BRANCH   9  10
HETATM   10  C   UNL     1     -42.677  57.773 -52.508  1.00  0.00    -0.018 A 
HETATM   11  C   UNL     1     -42.680  59.053 -51.902  1.00  0.00     0.011 A 
HETATM   12  C   UNL     1     -42.312  60.208 -52.595  1.00  0.00     0.001 A 
HETATM   13  C   UNL     1     -41.923  60.122 -53.920  1.00  0.00     0.002 A 
HETATM   14  C   UNL     1     -41.905  58.881 -54.552  1.00  0.00     0.030 A 
HETATM   15  C   UNL     1     -42.287  57.703 -53.873  1.00  0.00     0.047 A 
BRANCH  15  16
HETATM   16  N   UNL     1     -42.242  56.490 -54.632  1.00  0.00    -0.315 N 
HETATM   17  C   UNL     1     -41.180  55.639 -54.850  1.00  0.00     0.214 A 
HETATM   18  N   UNL     1     -41.492  54.613 -55.610  1.00  0.00    -0.254 NA
HETATM   19  C   UNL     1     -42.820  54.759 -55.876  1.00  0.00     0.135 A 
HETATM   20  C   UNL     1     -43.312  55.889 -55.270  1.00  0.00     0.117 A 
ENDBRANCH  15  16
ENDBRANCH   9  10
ENDBRANCH   7   9
ENDBRANCH   1   7
BRANCH   3  21
HETATM   21  N   UNL     1     -40.365  53.875 -47.160  1.00  0.00    -0.271 NA
HETATM   22  H   UNL     1     -40.932  53.142 -46.756  1.00  0.00     0.127 HD
HETATM   23  H   UNL     1     -40.358  54.765 -46.683  1.00  0.00     0.127 HD
ENDBRANCH   3  21
BRANCH   5  24
HETATM   24  N   UNL     1     -40.222  52.374 -51.608  1.00  0.00    -0.227 N 
HETATM   25  N   UNL     1     -39.754  51.146 -51.251  1.00  0.00    -0.179 NA
HETATM   26  C   UNL     1     -39.467  50.551 -52.411  1.00  0.00     0.141 A 
HETATM   27  C   UNL     1     -39.746  51.363 -53.521  1.00  0.00     0.040 A 
HETATM   28  C   UNL     1     -40.232  52.529 -52.980  1.00  0.00     0.122 A 
ENDBRANCH   5  24
TORSDOF 6
ENDMDL
MODEL 8
REMARK VINA RESULT:      -7.1      2.249      6.659
REMARK  6 active torsions:
REMARK  status: ('A' for Active; 'I' for Inactive)
REMARK    1  A    between atoms: C_3  and  C_4 
REMARK    2  A    between atoms: C_4  and  N_5 
REMARK    3  A    between atoms: N_5  and  C_6 
REMARK    4  A    between atoms: C_8  and  N_9 
REMARK    5  A    between atoms: C_11  and  N_12 
REMARK    6  A    between atoms: C_18  and  N_19 
ROOT
HETATM    1  C   UNL     1     -41.505  55.682 -50.058  1.00  0.00     0.110 A 
HETATM    2  N   UNL     1     -41.220  55.337 -48.794  1.00  0.00    -0.206 NA
HETATM    3  C   UNL     1     -40.635  54.154 -48.594  1.00  0.00     0.202 A 
HETATM    4  N   UNL     1     -40.292  53.302 -49.555  1.00  0.00    -0.199 NA
HETATM    5  C   UNL     1     -40.580  53.680 -50.822  1.00  0.00     0.156 A 
HETATM    6  C   UNL     1     -41.184  54.882 -51.128  1.00  0.00     0.096 A 
ENDROOT
BRANCH   1   7
HETATM    7  N   UNL     1     -42.114  56.934 -50.201  1.00  0.00    -0.273 NA
HETATM    8  H   UNL     1     -43.053  56.680 -50.509  1.00  0.00     0.129 HD
BRANCH   7   9
HETATM    9  C   UNL     1     -41.464  57.812 -51.176  1.00  0.00     0.134 C 
BRANCH   9  10
HETATM   10  C   UNL     1     -42.142  57.831 -52.543  1.00  0.00    -0.018 A 
HETATM   11  C   UNL     1     -41.443  57.349 -53.676  1.00  0.00     0.011 A 
HETATM   12  C   UNL     1     -42.021  57.302 -54.946  1.00  0.00     0.001 A 
HETATM   13  C   UNL     1     -43.323  57.733 -55.126  1.00  0.00     0.002 A 
HETATM   14  C   UNL     1     -44.047  58.212 -54.037  1.00  0.00     0.030 A 
HETATM   15  C   UNL     1     -43.475  58.281 -52.746  1.00  0.00     0.047 A 
BRANCH  15  16
HETATM   16  N   UNL     1     -44.310  58.805 -51.709  1.00  0.00    -0.315 N 
HETATM   17  C   UNL     1     -45.298  58.175 -50.985  1.00  0.00     0.214 A 
HETATM   18  N   UNL     1     -45.877  58.966 -50.108  1.00  0.00    -0.254 NA
HETATM   19  C   UNL     1     -45.225  60.156 -50.220  1.00  0.00     0.135 A 
HETATM   20  C   UNL     1     -44.243  60.081 -51.178  1.00  0.00     0.117 A 
ENDBRANCH  15  16
ENDBRANCH   9  10
ENDBRANCH   7   9
ENDBRANCH   1   7
BRANCH   3  21
HETATM   21  N   UNL     1     -40.330  53.808 -47.295  1.00  0.00    -0.271 NA
HETATM   22  H   UNL     1     -40.738  54.478 -46.658  1.00  0.00     0.127 HD
HETATM   23  H   UNL     1     -39.338  53.637 -47.209  1.00  0.00     0.127 HD
ENDBRANCH   3  21
BRANCH   5  24
HETATM   24  N   UNL     1     -40.245  52.785 -51.879  1.00  0.00    -0.227 N 
HETATM   25  N   UNL     1     -39.579  51.617 -51.663  1.00  0.00    -0.179 NA
HETATM   26  C   UNL     1     -39.438  51.087 -52.880  1.00  0.00     0.141 A 
HETATM   27  C   UNL     1     -40.005  51.882 -53.887  1.00  0.00     0.040 A 
HETATM   28  C   UNL     1     -40.519  52.967 -53.220  1.00  0.00     0.122 A 
ENDBRANCH   5  24
TORSDOF 6
ENDMDL
MODEL 9
REMARK VINA RESULT:      -7.1      1.970      7.014
REMARK  6 active torsions:
REMARK  status: ('A' for Active; 'I' for Inactive)
REMARK    1  A    between atoms: C_3  and  C_4 
REMARK    2  A    between atoms: C_4  and  N_5 
REMARK    3  A    between atoms: N_5  and  C_6 
REMARK    4  A    between atoms: C_8  and  N_9 
REMARK    5  A    between atoms: C_11  and  N_12 
REMARK    6  A    between atoms: C_18  and  N_19 
ROOT
HETATM    1  C   UNL     1     -41.341  55.831 -49.977  1.00  0.00     0.110 A 
HETATM    2  N   UNL     1     -41.135  55.385 -48.730  1.00  0.00    -0.206 NA
HETATM    3  C   UNL     1     -40.661  54.146 -48.587  1.00  0.00     0.202 A 
HETATM    4  N   UNL     1     -40.354  53.328 -49.589  1.00  0.00    -0.199 NA
HETATM    5  C   UNL     1     -40.560  53.807 -50.838  1.00  0.00     0.156 A 
HETATM    6  C   UNL     1     -41.048  55.073 -51.085  1.00  0.00     0.096 A 
ENDROOT
BRANCH   1   7
HETATM    7  N   UNL     1     -41.836  57.137 -50.060  1.00  0.00    -0.273 NA
HETATM    8  H   UNL     1     -42.817  56.979 -50.291  1.00  0.00     0.129 HD
BRANCH   7   9
HETATM    9  C   UNL     1     -41.185  57.965 -51.077  1.00  0.00     0.134 C 
BRANCH   9  10
HETATM   10  C   UNL     1     -42.106  58.999 -51.718  1.00  0.00    -0.018 A 
HETATM   11  C   UNL     1     -42.212  60.290 -51.145  1.00  0.00     0.011 A 
HETATM   12  C   UNL     1     -43.006  61.292 -51.705  1.00  0.00     0.001 A 
HETATM   13  C   UNL     1     -43.720  61.040 -52.863  1.00  0.00     0.002 A 
HETATM   14  C   UNL     1     -43.641  59.783 -53.460  1.00  0.00     0.030 A 
HETATM   15  C   UNL     1     -42.854  58.750 -52.901  1.00  0.00     0.047 A 
BRANCH  15  16
HETATM   16  N   UNL     1     -42.864  57.499 -53.594  1.00  0.00    -0.315 N 
HETATM   17  C   UNL     1     -43.687  56.409 -53.412  1.00  0.00     0.214 A 
HETATM   18  N   UNL     1     -43.409  55.413 -54.225  1.00  0.00    -0.254 NA
HETATM   19  C   UNL     1     -42.391  55.868 -55.007  1.00  0.00     0.135 A 
HETATM   20  C   UNL     1     -42.051  57.153 -54.658  1.00  0.00     0.117 A 
ENDBRANCH  15  16
ENDBRANCH   9  10
ENDBRANCH   7   9
ENDBRANCH   1   7
BRANCH   3  21
HETATM   21  N   UNL     1     -40.436  53.695 -47.304  1.00  0.00    -0.271 NA
HETATM   22  H   UNL     1     -41.221  53.937 -46.714  1.00  0.00     0.127 HD
HETATM   23  H   UNL     1     -39.520  53.987 -46.992  1.00  0.00     0.127 HD
ENDBRANCH   3  21
BRANCH   5  24
HETATM   24  N   UNL     1     -40.262  52.953 -51.939  1.00  0.00    -0.227 N 
HETATM   25  N   UNL     1     -40.651  53.239 -53.212  1.00  0.00    -0.179 NA
HETATM   26  C   UNL     1     -40.211  52.206 -53.933  1.00  0.00     0.141 A 
HETATM   27  C   UNL     1     -39.535  51.252 -53.158  1.00  0.00     0.040 A 
HETATM   28  C   UNL     1     -39.578  51.754 -51.880  1.00  0.00     0.122 A 
ENDBRANCH   5  24
TORSDOF 6
ENDMDL
MODEL 10
REMARK VINA RESULT:      -7.0      4.954      7.671
REMARK  6 active torsions:
REMARK  status: ('A' for Active; 'I' for Inactive)
REMARK    1  A    between atoms: C_3  and  C_4 
REMARK    2  A    between atoms: C_4  and  N_5 
REMARK    3  A    between atoms: N_5  and  C_6 
REMARK    4  A    between atoms: C_8  and  N_9 
REMARK    5  A    between atoms: C_11  and  N_12 
REMARK    6  A    between atoms: C_18  and  N_19 
ROOT
HETATM    1  C   UNL     1     -43.202  55.159 -54.730  1.00  0.00     0.110 A 
HETATM    2  N   UNL     1     -43.741  55.692 -53.625  1.00  0.00    -0.206 NA
HETATM    3  C   UNL     1     -43.336  55.214 -52.447  1.00  0.00     0.202 A 
HETATM    4  N   UNL     1     -42.418  54.265 -52.285  1.00  0.00    -0.199 NA
HETATM    5  C   UNL     1     -41.882  53.752 -53.417  1.00  0.00     0.156 A 
HETATM    6  C   UNL     1     -42.238  54.181 -54.679  1.00  0.00     0.096 A 
ENDROOT
BRANCH   1   7
HETATM    7  N   UNL     1     -43.667  55.704 -55.932  1.00  0.00    -0.273 NA
HETATM    8  H   UNL     1     -44.581  55.261 -56.028  1.00  0.00     0.129 HD
BRANCH   7   9
HETATM    9  C   UNL     1     -42.821  55.416 -57.092  1.00  0.00     0.134 C 
BRANCH   9  10
HETATM   10  C   UNL     1     -43.524  55.599 -58.434  1.00  0.00    -0.018 A 
HETATM   11  C   UNL     1     -44.098  54.478 -59.080  1.00  0.00     0.011 A 
HETATM   12  C   UNL     1     -44.789  54.585 -60.289  1.00  0.00     0.001 A 
HETATM   13  C   UNL     1     -44.934  55.822 -60.892  1.00  0.00     0.002 A 
HETATM   14  C   UNL     1     -44.386  56.951 -60.286  1.00  0.00     0.030 A 
HETATM   15  C   UNL     1     -43.671  56.861 -59.071  1.00  0.00     0.047 A 
BRANCH  15  16
HETATM   16  N   UNL     1     -43.142  58.086 -58.554  1.00  0.00    -0.315 N 
HETATM   17  C   UNL     1     -41.864  58.592 -58.652  1.00  0.00     0.214 A 
HETATM   18  N   UNL     1     -41.722  59.751 -58.046  1.00  0.00    -0.254 NA
HETATM   19  C   UNL     1     -42.959  60.050 -57.560  1.00  0.00     0.135 A 
HETATM   20  C   UNL     1     -43.855  59.059 -57.877  1.00  0.00     0.117 A 
ENDBRANCH  15  16
ENDBRANCH   9  10
ENDBRANCH   7   9
ENDBRANCH   1   7
BRANCH   3  21
HETATM   21  N   UNL     1     -43.880  55.774 -51.311  1.00  0.00    -0.271 NA
HETATM   22  H   UNL     1     -44.300  55.052 -50.742  1.00  0.00     0.127 HD
HETATM   23  H   UNL     1     -44.464  56.560 -51.560  1.00  0.00     0.127 HD
ENDBRANCH   3  21
BRANCH   5  24
HETATM   24  N   UNL     1     -40.909  52.719 -53.286  1.00  0.00    -0.227 N 
HETATM   25  N   UNL     1     -40.207  52.518 -52.137  1.00  0.00    -0.179 NA
HETATM   26  C   UNL     1     -39.397  51.495 -52.418  1.00  0.00     0.141 A 
HETATM   27  C   UNL     1     -39.562  51.017 -53.727  1.00  0.00     0.040 A 
HETATM   28  C   UNL     1     -40.540  51.818 -54.265  1.00  0.00     0.122 A 
ENDBRANCH   5  24
TORSDOF 6
ENDMDL
