MODEL 1
REMARK VINA RESULT:      -9.8      0.000      0.000
REMARK  9 active torsions:
REMARK  status: ('A' for Active; 'I' for Inactive)
REMARK       I    between atoms: C_2  and  N_3 
REMARK    1  A    between atoms: N_3  and  C_4 
REMARK    2  A    between atoms: C_7  and  O_8 
REMARK    3  A    between atoms: O_8  and  C_9 
REMARK    4  A    between atoms: C_9  and  C_10 
REMARK    5  A    between atoms: C_11  and  O_12 
REMARK    6  A    between atoms: C_16  and  C_17 
REMARK    7  A    between atoms: C_31  and  O_32 
REMARK    8  A    between atoms: O_32  and  C_33 
REMARK    9  A    between atoms: C_33  and  C_34 
ROOT
HETATM    1  C   UNL     1     -42.631  60.377 -51.014  1.00  0.00     0.269 C 
HETATM    2  N   UNL     1     -41.640  60.217 -49.888  1.00  0.00    -0.061 N 
HETATM    3  H   UNL     1     -42.105  59.702 -49.133  1.00  0.00     0.278 HD
HETATM    4  H   UNL     1     -41.422  61.149 -49.518  1.00  0.00     0.278 HD
HETATM    5  C   UNL     1     -40.384  59.482 -50.286  1.00  0.00     0.238 C 
HETATM    6  C   UNL     1     -40.699  58.035 -50.712  1.00  0.00     0.069 C 
HETATM    7  C   UNL     1     -41.895  57.998 -51.603  1.00  0.00    -0.019 A 
HETATM    8  C   UNL     1     -42.775  59.061 -51.696  1.00  0.00     0.052 A 
HETATM    9  N   UNL     1     -43.765  58.719 -52.581  1.00  0.00    -0.356 N 
HETATM   10  H   UNL     1     -44.555  59.291 -52.857  1.00  0.00     0.166 HD
HETATM   11  C   UNL     1     -43.530  57.451 -53.068  1.00  0.00     0.043 A 
HETATM   12  C   UNL     1     -42.358  56.975 -52.475  1.00  0.00     0.002 A 
HETATM   13  C   UNL     1     -44.263  56.698 -53.987  1.00  0.00     0.033 A 
HETATM   14  C   UNL     1     -43.778  55.429 -54.313  1.00  0.00     0.039 A 
HETATM   15  C   UNL     1     -42.605  54.924 -53.751  1.00  0.00     0.070 A 
HETATM   16  C   UNL     1     -41.888  55.689 -52.823  1.00  0.00     0.051 A 
ENDROOT
BRANCH   1  17
HETATM   17  C   UNL     1     -43.928  60.977 -50.520  1.00  0.00    -0.021 A 
HETATM   18  C   UNL     1     -44.904  61.479 -51.391  1.00  0.00     0.012 A 
HETATM   19  C   UNL     1     -46.100  62.012 -50.895  1.00  0.00     0.038 A 
HETATM   20  C   UNL     1     -46.339  62.081 -49.519  1.00  0.00     0.076 A 
HETATM   21  C   UNL     1     -45.355  61.624 -48.628  1.00  0.00    -0.000 A 
HETATM   22  C   UNL     1     -44.169  61.058 -49.140  1.00  0.00     0.021 A 
BRANCH  20  23
HETATM   23  O   UNL     1     -47.483  62.568 -48.951  1.00  0.00    -0.355 OA
HETATM   24  C   UNL     1     -47.851  63.912 -49.235  1.00  0.00     0.210 C 
ENDBRANCH  20  23
BRANCH  21  25
HETATM   25  C   UNL     1     -45.528  61.721 -47.124  1.00  0.00     0.217 C 
BRANCH  25  26
HETATM   26  O   UNL     1     -45.110  63.030 -46.726  1.00  0.00    -0.347 OA
BRANCH  26  27
HETATM   27  C   UNL     1     -44.879  63.229 -45.395  1.00  0.00     0.069 A 
HETATM   28  C   UNL     1     -44.387  62.116 -44.713  1.00  0.00     0.039 A 
HETATM   29  C   UNL     1     -44.118  62.175 -43.341  1.00  0.00     0.032 A 
HETATM   30  C   UNL     1     -44.347  63.350 -42.627  1.00  0.00     0.034 A 
HETATM   31  C   UNL     1     -44.845  64.465 -43.314  1.00  0.00     0.032 A 
HETATM   32  C   UNL     1     -45.110  64.407 -44.688  1.00  0.00     0.039 A 
BRANCH  30  33
HETATM   33  N   UNL     1     -44.111  63.494 -41.243  1.00  0.00    -0.328 N 
HETATM   34  C   UNL     1     -45.053  63.546 -40.232  1.00  0.00     0.218 C 
HETATM   35  C   UNL     1     -44.442  63.709 -38.861  1.00  0.00     0.117 C 
HETATM   36  O   UNL     1     -46.271  63.480 -40.361  1.00  0.00    -0.274 OA
HETATM   37  H   UNL     1     -43.140  63.572 -40.968  1.00  0.00     0.169 HD
ENDBRANCH  30  33
ENDBRANCH  26  27
ENDBRANCH  25  26
ENDBRANCH  21  25
ENDBRANCH   1  17
BRANCH  15  38
HETATM   38  O   UNL     1     -42.270  53.669 -54.184  1.00  0.00    -0.347 OA
BRANCH  38  39
HETATM   39  C   UNL     1     -40.910  53.437 -54.541  1.00  0.00     0.214 C 
BRANCH  39  40
HETATM   40  C   UNL     1     -40.405  52.251 -53.756  1.00  0.00    -0.034 A 
HETATM   41  C   UNL     1     -40.058  52.376 -52.403  1.00  0.00     0.009 A 
HETATM   42  C   UNL     1     -39.598  51.270 -51.686  1.00  0.00     0.001 A 
HETATM   43  C   UNL     1     -39.475  50.032 -52.313  1.00  0.00     0.000 A 
HETATM   44  C   UNL     1     -39.809  49.897 -53.659  1.00  0.00     0.001 A 
HETATM   45  C   UNL     1     -40.270  51.001 -54.378  1.00  0.00     0.009 A 
ENDBRANCH  39  40
ENDBRANCH  38  39
ENDBRANCH  15  38
TORSDOF 9
ENDMDL
MODEL 2
REMARK VINA RESULT:      -9.6      5.729      6.972
REMARK  9 active torsions:
REMARK  status: ('A' for Active; 'I' for Inactive)
REMARK       I    between atoms: C_2  and  N_3 
REMARK    1  A    between atoms: N_3  and  C_4 
REMARK    2  A    between atoms: C_7  and  O_8 
REMARK    3  A    between atoms: O_8  and  C_9 
REMARK    4  A    between atoms: C_9  and  C_10 
REMARK    5  A    between atoms: C_11  and  O_12 
REMARK    6  A    between atoms: C_16  and  C_17 
REMARK    7  A    between atoms: C_31  and  O_32 
REMARK    8  A    between atoms: O_32  and  C_33 
REMARK    9  A    between atoms: C_33  and  C_34 
ROOT
HETATM    1  C   UNL     1     -44.892  58.981 -57.060  1.00  0.00     0.269 C 
HETATM    2  N   UNL     1     -44.103  59.269 -58.313  1.00  0.00    -0.061 N 
HETATM    3  H   UNL     1     -43.222  59.712 -58.033  1.00  0.00     0.278 HD
HETATM    4  H   UNL     1     -44.619  59.965 -58.864  1.00  0.00     0.278 HD
HETATM    5  C   UNL     1     -43.800  58.041 -59.134  1.00  0.00     0.238 C 
HETATM    6  C   UNL     1     -42.909  57.057 -58.352  1.00  0.00     0.069 C 
HETATM    7  C   UNL     1     -43.393  56.912 -56.948  1.00  0.00    -0.019 A 
HETATM    8  C   UNL     1     -44.266  57.817 -56.374  1.00  0.00     0.052 A 
HETATM    9  N   UNL     1     -44.510  57.416 -55.086  1.00  0.00    -0.356 N 
HETATM   10  H   UNL     1     -45.111  57.878 -54.412  1.00  0.00     0.166 HD
HETATM   11  C   UNL     1     -43.813  56.257 -54.824  1.00  0.00     0.043 A 
HETATM   12  C   UNL     1     -43.105  55.913 -55.979  1.00  0.00     0.002 A 
HETATM   13  C   UNL     1     -43.761  55.492 -53.657  1.00  0.00     0.033 A 
HETATM   14  C   UNL     1     -42.970  54.339 -53.677  1.00  0.00     0.039 A 
HETATM   15  C   UNL     1     -42.259  53.956 -54.815  1.00  0.00     0.070 A 
HETATM   16  C   UNL     1     -42.315  54.741 -55.973  1.00  0.00     0.051 A 
ENDROOT
BRANCH   1  17
HETATM   17  C   UNL     1     -45.029  60.220 -56.203  1.00  0.00    -0.021 A 
HETATM   18  C   UNL     1     -46.020  61.184 -56.430  1.00  0.00     0.012 A 
HETATM   19  C   UNL     1     -46.125  62.310 -55.603  1.00  0.00     0.038 A 
HETATM   20  C   UNL     1     -45.229  62.512 -54.549  1.00  0.00     0.076 A 
HETATM   21  C   UNL     1     -44.202  61.580 -54.333  1.00  0.00    -0.000 A 
HETATM   22  C   UNL     1     -44.127  60.433 -55.150  1.00  0.00     0.021 A 
BRANCH  20  23
HETATM   23  O   UNL     1     -45.270  63.571 -53.685  1.00  0.00    -0.355 OA
HETATM   24  C   UNL     1     -46.086  64.684 -54.028  1.00  0.00     0.210 C 
ENDBRANCH  20  23
BRANCH  21  25
HETATM   25  C   UNL     1     -43.165  61.769 -53.241  1.00  0.00     0.217 C 
BRANCH  25  26
HETATM   26  O   UNL     1     -42.034  60.960 -53.579  1.00  0.00    -0.347 OA
BRANCH  26  27
HETATM   27  C   UNL     1     -41.740  59.924 -52.739  1.00  0.00     0.069 A 
HETATM   28  C   UNL     1     -41.375  58.739 -53.377  1.00  0.00     0.039 A 
HETATM   29  C   UNL     1     -41.060  57.592 -52.638  1.00  0.00     0.032 A 
HETATM   30  C   UNL     1     -41.115  57.614 -51.245  1.00  0.00     0.034 A 
HETATM   31  C   UNL     1     -41.485  58.805 -50.607  1.00  0.00     0.032 A 
HETATM   32  C   UNL     1     -41.796  59.953 -51.347  1.00  0.00     0.039 A 
BRANCH  30  33
HETATM   33  N   UNL     1     -40.821  56.504 -50.425  1.00  0.00    -0.328 N 
HETATM   34  C   UNL     1     -41.697  55.526 -49.990  1.00  0.00     0.218 C 
HETATM   35  C   UNL     1     -41.037  54.484 -49.119  1.00  0.00     0.117 C 
HETATM   36  O   UNL     1     -42.896  55.452 -50.240  1.00  0.00    -0.274 OA
HETATM   37  H   UNL     1     -39.859  56.424 -50.119  1.00  0.00     0.169 HD
ENDBRANCH  30  33
ENDBRANCH  26  27
ENDBRANCH  25  26
ENDBRANCH  21  25
ENDBRANCH   1  17
BRANCH  15  38
HETATM   38  O   UNL     1     -41.541  52.800 -54.665  1.00  0.00    -0.347 OA
BRANCH  38  39
HETATM   39  C   UNL     1     -40.207  52.911 -54.177  1.00  0.00     0.214 C 
BRANCH  39  40
HETATM   40  C   UNL     1     -39.973  51.812 -53.169  1.00  0.00    -0.034 A 
HETATM   41  C   UNL     1     -39.952  52.087 -51.795  1.00  0.00     0.009 A 
HETATM   42  C   UNL     1     -39.741  51.060 -50.872  1.00  0.00     0.001 A 
HETATM   43  C   UNL     1     -39.545  49.753 -51.313  1.00  0.00     0.000 A 
HETATM   44  C   UNL     1     -39.557  49.469 -52.678  1.00  0.00     0.001 A 
HETATM   45  C   UNL     1     -39.767  50.493 -53.602  1.00  0.00     0.009 A 
ENDBRANCH  39  40
ENDBRANCH  38  39
ENDBRANCH  15  38
TORSDOF 9
ENDMDL
MODEL 3
REMARK VINA RESULT:      -9.5      1.610      2.295
REMARK  9 active torsions:
REMARK  status: ('A' for Active; 'I' for Inactive)
REMARK       I    between atoms: C_2  and  N_3 
REMARK    1  A    between atoms: N_3  and  C_4 
REMARK    2  A    between atoms: C_7  and  O_8 
REMARK    3  A    between atoms: O_8  and  C_9 
REMARK    4  A    between atoms: C_9  and  C_10 
REMARK    5  A    between atoms: C_11  and  O_12 
REMARK    6  A    between atoms: C_16  and  C_17 
REMARK    7  A    between atoms: C_31  and  O_32 
REMARK    8  A    between atoms: O_32  and  C_33 
REMARK    9  A    between atoms: C_33  and  C_34 
ROOT
HETATM    1  C   UNL     1     -41.940  60.170 -51.765  1.00  0.00     0.269 C 
HETATM    2  N   UNL     1     -41.703  59.910 -50.298  1.00  0.00    -0.061 N 
HETATM    3  H   UNL     1     -42.583  59.572 -49.895  1.00  0.00     0.278 HD
HETATM    4  H   UNL     1     -41.496  60.805 -49.843  1.00  0.00     0.278 HD
HETATM    5  C   UNL     1     -40.616  58.898 -50.030  1.00  0.00     0.238 C 
HETATM    6  C   UNL     1     -40.993  57.516 -50.598  1.00  0.00     0.069 C 
HETATM    7  C   UNL     1     -41.563  57.648 -51.970  1.00  0.00    -0.019 A 
HETATM    8  C   UNL     1     -42.017  58.858 -52.464  1.00  0.00     0.052 A 
HETATM    9  N   UNL     1     -42.485  58.650 -53.736  1.00  0.00    -0.356 N 
HETATM   10  H   UNL     1     -42.882  59.347 -54.356  1.00  0.00     0.166 HD
HETATM   11  C   UNL     1     -42.329  57.323 -54.073  1.00  0.00     0.043 A 
HETATM   12  C   UNL     1     -41.747  56.670 -52.984  1.00  0.00     0.002 A 
HETATM   13  C   UNL     1     -42.657  56.660 -55.258  1.00  0.00     0.033 A 
HETATM   14  C   UNL     1     -42.372  55.293 -55.331  1.00  0.00     0.039 A 
HETATM   15  C   UNL     1     -41.780  54.609 -54.268  1.00  0.00     0.070 A 
HETATM   16  C   UNL     1     -41.467  55.288 -53.085  1.00  0.00     0.051 A 
ENDROOT
BRANCH   1  17
HETATM   17  C   UNL     1     -43.139  61.068 -51.975  1.00  0.00    -0.021 A 
HETATM   18  C   UNL     1     -43.254  61.923 -53.078  1.00  0.00     0.012 A 
HETATM   19  C   UNL     1     -44.388  62.727 -53.246  1.00  0.00     0.038 A 
HETATM   20  C   UNL     1     -45.421  62.715 -52.304  1.00  0.00     0.076 A 
HETATM   21  C   UNL     1     -45.305  61.899 -51.168  1.00  0.00    -0.000 A 
HETATM   22  C   UNL     1     -44.174  61.068 -51.027  1.00  0.00     0.021 A 
BRANCH  20  23
HETATM   23  O   UNL     1     -46.569  63.453 -52.398  1.00  0.00    -0.355 OA
HETATM   24  C   UNL     1     -47.114  63.681 -53.692  1.00  0.00     0.210 C 
ENDBRANCH  20  23
BRANCH  21  25
HETATM   25  C   UNL     1     -46.364  61.881 -50.082  1.00  0.00     0.217 C 
BRANCH  25  26
HETATM   26  O   UNL     1     -45.893  61.025 -49.036  1.00  0.00    -0.347 OA
BRANCH  26  27
HETATM   27  C   UNL     1     -45.596  61.614 -47.840  1.00  0.00     0.069 A 
HETATM   28  C   UNL     1     -45.470  60.730 -46.768  1.00  0.00     0.039 A 
HETATM   29  C   UNL     1     -45.181  61.198 -45.481  1.00  0.00     0.032 A 
HETATM   30  C   UNL     1     -45.023  62.563 -45.246  1.00  0.00     0.034 A 
HETATM   31  C   UNL     1     -45.153  63.448 -46.324  1.00  0.00     0.032 A 
HETATM   32  C   UNL     1     -45.439  62.979 -47.613  1.00  0.00     0.039 A 
BRANCH  30  33
HETATM   33  N   UNL     1     -44.738  63.120 -43.981  1.00  0.00    -0.328 N 
HETATM   34  C   UNL     1     -43.726  62.755 -43.113  1.00  0.00     0.218 C 
HETATM   35  C   UNL     1     -43.717  63.566 -41.839  1.00  0.00     0.117 C 
HETATM   36  O   UNL     1     -42.892  61.872 -43.288  1.00  0.00    -0.274 OA
HETATM   37  H   UNL     1     -45.351  63.867 -43.680  1.00  0.00     0.169 HD
ENDBRANCH  30  33
ENDBRANCH  26  27
ENDBRANCH  25  26
ENDBRANCH  21  25
ENDBRANCH   1  17
BRANCH  15  38
HETATM   38  O   UNL     1     -41.564  53.278 -54.508  1.00  0.00    -0.347 OA
BRANCH  38  39
HETATM   39  C   UNL     1     -40.212  52.833 -54.585  1.00  0.00     0.214 C 
BRANCH  39  40
HETATM   40  C   UNL     1     -39.984  51.809 -53.500  1.00  0.00    -0.034 A 
HETATM   41  C   UNL     1     -39.910  52.190 -52.153  1.00  0.00     0.009 A 
HETATM   42  C   UNL     1     -39.704  51.232 -51.158  1.00  0.00     0.001 A 
HETATM   43  C   UNL     1     -39.566  49.888 -51.499  1.00  0.00     0.000 A 
HETATM   44  C   UNL     1     -39.631  49.499 -52.835  1.00  0.00     0.001 A 
HETATM   45  C   UNL     1     -39.836  50.453 -53.831  1.00  0.00     0.009 A 
ENDBRANCH  39  40
ENDBRANCH  38  39
ENDBRANCH  15  38
TORSDOF 9
ENDMDL
MODEL 4
REMARK VINA RESULT:      -9.3      6.449      8.387
REMARK  9 active torsions:
REMARK  status: ('A' for Active; 'I' for Inactive)
REMARK       I    between atoms: C_2  and  N_3 
REMARK    1  A    between atoms: N_3  and  C_4 
REMARK    2  A    between atoms: C_7  and  O_8 
REMARK    3  A    between atoms: O_8  and  C_9 
REMARK    4  A    between atoms: C_9  and  C_10 
REMARK    5  A    between atoms: C_11  and  O_12 
REMARK    6  A    between atoms: C_16  and  C_17 
REMARK    7  A    between atoms: C_31  and  O_32 
REMARK    8  A    between atoms: O_32  and  C_33 
REMARK    9  A    between atoms: C_33  and  C_34 
ROOT
HETATM    1  C   UNL     1     -45.347  57.591 -58.553  1.00  0.00     0.269 C 
HETATM    2  N   UNL     1     -44.601  57.577 -59.864  1.00  0.00    -0.061 N 
HETATM    3  H   UNL     1     -43.947  58.367 -59.859  1.00  0.00     0.278 HD
HETATM    4  H   UNL     1     -45.273  57.755 -60.617  1.00  0.00     0.278 HD
HETATM    5  C   UNL     1     -43.833  56.302 -60.110  1.00  0.00     0.238 C 
HETATM    6  C   UNL     1     -42.730  56.106 -59.051  1.00  0.00     0.069 C 
HETATM    7  C   UNL     1     -43.251  56.407 -57.687  1.00  0.00    -0.019 A 
HETATM    8  C   UNL     1     -44.424  57.112 -57.487  1.00  0.00     0.052 A 
HETATM    9  N   UNL     1     -44.625  57.231 -56.136  1.00  0.00    -0.356 N 
HETATM   10  H   UNL     1     -45.401  57.698 -55.678  1.00  0.00     0.166 HD
HETATM   11  C   UNL     1     -43.601  56.603 -55.460  1.00  0.00     0.043 A 
HETATM   12  C   UNL     1     -42.726  56.071 -56.410  1.00  0.00     0.002 A 
HETATM   13  C   UNL     1     -43.391  56.466 -54.087  1.00  0.00     0.033 A 
HETATM   14  C   UNL     1     -42.259  55.758 -53.676  1.00  0.00     0.039 A 
HETATM   15  C   UNL     1     -41.367  55.201 -54.594  1.00  0.00     0.070 A 
HETATM   16  C   UNL     1     -41.589  55.357 -55.967  1.00  0.00     0.051 A 
ENDROOT
BRANCH   1  17
HETATM   17  C   UNL     1     -45.966  58.945 -58.290  1.00  0.00    -0.021 A 
HETATM   18  C   UNL     1     -47.343  59.179 -58.410  1.00  0.00     0.012 A 
HETATM   19  C   UNL     1     -47.880  60.444 -58.142  1.00  0.00     0.038 A 
HETATM   20  C   UNL     1     -47.054  61.510 -57.773  1.00  0.00     0.076 A 
HETATM   21  C   UNL     1     -45.668  61.309 -57.691  1.00  0.00    -0.000 A 
HETATM   22  C   UNL     1     -45.142  60.022 -57.930  1.00  0.00     0.021 A 
BRANCH  20  23
HETATM   23  O   UNL     1     -47.496  62.770 -57.477  1.00  0.00    -0.355 OA
HETATM   24  C   UNL     1     -48.170  63.500 -58.495  1.00  0.00     0.210 C 
ENDBRANCH  20  23
BRANCH  21  25
HETATM   25  C   UNL     1     -44.713  62.437 -57.350  1.00  0.00     0.217 C 
BRANCH  25  26
HETATM   26  O   UNL     1     -43.396  61.880 -57.287  1.00  0.00    -0.347 OA
BRANCH  26  27
HETATM   27  C   UNL     1     -43.003  61.350 -56.091  1.00  0.00     0.069 A 
HETATM   28  C   UNL     1     -42.228  60.195 -56.189  1.00  0.00     0.039 A 
HETATM   29  C   UNL     1     -41.768  59.538 -55.042  1.00  0.00     0.032 A 
HETATM   30  C   UNL     1     -42.087  60.025 -53.775  1.00  0.00     0.034 A 
HETATM   31  C   UNL     1     -42.868  61.183 -53.680  1.00  0.00     0.032 A 
HETATM   32  C   UNL     1     -43.325  61.842 -54.829  1.00  0.00     0.039 A 
BRANCH  30  33
HETATM   33  N   UNL     1     -41.671  59.422 -52.569  1.00  0.00    -0.328 N 
HETATM   34  C   UNL     1     -40.390  59.032 -52.224  1.00  0.00     0.218 C 
HETATM   35  C   UNL     1     -40.309  58.415 -50.847  1.00  0.00     0.117 C 
HETATM   36  O   UNL     1     -39.381  59.138 -52.912  1.00  0.00    -0.274 OA
HETATM   37  H   UNL     1     -42.399  59.255 -51.886  1.00  0.00     0.169 HD
ENDBRANCH  30  33
ENDBRANCH  26  27
ENDBRANCH  25  26
ENDBRANCH  21  25
ENDBRANCH   1  17
BRANCH  15  38
HETATM   38  O   UNL     1     -40.316  54.535 -54.023  1.00  0.00    -0.347 OA
BRANCH  38  39
HETATM   39  C   UNL     1     -40.533  53.931 -52.750  1.00  0.00     0.214 C 
BRANCH  39  40
HETATM   40  C   UNL     1     -40.216  52.459 -52.860  1.00  0.00    -0.034 A 
HETATM   41  C   UNL     1     -40.332  51.786 -54.083  1.00  0.00     0.009 A 
HETATM   42  C   UNL     1     -40.031  50.425 -54.172  1.00  0.00     0.001 A 
HETATM   43  C   UNL     1     -39.616  49.725 -53.042  1.00  0.00     0.000 A 
HETATM   44  C   UNL     1     -39.504  50.383 -51.818  1.00  0.00     0.001 A 
HETATM   45  C   UNL     1     -39.804  51.742 -51.726  1.00  0.00     0.009 A 
ENDBRANCH  39  40
ENDBRANCH  38  39
ENDBRANCH  15  38
TORSDOF 9
ENDMDL
MODEL 5
REMARK VINA RESULT:      -9.2      5.258      9.276
REMARK  9 active torsions:
REMARK  status: ('A' for Active; 'I' for Inactive)
REMARK       I    between atoms: C_2  and  N_3 
REMARK    1  A    between atoms: N_3  and  C_4 
REMARK    2  A    between atoms: C_7  and  O_8 
REMARK    3  A    between atoms: O_8  and  C_9 
REMARK    4  A    between atoms: C_9  and  C_10 
REMARK    5  A    between atoms: C_11  and  O_12 
REMARK    6  A    between atoms: C_16  and  C_17 
REMARK    7  A    between atoms: C_31  and  O_32 
REMARK    8  A    between atoms: O_32  and  C_33 
REMARK    9  A    between atoms: C_33  and  C_34 
ROOT
HETATM    1  C   UNL     1     -42.740  60.215 -52.175  1.00  0.00     0.269 C 
HETATM    2  N   UNL     1     -42.224  60.868 -50.916  1.00  0.00    -0.061 N 
HETATM    3  H   UNL     1     -42.933  60.744 -50.187  1.00  0.00     0.278 HD
HETATM    4  H   UNL     1     -42.150  61.877 -51.087  1.00  0.00     0.278 HD
HETATM    5  C   UNL     1     -40.912  60.300 -50.434  1.00  0.00     0.238 C 
HETATM    6  C   UNL     1     -41.059  58.815 -50.049  1.00  0.00     0.069 C 
HETATM    7  C   UNL     1     -41.853  58.082 -51.077  1.00  0.00    -0.019 A 
HETATM    8  C   UNL     1     -42.634  58.739 -52.010  1.00  0.00     0.052 A 
HETATM    9  N   UNL     1     -43.239  57.796 -52.800  1.00  0.00    -0.356 N 
HETATM   10  H   UNL     1     -43.873  57.970 -53.572  1.00  0.00     0.166 HD
HETATM   11  C   UNL     1     -42.849  56.537 -52.395  1.00  0.00     0.043 A 
HETATM   12  C   UNL     1     -41.973  56.686 -51.318  1.00  0.00     0.002 A 
HETATM   13  C   UNL     1     -43.204  55.287 -52.906  1.00  0.00     0.033 A 
HETATM   14  C   UNL     1     -42.640  54.161 -52.301  1.00  0.00     0.039 A 
HETATM   15  C   UNL     1     -41.752  54.269 -51.230  1.00  0.00     0.070 A 
HETATM   16  C   UNL     1     -41.415  55.531 -50.725  1.00  0.00     0.051 A 
ENDROOT
BRANCH   1  17
HETATM   17  C   UNL     1     -44.125  60.714 -52.521  1.00  0.00    -0.021 A 
HETATM   18  C   UNL     1     -45.118  60.906 -51.552  1.00  0.00     0.012 A 
HETATM   19  C   UNL     1     -46.384  61.386 -51.910  1.00  0.00     0.038 A 
HETATM   20  C   UNL     1     -46.696  61.660 -53.245  1.00  0.00     0.076 A 
HETATM   21  C   UNL     1     -45.729  61.432 -54.237  1.00  0.00    -0.000 A 
HETATM   22  C   UNL     1     -44.447  60.981 -53.860  1.00  0.00     0.021 A 
BRANCH  20  23
HETATM   23  O   UNL     1     -47.898  62.147 -53.680  1.00  0.00    -0.355 OA
HETATM   24  C   UNL     1     -48.947  62.285 -52.729  1.00  0.00     0.210 C 
ENDBRANCH  20  23
BRANCH  21  25
HETATM   25  C   UNL     1     -46.022  61.657 -55.708  1.00  0.00     0.217 C 
BRANCH  25  26
HETATM   26  O   UNL     1     -44.858  61.263 -56.443  1.00  0.00    -0.347 OA
BRANCH  26  27
HETATM   27  C   UNL     1     -44.905  60.054 -57.077  1.00  0.00     0.069 A 
HETATM   28  C   UNL     1     -45.905  59.938 -58.042  1.00  0.00     0.039 A 
HETATM   29  C   UNL     1     -46.076  58.749 -58.760  1.00  0.00     0.032 A 
HETATM   30  C   UNL     1     -45.251  57.652 -58.515  1.00  0.00     0.034 A 
HETATM   31  C   UNL     1     -44.250  57.771 -57.543  1.00  0.00     0.032 A 
HETATM   32  C   UNL     1     -44.077  58.963 -56.827  1.00  0.00     0.039 A 
BRANCH  30  33
HETATM   33  N   UNL     1     -45.358  56.416 -59.186  1.00  0.00    -0.328 N 
HETATM   34  C   UNL     1     -44.564  55.950 -60.219  1.00  0.00     0.218 C 
HETATM   35  C   UNL     1     -44.967  54.578 -60.704  1.00  0.00     0.117 C 
HETATM   36  O   UNL     1     -43.621  56.537 -60.740  1.00  0.00    -0.274 OA
HETATM   37  H   UNL     1     -46.106  55.809 -58.876  1.00  0.00     0.169 HD
ENDBRANCH  30  33
ENDBRANCH  26  27
ENDBRANCH  25  26
ENDBRANCH  21  25
ENDBRANCH   1  17
BRANCH  15  38
HETATM   38  O   UNL     1     -41.289  53.069 -50.761  1.00  0.00    -0.347 OA
BRANCH  38  39
HETATM   39  C   UNL     1     -39.915  52.761 -50.983  1.00  0.00     0.214 C 
BRANCH  39  40
HETATM   40  C   UNL     1     -39.829  51.722 -52.075  1.00  0.00    -0.034 A 
HETATM   41  C   UNL     1     -39.964  52.078 -53.423  1.00  0.00     0.009 A 
HETATM   42  C   UNL     1     -39.877  51.108 -54.423  1.00  0.00     0.001 A 
HETATM   43  C   UNL     1     -39.657  49.774 -54.086  1.00  0.00     0.000 A 
HETATM   44  C   UNL     1     -39.528  49.406 -52.748  1.00  0.00     0.001 A 
HETATM   45  C   UNL     1     -39.615  50.374 -51.747  1.00  0.00     0.009 A 
ENDBRANCH  39  40
ENDBRANCH  38  39
ENDBRANCH  15  38
TORSDOF 9
ENDMDL
MODEL 6
REMARK VINA RESULT:      -9.1      6.264      9.505
REMARK  9 active torsions:
REMARK  status: ('A' for Active; 'I' for Inactive)
REMARK       I    between atoms: C_2  and  N_3 
REMARK    1  A    between atoms: N_3  and  C_4 
REMARK    2  A    between atoms: C_7  and  O_8 
REMARK    3  A    between atoms: O_8  and  C_9 
REMARK    4  A    between atoms: C_9  and  C_10 
REMARK    5  A    between atoms: C_11  and  O_12 
REMARK    6  A    between atoms: C_16  and  C_17 
REMARK    7  A    between atoms: C_31  and  O_32 
REMARK    8  A    between atoms: O_32  and  C_33 
REMARK    9  A    between atoms: C_33  and  C_34 
ROOT
HETATM    1  C   UNL     1     -44.222  57.905 -59.609  1.00  0.00     0.269 C 
HETATM    2  N   UNL     1     -44.293  56.871 -60.705  1.00  0.00    -0.061 N 
HETATM    3  H   UNL     1     -43.340  56.715 -61.050  1.00  0.00     0.278 HD
HETATM    4  H   UNL     1     -44.828  57.267 -61.486  1.00  0.00     0.278 HD
HETATM    5  C   UNL     1     -44.879  55.554 -60.258  1.00  0.00     0.238 C 
HETATM    6  C   UNL     1     -43.999  54.894 -59.179  1.00  0.00     0.069 C 
HETATM    7  C   UNL     1     -43.568  55.898 -58.164  1.00  0.00    -0.019 A 
HETATM    8  C   UNL     1     -43.649  57.259 -58.397  1.00  0.00     0.052 A 
HETATM    9  N   UNL     1     -43.173  57.910 -57.287  1.00  0.00    -0.356 N 
HETATM   10  H   UNL     1     -43.104  58.914 -57.158  1.00  0.00     0.166 HD
HETATM   11  C   UNL     1     -42.796  56.986 -56.337  1.00  0.00     0.043 A 
HETATM   12  C   UNL     1     -43.038  55.713 -56.858  1.00  0.00     0.002 A 
HETATM   13  C   UNL     1     -42.265  57.185 -55.061  1.00  0.00     0.033 A 
HETATM   14  C   UNL     1     -41.984  56.050 -54.296  1.00  0.00     0.039 A 
HETATM   15  C   UNL     1     -42.223  54.762 -54.778  1.00  0.00     0.070 A 
HETATM   16  C   UNL     1     -42.747  54.582 -56.064  1.00  0.00     0.051 A 
ENDROOT
BRANCH   1  17
HETATM   17  C   UNL     1     -43.487  59.143 -60.073  1.00  0.00    -0.021 A 
HETATM   18  C   UNL     1     -42.371  59.082 -60.918  1.00  0.00     0.012 A 
HETATM   19  C   UNL     1     -41.727  60.252 -61.339  1.00  0.00     0.038 A 
HETATM   20  C   UNL     1     -42.165  61.507 -60.907  1.00  0.00     0.076 A 
HETATM   21  C   UNL     1     -43.254  61.588 -60.025  1.00  0.00    -0.000 A 
HETATM   22  C   UNL     1     -43.916  60.405 -59.635  1.00  0.00     0.021 A 
BRANCH  20  23
HETATM   23  O   UNL     1     -41.608  62.698 -61.283  1.00  0.00    -0.355 OA
HETATM   24  C   UNL     1     -40.278  62.976 -60.863  1.00  0.00     0.210 C 
ENDBRANCH  20  23
BRANCH  21  25
HETATM   25  C   UNL     1     -43.745  62.914 -59.477  1.00  0.00     0.217 C 
BRANCH  25  26
HETATM   26  O   UNL     1     -42.943  63.231 -58.335  1.00  0.00    -0.347 OA
BRANCH  26  27
HETATM   27  C   UNL     1     -43.213  62.552 -57.180  1.00  0.00     0.069 A 
HETATM   28  C   UNL     1     -44.381  62.945 -56.530  1.00  0.00     0.039 A 
HETATM   29  C   UNL     1     -44.772  62.342 -55.328  1.00  0.00     0.032 A 
HETATM   30  C   UNL     1     -43.991  61.341 -54.754  1.00  0.00     0.034 A 
HETATM   31  C   UNL     1     -42.816  60.951 -55.409  1.00  0.00     0.032 A 
HETATM   32  C   UNL     1     -42.427  61.552 -56.614  1.00  0.00     0.039 A 
BRANCH  30  33
HETATM   33  N   UNL     1     -44.306  60.687 -53.545  1.00  0.00    -0.328 N 
HETATM   34  C   UNL     1     -44.929  59.461 -53.391  1.00  0.00     0.218 C 
HETATM   35  C   UNL     1     -45.112  59.067 -51.945  1.00  0.00     0.117 C 
HETATM   36  O   UNL     1     -45.324  58.722 -54.287  1.00  0.00    -0.274 OA
HETATM   37  H   UNL     1     -44.050  61.178 -52.698  1.00  0.00     0.169 HD
ENDBRANCH  30  33
ENDBRANCH  26  27
ENDBRANCH  25  26
ENDBRANCH  21  25
ENDBRANCH   1  17
BRANCH  15  38
HETATM   38  O   UNL     1     -41.897  53.764 -53.898  1.00  0.00    -0.347 OA
BRANCH  38  39
HETATM   39  C   UNL     1     -40.545  53.693 -53.455  1.00  0.00     0.214 C 
BRANCH  39  40
HETATM   40  C   UNL     1     -40.190  52.243 -53.232  1.00  0.00    -0.034 A 
HETATM   41  C   UNL     1     -40.279  51.310 -54.273  1.00  0.00     0.009 A 
HETATM   42  C   UNL     1     -39.943  49.972 -54.055  1.00  0.00     0.001 A 
HETATM   43  C   UNL     1     -39.520  49.554 -52.795  1.00  0.00     0.000 A 
HETATM   44  C   UNL     1     -39.436  50.471 -51.750  1.00  0.00     0.001 A 
HETATM   45  C   UNL     1     -39.771  51.808 -51.965  1.00  0.00     0.009 A 
ENDBRANCH  39  40
ENDBRANCH  38  39
ENDBRANCH  15  38
TORSDOF 9
ENDMDL
MODEL 7
REMARK VINA RESULT:      -9.1      5.776      8.979
REMARK  9 active torsions:
REMARK  status: ('A' for Active; 'I' for Inactive)
REMARK       I    between atoms: C_2  and  N_3 
REMARK    1  A    between atoms: N_3  and  C_4 
REMARK    2  A    between atoms: C_7  and  O_8 
REMARK    3  A    between atoms: O_8  and  C_9 
REMARK    4  A    between atoms: C_9  and  C_10 
REMARK    5  A    between atoms: C_11  and  O_12 
REMARK    6  A    between atoms: C_16  and  C_17 
REMARK    7  A    between atoms: C_31  and  O_32 
REMARK    8  A    between atoms: O_32  and  C_33 
REMARK    9  A    between atoms: C_33  and  C_34 
ROOT
HETATM    1  C   UNL     1     -44.222  57.972 -59.502  1.00  0.00     0.269 C 
HETATM    2  N   UNL     1     -44.044  57.004 -60.645  1.00  0.00    -0.061 N 
HETATM    3  H   UNL     1     -43.049  56.990 -60.890  1.00  0.00     0.278 HD
HETATM    4  H   UNL     1     -44.543  57.377 -61.461  1.00  0.00     0.278 HD
HETATM    5  C   UNL     1     -44.495  55.600 -60.326  1.00  0.00     0.238 C 
HETATM    6  C   UNL     1     -43.651  54.992 -59.189  1.00  0.00     0.069 C 
HETATM    7  C   UNL     1     -43.463  55.981 -58.088  1.00  0.00    -0.019 A 
HETATM    8  C   UNL     1     -43.696  57.332 -58.265  1.00  0.00     0.052 A 
HETATM    9  N   UNL     1     -43.426  57.970 -57.081  1.00  0.00    -0.356 N 
HETATM   10  H   UNL     1     -43.503  58.965 -56.899  1.00  0.00     0.166 HD
HETATM   11  C   UNL     1     -43.031  57.045 -56.139  1.00  0.00     0.043 A 
HETATM   12  C   UNL     1     -43.050  55.785 -56.742  1.00  0.00     0.002 A 
HETATM   13  C   UNL     1     -42.665  57.233 -54.805  1.00  0.00     0.033 A 
HETATM   14  C   UNL     1     -42.317  56.098 -54.067  1.00  0.00     0.039 A 
HETATM   15  C   UNL     1     -42.335  54.821 -54.630  1.00  0.00     0.070 A 
HETATM   16  C   UNL     1     -42.696  54.654 -55.972  1.00  0.00     0.051 A 
ENDROOT
BRANCH   1  17
HETATM   17  C   UNL     1     -43.611  59.318 -59.825  1.00  0.00    -0.021 A 
HETATM   18  C   UNL     1     -42.572  59.468 -60.752  1.00  0.00     0.012 A 
HETATM   19  C   UNL     1     -42.044  60.734 -61.037  1.00  0.00     0.038 A 
HETATM   20  C   UNL     1     -42.523  61.874 -60.385  1.00  0.00     0.076 A 
HETATM   21  C   UNL     1     -43.533  61.739 -59.420  1.00  0.00    -0.000 A 
HETATM   22  C   UNL     1     -44.081  60.465 -59.166  1.00  0.00     0.021 A 
BRANCH  20  23
HETATM   23  O   UNL     1     -42.078  63.146 -60.614  1.00  0.00    -0.355 OA
HETATM   24  C   UNL     1     -40.679  63.349 -60.768  1.00  0.00     0.210 C 
ENDBRANCH  20  23
BRANCH  21  25
HETATM   25  C   UNL     1     -44.058  62.928 -58.638  1.00  0.00     0.217 C 
BRANCH  25  26
HETATM   26  O   UNL     1     -44.995  62.431 -57.677  1.00  0.00    -0.347 OA
BRANCH  26  27
HETATM   27  C   UNL     1     -44.506  62.110 -56.443  1.00  0.00     0.069 A 
HETATM   28  C   UNL     1     -45.071  60.972 -55.868  1.00  0.00     0.039 A 
HETATM   29  C   UNL     1     -44.673  60.534 -54.599  1.00  0.00     0.032 A 
HETATM   30  C   UNL     1     -43.707  61.238 -53.882  1.00  0.00     0.034 A 
HETATM   31  C   UNL     1     -43.144  62.382 -54.461  1.00  0.00     0.032 A 
HETATM   32  C   UNL     1     -43.540  62.818 -55.733  1.00  0.00     0.039 A 
BRANCH  30  33
HETATM   33  N   UNL     1     -43.253  60.872 -52.597  1.00  0.00    -0.328 N 
HETATM   34  C   UNL     1     -42.078  60.216 -52.277  1.00  0.00     0.218 C 
HETATM   35  C   UNL     1     -41.915  59.982 -50.794  1.00  0.00     0.117 C 
HETATM   36  O   UNL     1     -41.218  59.829 -53.062  1.00  0.00    -0.274 OA
HETATM   37  H   UNL     1     -43.864  61.115 -51.828  1.00  0.00     0.169 HD
ENDBRANCH  30  33
ENDBRANCH  26  27
ENDBRANCH  25  26
ENDBRANCH  21  25
ENDBRANCH   1  17
BRANCH  15  38
HETATM   38  O   UNL     1     -41.973  53.822 -53.767  1.00  0.00    -0.347 OA
BRANCH  38  39
HETATM   39  C   UNL     1     -40.599  53.735 -53.398  1.00  0.00     0.214 C 
BRANCH  39  40
HETATM   40  C   UNL     1     -40.240  52.279 -53.231  1.00  0.00    -0.034 A 
HETATM   41  C   UNL     1     -39.803  51.781 -51.996  1.00  0.00     0.009 A 
HETATM   42  C   UNL     1     -39.479  50.430 -51.853  1.00  0.00     0.001 A 
HETATM   43  C   UNL     1     -39.585  49.566 -52.941  1.00  0.00     0.000 A 
HETATM   44  C   UNL     1     -40.012  50.052 -54.175  1.00  0.00     0.001 A 
HETATM   45  C   UNL     1     -40.336  51.401 -54.321  1.00  0.00     0.009 A 
ENDBRANCH  39  40
ENDBRANCH  38  39
ENDBRANCH  15  38
TORSDOF 9
ENDMDL
MODEL 8
REMARK VINA RESULT:      -8.8      2.283      3.867
REMARK  9 active torsions:
REMARK  status: ('A' for Active; 'I' for Inactive)
REMARK       I    between atoms: C_2  and  N_3 
REMARK    1  A    between atoms: N_3  and  C_4 
REMARK    2  A    between atoms: C_7  and  O_8 
REMARK    3  A    between atoms: O_8  and  C_9 
REMARK    4  A    between atoms: C_9  and  C_10 
REMARK    5  A    between atoms: C_11  and  O_12 
REMARK    6  A    between atoms: C_16  and  C_17 
REMARK    7  A    between atoms: C_31  and  O_32 
REMARK    8  A    between atoms: O_32  and  C_33 
REMARK    9  A    between atoms: C_33  and  C_34 
ROOT
HETATM    1  C   UNL     1     -45.241  59.599 -54.788  1.00  0.00     0.269 C 
HETATM    2  N   UNL     1     -45.023  59.994 -56.228  1.00  0.00    -0.061 N 
HETATM    3  H   UNL     1     -44.065  60.348 -56.313  1.00  0.00     0.278 HD
HETATM    4  H   UNL     1     -45.648  60.779 -56.443  1.00  0.00     0.278 HD
HETATM    5  C   UNL     1     -45.220  58.860 -57.203  1.00  0.00     0.238 C 
HETATM    6  C   UNL     1     -44.190  57.739 -56.965  1.00  0.00     0.069 C 
HETATM    7  C   UNL     1     -44.054  57.451 -55.508  1.00  0.00    -0.019 A 
HETATM    8  C   UNL     1     -44.509  58.327 -54.539  1.00  0.00     0.052 A 
HETATM    9  N   UNL     1     -44.231  57.785 -53.310  1.00  0.00    -0.356 N 
HETATM   10  H   UNL     1     -44.443  58.195 -52.407  1.00  0.00     0.166 HD
HETATM   11  C   UNL     1     -43.611  56.566 -53.474  1.00  0.00     0.043 A 
HETATM   12  C   UNL     1     -43.492  56.326 -54.845  1.00  0.00     0.002 A 
HETATM   13  C   UNL     1     -43.155  55.662 -52.512  1.00  0.00     0.033 A 
HETATM   14  C   UNL     1     -42.568  54.478 -52.968  1.00  0.00     0.039 A 
HETATM   15  C   UNL     1     -42.442  54.198 -54.329  1.00  0.00     0.070 A 
HETATM   16  C   UNL     1     -42.897  55.120 -55.279  1.00  0.00     0.051 A 
ENDROOT
BRANCH   1  17
HETATM   17  C   UNL     1     -44.878  60.730 -53.851  1.00  0.00    -0.021 A 
HETATM   18  C   UNL     1     -43.576  61.237 -53.754  1.00  0.00     0.012 A 
HETATM   19  C   UNL     1     -43.283  62.296 -52.885  1.00  0.00     0.038 A 
HETATM   20  C   UNL     1     -44.277  62.856 -52.077  1.00  0.00     0.076 A 
HETATM   21  C   UNL     1     -45.578  62.333 -52.126  1.00  0.00    -0.000 A 
HETATM   22  C   UNL     1     -45.869  61.289 -53.029  1.00  0.00     0.021 A 
BRANCH  20  23
HETATM   23  O   UNL     1     -44.083  63.901 -51.217  1.00  0.00    -0.355 OA
HETATM   24  C   UNL     1     -43.023  63.804 -50.273  1.00  0.00     0.210 C 
ENDBRANCH  20  23
BRANCH  21  25
HETATM   25  C   UNL     1     -46.688  62.858 -51.235  1.00  0.00     0.217 C 
BRANCH  25  26
HETATM   26  O   UNL     1     -46.949  61.863 -50.241  1.00  0.00    -0.347 OA
BRANCH  26  27
HETATM   27  C   UNL     1     -46.392  62.056 -49.009  1.00  0.00     0.069 A 
HETATM   28  C   UNL     1     -47.031  63.015 -48.222  1.00  0.00     0.039 A 
HETATM   29  C   UNL     1     -46.559  63.324 -46.941  1.00  0.00     0.032 A 
HETATM   30  C   UNL     1     -45.431  62.683 -46.432  1.00  0.00     0.034 A 
HETATM   31  C   UNL     1     -44.790  61.723 -47.225  1.00  0.00     0.032 A 
HETATM   32  C   UNL     1     -45.265  61.411 -48.506  1.00  0.00     0.039 A 
BRANCH  30  33
HETATM   33  N   UNL     1     -44.884  62.938 -45.156  1.00  0.00    -0.328 N 
HETATM   34  C   UNL     1     -44.356  62.017 -44.270  1.00  0.00     0.218 C 
HETATM   35  C   UNL     1     -43.860  62.645 -42.989  1.00  0.00     0.117 C 
HETATM   36  O   UNL     1     -44.273  60.805 -44.435  1.00  0.00    -0.274 OA
HETATM   37  H   UNL     1     -44.887  63.906 -44.861  1.00  0.00     0.169 HD
ENDBRANCH  30  33
ENDBRANCH  26  27
ENDBRANCH  25  26
ENDBRANCH  21  25
ENDBRANCH   1  17
BRANCH  15  38
HETATM   38  O   UNL     1     -41.851  52.993 -54.602  1.00  0.00    -0.347 OA
BRANCH  38  39
HETATM   39  C   UNL     1     -40.432  52.915 -54.488  1.00  0.00     0.214 C 
BRANCH  39  40
HETATM   40  C   UNL     1     -40.091  51.822 -53.503  1.00  0.00    -0.034 A 
HETATM   41  C   UNL     1     -39.917  52.107 -52.143  1.00  0.00     0.009 A 
HETATM   42  C   UNL     1     -39.607  51.086 -51.241  1.00  0.00     0.001 A 
HETATM   43  C   UNL     1     -39.465  49.775 -51.690  1.00  0.00     0.000 A 
HETATM   44  C   UNL     1     -39.629  49.482 -53.043  1.00  0.00     0.001 A 
HETATM   45  C   UNL     1     -39.938  50.499 -53.946  1.00  0.00     0.009 A 
ENDBRANCH  39  40
ENDBRANCH  38  39
ENDBRANCH  15  38
TORSDOF 9
ENDMDL
MODEL 9
REMARK VINA RESULT:      -8.7      5.293      8.741
REMARK  9 active torsions:
REMARK  status: ('A' for Active; 'I' for Inactive)
REMARK       I    between atoms: C_2  and  N_3 
REMARK    1  A    between atoms: N_3  and  C_4 
REMARK    2  A    between atoms: C_7  and  O_8 
REMARK    3  A    between atoms: O_8  and  C_9 
REMARK    4  A    between atoms: C_9  and  C_10 
REMARK    5  A    between atoms: C_11  and  O_12 
REMARK    6  A    between atoms: C_16  and  C_17 
REMARK    7  A    between atoms: C_31  and  O_32 
REMARK    8  A    between atoms: O_32  and  C_33 
REMARK    9  A    between atoms: C_33  and  C_34 
ROOT
HETATM    1  C   UNL     1     -43.888  58.207 -59.440  1.00  0.00     0.269 C 
HETATM    2  N   UNL     1     -43.900  57.226 -60.587  1.00  0.00    -0.061 N 
HETATM    3  H   UNL     1     -42.930  57.085 -60.888  1.00  0.00     0.278 HD
HETATM    4  H   UNL     1     -44.394  57.660 -61.375  1.00  0.00     0.278 HD
HETATM    5  C   UNL     1     -44.507  55.890 -60.234  1.00  0.00     0.238 C 
HETATM    6  C   UNL     1     -43.684  55.178 -59.144  1.00  0.00     0.069 C 
HETATM    7  C   UNL     1     -43.308  56.132 -58.061  1.00  0.00    -0.019 A 
HETATM    8  C   UNL     1     -43.378  57.503 -58.232  1.00  0.00     0.052 A 
HETATM    9  N   UNL     1     -42.962  58.099 -57.069  1.00  0.00    -0.356 N 
HETATM   10  H   UNL     1     -42.901  59.095 -56.888  1.00  0.00     0.166 HD
HETATM   11  C   UNL     1     -42.634  57.130 -56.146  1.00  0.00     0.043 A 
HETATM   12  C   UNL     1     -42.848  55.884 -56.739  1.00  0.00     0.002 A 
HETATM   13  C   UNL     1     -42.172  57.267 -54.836  1.00  0.00     0.033 A 
HETATM   14  C   UNL     1     -41.929  56.096 -54.112  1.00  0.00     0.039 A 
HETATM   15  C   UNL     1     -42.142  54.833 -54.666  1.00  0.00     0.070 A 
HETATM   16  C   UNL     1     -42.597  54.715 -55.985  1.00  0.00     0.051 A 
ENDROOT
BRANCH   1  17
HETATM   17  C   UNL     1     -43.131  59.464 -59.805  1.00  0.00    -0.021 A 
HETATM   18  C   UNL     1     -42.380  59.574 -60.983  1.00  0.00     0.012 A 
HETATM   19  C   UNL     1     -41.706  60.762 -61.294  1.00  0.00     0.038 A 
HETATM   20  C   UNL     1     -41.745  61.857 -60.426  1.00  0.00     0.076 A 
HETATM   21  C   UNL     1     -42.455  61.752 -59.220  1.00  0.00    -0.000 A 
HETATM   22  C   UNL     1     -43.157  60.563 -58.933  1.00  0.00     0.021 A 
BRANCH  20  23
HETATM   23  O   UNL     1     -41.132  63.057 -60.659  1.00  0.00    -0.355 OA
HETATM   24  C   UNL     1     -39.711  63.089 -60.687  1.00  0.00     0.210 C 
ENDBRANCH  20  23
BRANCH  21  25
HETATM   25  C   UNL     1     -42.491  62.883 -58.210  1.00  0.00     0.217 C 
BRANCH  25  26
HETATM   26  O   UNL     1     -43.795  62.892 -57.621  1.00  0.00    -0.347 OA
BRANCH  26  27
HETATM   27  C   UNL     1     -43.859  62.909 -56.256  1.00  0.00     0.069 A 
HETATM   28  C   UNL     1     -44.698  63.887 -55.722  1.00  0.00     0.039 A 
HETATM   29  C   UNL     1     -44.848  64.027 -54.338  1.00  0.00     0.032 A 
HETATM   30  C   UNL     1     -44.151  63.193 -53.465  1.00  0.00     0.034 A 
HETATM   31  C   UNL     1     -43.307  62.214 -54.004  1.00  0.00     0.032 A 
HETATM   32  C   UNL     1     -43.160  62.072 -55.391  1.00  0.00     0.039 A 
BRANCH  30  33
HETATM   33  N   UNL     1     -44.238  63.269 -52.059  1.00  0.00    -0.328 N 
HETATM   34  C   UNL     1     -43.457  64.033 -51.210  1.00  0.00     0.218 C 
HETATM   35  C   UNL     1     -43.828  63.868 -49.755  1.00  0.00     0.117 C 
HETATM   36  O   UNL     1     -42.540  64.781 -51.532  1.00  0.00    -0.274 OA
HETATM   37  H   UNL     1     -44.952  62.695 -51.629  1.00  0.00     0.169 HD
ENDBRANCH  30  33
ENDBRANCH  26  27
ENDBRANCH  25  26
ENDBRANCH  21  25
ENDBRANCH   1  17
BRANCH  15  38
HETATM   38  O   UNL     1     -41.861  53.794 -53.820  1.00  0.00    -0.347 OA
BRANCH  38  39
HETATM   39  C   UNL     1     -40.524  53.678 -53.341  1.00  0.00     0.214 C 
BRANCH  39  40
HETATM   40  C   UNL     1     -40.190  52.212 -53.207  1.00  0.00    -0.034 A 
HETATM   41  C   UNL     1     -39.725  51.686 -51.994  1.00  0.00     0.009 A 
HETATM   42  C   UNL     1     -39.425  50.327 -51.881  1.00  0.00     0.001 A 
HETATM   43  C   UNL     1     -39.583  49.482 -52.978  1.00  0.00     0.000 A 
HETATM   44  C   UNL     1     -40.038  49.996 -54.191  1.00  0.00     0.001 A 
HETATM   45  C   UNL     1     -40.338  51.353 -54.307  1.00  0.00     0.009 A 
ENDBRANCH  39  40
ENDBRANCH  38  39
ENDBRANCH  15  38
TORSDOF 9
ENDMDL
MODEL 10
REMARK VINA RESULT:      -8.6      7.395     12.614
REMARK  9 active torsions:
REMARK  status: ('A' for Active; 'I' for Inactive)
REMARK       I    between atoms: C_2  and  N_3 
REMARK    1  A    between atoms: N_3  and  C_4 
REMARK    2  A    between atoms: C_7  and  O_8 
REMARK    3  A    between atoms: O_8  and  C_9 
REMARK    4  A    between atoms: C_9  and  C_10 
REMARK    5  A    between atoms: C_11  and  O_12 
REMARK    6  A    between atoms: C_16  and  C_17 
REMARK    7  A    between atoms: C_31  and  O_32 
REMARK    8  A    between atoms: O_32  and  C_33 
REMARK    9  A    between atoms: C_33  and  C_34 
ROOT
HETATM    1  C   UNL     1     -43.452  57.295 -58.974  1.00  0.00     0.269 C 
HETATM    2  N   UNL     1     -43.604  55.834 -58.629  1.00  0.00    -0.061 N 
HETATM    3  H   UNL     1     -44.220  55.768 -57.812  1.00  0.00     0.278 HD
HETATM    4  H   UNL     1     -42.688  55.477 -58.337  1.00  0.00     0.278 HD
HETATM    5  C   UNL     1     -44.180  55.003 -59.750  1.00  0.00     0.238 C 
HETATM    6  C   UNL     1     -45.612  55.455 -60.095  1.00  0.00     0.069 C 
HETATM    7  C   UNL     1     -45.694  56.943 -60.155  1.00  0.00    -0.019 A 
HETATM    8  C   UNL     1     -44.717  57.756 -59.609  1.00  0.00     0.052 A 
HETATM    9  N   UNL     1     -45.083  59.061 -59.818  1.00  0.00    -0.356 N 
HETATM   10  H   UNL     1     -44.569  59.887 -59.531  1.00  0.00     0.166 HD
HETATM   11  C   UNL     1     -46.280  59.101 -60.501  1.00  0.00     0.043 A 
HETATM   12  C   UNL     1     -46.685  57.784 -60.732  1.00  0.00     0.002 A 
HETATM   13  C   UNL     1     -47.024  60.200 -60.931  1.00  0.00     0.033 A 
HETATM   14  C   UNL     1     -48.211  59.944 -61.624  1.00  0.00     0.039 A 
HETATM   15  C   UNL     1     -48.643  58.642 -61.884  1.00  0.00     0.070 A 
HETATM   16  C   UNL     1     -47.888  57.552 -61.436  1.00  0.00     0.051 A 
ENDROOT
BRANCH   1  17
HETATM   17  C   UNL     1     -43.021  58.099 -57.768  1.00  0.00    -0.021 A 
HETATM   18  C   UNL     1     -42.334  59.315 -57.883  1.00  0.00     0.012 A 
HETATM   19  C   UNL     1     -41.967  60.040 -56.742  1.00  0.00     0.038 A 
HETATM   20  C   UNL     1     -42.253  59.556 -55.462  1.00  0.00     0.076 A 
HETATM   21  C   UNL     1     -42.902  58.319 -55.325  1.00  0.00    -0.000 A 
HETATM   22  C   UNL     1     -43.297  57.615 -56.481  1.00  0.00     0.021 A 
BRANCH  20  23
HETATM   23  O   UNL     1     -41.948  60.205 -54.298  1.00  0.00    -0.355 OA
HETATM   24  C   UNL     1     -42.756  61.312 -53.917  1.00  0.00     0.210 C 
ENDBRANCH  20  23
BRANCH  21  25
HETATM   25  C   UNL     1     -43.193  57.713 -53.965  1.00  0.00     0.217 C 
BRANCH  25  26
HETATM   26  O   UNL     1     -41.949  57.257 -53.422  1.00  0.00    -0.347 OA
BRANCH  26  27
HETATM   27  C   UNL     1     -41.635  55.941 -53.613  1.00  0.00     0.069 A 
HETATM   28  C   UNL     1     -40.600  55.713 -54.520  1.00  0.00     0.039 A 
HETATM   29  C   UNL     1     -40.183  54.411 -54.820  1.00  0.00     0.032 A 
HETATM   30  C   UNL     1     -40.804  53.315 -54.224  1.00  0.00     0.034 A 
HETATM   31  C   UNL     1     -41.845  53.548 -53.316  1.00  0.00     0.032 A 
HETATM   32  C   UNL     1     -42.260  54.852 -53.012  1.00  0.00     0.039 A 
BRANCH  30  33
HETATM   33  N   UNL     1     -40.452  51.972 -54.475  1.00  0.00    -0.328 N 
HETATM   34  C   UNL     1     -39.684  51.143 -53.678  1.00  0.00     0.218 C 
HETATM   35  C   UNL     1     -39.505  49.761 -54.260  1.00  0.00     0.117 C 
HETATM   36  O   UNL     1     -39.166  51.432 -52.604  1.00  0.00    -0.274 OA
HETATM   37  H   UNL     1     -40.800  51.580 -55.340  1.00  0.00     0.169 HD
ENDBRANCH  30  33
ENDBRANCH  26  27
ENDBRANCH  25  26
ENDBRANCH  21  25
ENDBRANCH   1  17
BRANCH  15  38
HETATM   38  O   UNL     1     -49.821  58.570 -62.577  1.00  0.00    -0.347 OA
BRANCH  38  39
HETATM   39  C   UNL     1     -50.648  59.730 -62.594  1.00  0.00     0.214 C 
BRANCH  39  40
HETATM   40  C   UNL     1     -51.732  59.559 -61.557  1.00  0.00    -0.034 A 
HETATM   41  C   UNL     1     -51.800  60.401 -60.439  1.00  0.00     0.009 A 
HETATM   42  C   UNL     1     -52.811  60.237 -59.490  1.00  0.00     0.001 A 
HETATM   43  C   UNL     1     -53.759  59.228 -59.646  1.00  0.00     0.000 A 
HETATM   44  C   UNL     1     -53.697  58.379 -60.750  1.00  0.00     0.001 A 
HETATM   45  C   UNL     1     -52.688  58.542 -61.699  1.00  0.00     0.009 A 
ENDBRANCH  39  40
ENDBRANCH  38  39
ENDBRANCH  15  38
TORSDOF 9
ENDMDL
