MODEL 1
REMARK VINA RESULT:      -9.4      0.000      0.000
REMARK  7 active torsions:
REMARK  status: ('A' for Active; 'I' for Inactive)
REMARK    1  A    between atoms: N_7  and  C_8 
REMARK    2  A    between atoms: C_8  and  C_9 
REMARK       I    between atoms: C_9  and  N_10 
REMARK    3  A    between atoms: N_10  and  C_11 
REMARK    4  A    between atoms: C_11  and  C_12 
REMARK    5  A    between atoms: C_12  and  C_13 
REMARK    6  A    between atoms: C_12  and  C_23 
REMARK    7  A    between atoms: C_26  and  O_27 
ROOT
HETATM    1  C   UNL     1     -43.825  55.571 -54.849  1.00  0.00     0.136 C 
ENDROOT
BRANCH   1   2
HETATM    2  N   UNL     1     -43.030  56.554 -55.575  1.00  0.00    -0.359 N 
HETATM    3  C   UNL     1     -42.800  56.302 -56.922  1.00  0.00     0.236 C 
HETATM    4  O   UNL     1     -43.008  55.198 -57.427  1.00  0.00    -0.272 OA
HETATM    5  H   UNL     1     -43.136  57.530 -55.317  1.00  0.00     0.162 HD
BRANCH   3   6
HETATM    6  C   UNL     1     -42.501  57.515 -57.792  1.00  0.00     0.239 C 
BRANCH   6   7
HETATM    7  N   UNL     1     -43.512  57.851 -58.770  1.00  0.00    -0.259 N 
HETATM    8  C   UNL     1     -43.334  57.705 -60.110  1.00  0.00     0.326 C 
HETATM    9  N   UNL     1     -44.540  57.914 -60.733  1.00  0.00    -0.324 N 
HETATM   10  O   UNL     1     -42.315  57.397 -60.702  1.00  0.00    -0.247 OA
HETATM   11  C   UNL     1     -45.649  57.975 -59.794  1.00  0.00     0.119 C 
HETATM   12  H   UNL     1     -44.620  57.719 -61.724  1.00  0.00     0.165 HD
HETATM   13  C   UNL     1     -46.576  59.160 -60.130  1.00  0.00     0.019 C 
HETATM   14  C   UNL     1     -44.824  58.095 -58.487  1.00  0.00     0.257 C 
HETATM   15  C   UNL     1     -46.390  56.624 -59.759  1.00  0.00     0.041 C 
HETATM   16  C   UNL     1     -47.539  59.534 -58.997  1.00  0.00     0.013 C 
HETATM   17  C   UNL     1     -47.373  58.860 -61.420  1.00  0.00     0.007 C 
HETATM   18  C   UNL     1     -48.122  57.527 -61.366  1.00  0.00     0.001 C 
HETATM   19  C   UNL     1     -47.194  56.365 -61.031  1.00  0.00     0.003 C 
HETATM   20  O   UNL     1     -45.274  58.261 -57.359  1.00  0.00    -0.270 OA
ENDBRANCH   6   7
ENDBRANCH   3   6
ENDBRANCH   1   2
BRANCH   1  21
HETATM   21  C   UNL     1     -43.434  55.161 -53.418  1.00  0.00     0.071 C 
BRANCH  21  22
HETATM   22  C   UNL     1     -43.194  56.258 -52.406  1.00  0.00    -0.020 A 
HETATM   23  C   UNL     1     -42.085  57.184 -52.440  1.00  0.00    -0.001 A 
HETATM   24  C   UNL     1     -42.192  58.020 -51.329  1.00  0.00     0.042 A 
HETATM   25  C   UNL     1     -40.999  57.384 -53.318  1.00  0.00     0.014 A 
HETATM   26  C   UNL     1     -41.269  59.036 -51.048  1.00  0.00     0.030 A 
HETATM   27  N   UNL     1     -43.321  57.642 -50.649  1.00  0.00    -0.365 N 
HETATM   28  C   UNL     1     -40.203  59.208 -51.935  1.00  0.00     0.002 A 
HETATM   29  C   UNL     1     -40.068  58.397 -53.056  1.00  0.00     0.001 A 
HETATM   30  H   UNL     1     -43.654  58.082 -49.801  1.00  0.00     0.165 HD
HETATM   31  C   UNL     1     -43.936  56.597 -51.288  1.00  0.00     0.097 A 
ENDBRANCH  21  22
BRANCH  21  32
HETATM   32  C   UNL     1     -42.302  54.158 -53.293  1.00  0.00    -0.048 A 
HETATM   33  C   UNL     1     -41.897  53.447 -54.437  1.00  0.00     0.011 A 
HETATM   34  C   UNL     1     -40.851  52.526 -54.380  1.00  0.00     0.037 A 
HETATM   35  C   UNL     1     -40.179  52.291 -53.182  1.00  0.00     0.068 A 
HETATM   36  C   UNL     1     -40.569  52.986 -52.037  1.00  0.00     0.037 A 
HETATM   37  C   UNL     1     -41.617  53.918 -52.095  1.00  0.00     0.011 A 
BRANCH  35  38
HETATM   38  O   UNL     1     -39.175  51.366 -53.268  1.00  0.00    -0.356 OA
HETATM   39  C   UNL     1     -39.429  50.217 -54.063  1.00  0.00     0.210 C 
ENDBRANCH  35  38
ENDBRANCH  21  32
ENDBRANCH   1  21
TORSDOF 7
ENDMDL
MODEL 2
REMARK VINA RESULT:      -9.1      3.313      9.032
REMARK  7 active torsions:
REMARK  status: ('A' for Active; 'I' for Inactive)
REMARK    1  A    between atoms: N_7  and  C_8 
REMARK    2  A    between atoms: C_8  and  C_9 
REMARK       I    between atoms: C_9  and  N_10 
REMARK    3  A    between atoms: N_10  and  C_11 
REMARK    4  A    between atoms: C_11  and  C_12 
REMARK    5  A    between atoms: C_12  and  C_13 
REMARK    6  A    between atoms: C_12  and  C_23 
REMARK    7  A    between atoms: C_26  and  O_27 
ROOT
HETATM    1  C   UNL     1     -43.684  60.548 -57.060  1.00  0.00     0.136 C 
ENDROOT
BRANCH   1   2
HETATM    2  N   UNL     1     -43.789  59.487 -56.066  1.00  0.00    -0.359 N 
HETATM    3  C   UNL     1     -42.741  59.372 -55.161  1.00  0.00     0.236 C 
HETATM    4  O   UNL     1     -41.660  59.935 -55.333  1.00  0.00    -0.272 OA
HETATM    5  H   UNL     1     -44.713  59.265 -55.708  1.00  0.00     0.162 HD
BRANCH   3   6
HETATM    6  C   UNL     1     -43.071  58.707 -53.831  1.00  0.00     0.239 C 
BRANCH   6   7
HETATM    7  N   UNL     1     -42.826  57.284 -53.762  1.00  0.00    -0.259 N 
HETATM    8  C   UNL     1     -43.451  56.377 -54.559  1.00  0.00     0.326 C 
HETATM    9  N   UNL     1     -42.848  55.156 -54.385  1.00  0.00    -0.324 N 
HETATM   10  O   UNL     1     -44.362  56.572 -55.345  1.00  0.00    -0.247 OA
HETATM   11  C   UNL     1     -41.612  55.249 -53.624  1.00  0.00     0.119 C 
HETATM   12  H   UNL     1     -43.104  54.391 -54.997  1.00  0.00     0.165 HD
HETATM   13  C   UNL     1     -41.553  54.142 -52.552  1.00  0.00     0.019 C 
HETATM   14  C   UNL     1     -41.781  56.700 -53.105  1.00  0.00     0.257 C 
HETATM   15  C   UNL     1     -40.400  55.229 -54.575  1.00  0.00     0.041 C 
HETATM   16  C   UNL     1     -40.494  54.383 -51.470  1.00  0.00     0.013 C 
HETATM   17  C   UNL     1     -41.317  52.769 -53.222  1.00  0.00     0.007 C 
HETATM   18  C   UNL     1     -40.099  52.754 -54.147  1.00  0.00     0.001 C 
HETATM   19  C   UNL     1     -40.169  53.854 -55.200  1.00  0.00     0.003 C 
HETATM   20  O   UNL     1     -41.037  57.282 -52.325  1.00  0.00    -0.270 OA
ENDBRANCH   6   7
ENDBRANCH   3   6
ENDBRANCH   1   2
BRANCH   1  21
HETATM   21  C   UNL     1     -43.300  60.215 -58.513  1.00  0.00     0.071 C 
BRANCH  21  22
HETATM   22  C   UNL     1     -43.000  58.774 -58.855  1.00  0.00    -0.020 A 
HETATM   23  C   UNL     1     -43.966  57.831 -59.372  1.00  0.00    -0.001 A 
HETATM   24  C   UNL     1     -43.323  56.604 -59.532  1.00  0.00     0.042 A 
HETATM   25  C   UNL     1     -45.332  57.913 -59.717  1.00  0.00     0.014 A 
HETATM   26  C   UNL     1     -43.973  55.459 -60.010  1.00  0.00     0.030 A 
HETATM   27  N   UNL     1     -42.018  56.782 -59.150  1.00  0.00    -0.365 N 
HETATM   28  C   UNL     1     -45.326  55.571 -60.342  1.00  0.00     0.002 A 
HETATM   29  C   UNL     1     -45.998  56.781 -60.200  1.00  0.00     0.001 A 
HETATM   30  H   UNL     1     -41.311  56.059 -59.169  1.00  0.00     0.165 HD
HETATM   31  C   UNL     1     -41.809  58.077 -58.753  1.00  0.00     0.097 A 
ENDBRANCH  21  22
BRANCH  21  32
HETATM   32  C   UNL     1     -42.214  61.075 -59.133  1.00  0.00    -0.048 A 
HETATM   33  C   UNL     1     -41.255  61.667 -58.293  1.00  0.00     0.011 A 
HETATM   34  C   UNL     1     -40.227  62.453 -58.814  1.00  0.00     0.037 A 
HETATM   35  C   UNL     1     -40.127  62.668 -60.187  1.00  0.00     0.068 A 
HETATM   36  C   UNL     1     -41.073  62.092 -61.035  1.00  0.00     0.037 A 
HETATM   37  C   UNL     1     -42.103  61.295 -60.513  1.00  0.00     0.011 A 
BRANCH  35  38
HETATM   38  O   UNL     1     -39.074  63.456 -60.562  1.00  0.00    -0.356 OA
HETATM   39  C   UNL     1     -38.440  64.209 -59.537  1.00  0.00     0.210 C 
ENDBRANCH  35  38
ENDBRANCH  21  32
ENDBRANCH   1  21
TORSDOF 7
ENDMDL
MODEL 3
REMARK VINA RESULT:      -9.1      3.690      8.300
REMARK  7 active torsions:
REMARK  status: ('A' for Active; 'I' for Inactive)
REMARK    1  A    between atoms: N_7  and  C_8 
REMARK    2  A    between atoms: C_8  and  C_9 
REMARK       I    between atoms: C_9  and  N_10 
REMARK    3  A    between atoms: N_10  and  C_11 
REMARK    4  A    between atoms: C_11  and  C_12 
REMARK    5  A    between atoms: C_12  and  C_13 
REMARK    6  A    between atoms: C_12  and  C_23 
REMARK    7  A    between atoms: C_26  and  O_27 
ROOT
HETATM    1  C   UNL     1     -42.502  61.103 -57.455  1.00  0.00     0.136 C 
ENDROOT
BRANCH   1   2
HETATM    2  N   UNL     1     -42.162  60.857 -56.059  1.00  0.00    -0.359 N 
HETATM    3  C   UNL     1     -43.220  60.646 -55.185  1.00  0.00     0.236 C 
HETATM    4  O   UNL     1     -44.384  60.913 -55.486  1.00  0.00    -0.272 OA
HETATM    5  H   UNL     1     -41.313  60.336 -55.866  1.00  0.00     0.162 HD
BRANCH   3   6
HETATM    6  C   UNL     1     -42.903  59.851 -53.925  1.00  0.00     0.239 C 
BRANCH   6   7
HETATM    7  N   UNL     1     -42.208  58.600 -54.128  1.00  0.00    -0.259 N 
HETATM    8  C   UNL     1     -40.933  58.377 -53.713  1.00  0.00     0.326 C 
HETATM    9  N   UNL     1     -40.652  57.042 -53.873  1.00  0.00    -0.324 N 
HETATM   10  O   UNL     1     -40.151  59.176 -53.230  1.00  0.00    -0.247 OA
HETATM   11  C   UNL     1     -41.835  56.257 -54.187  1.00  0.00     0.119 C 
HETATM   12  H   UNL     1     -39.787  56.674 -53.494  1.00  0.00     0.165 HD
HETATM   13  C   UNL     1     -41.543  55.278 -55.342  1.00  0.00     0.019 C 
HETATM   14  C   UNL     1     -42.798  57.429 -54.507  1.00  0.00     0.257 C 
HETATM   15  C   UNL     1     -42.358  55.553 -52.920  1.00  0.00     0.041 C 
HETATM   16  C   UNL     1     -42.802  54.691 -55.991  1.00  0.00     0.013 C 
HETATM   17  C   UNL     1     -40.625  54.137 -54.848  1.00  0.00     0.007 C 
HETATM   18  C   UNL     1     -41.163  53.430 -53.603  1.00  0.00     0.001 C 
HETATM   19  C   UNL     1     -41.450  54.410 -52.470  1.00  0.00     0.003 C 
HETATM   20  O   UNL     1     -43.948  57.331 -54.919  1.00  0.00    -0.270 OA
ENDBRANCH   6   7
ENDBRANCH   3   6
ENDBRANCH   1   2
BRANCH   1  21
HETATM   21  C   UNL     1     -41.883  60.240 -58.569  1.00  0.00     0.071 C 
BRANCH  21  22
HETATM   22  C   UNL     1     -41.602  60.895 -59.901  1.00  0.00    -0.020 A 
HETATM   23  C   UNL     1     -40.672  61.982 -60.106  1.00  0.00    -0.001 A 
HETATM   24  C   UNL     1     -40.712  62.332 -61.455  1.00  0.00     0.042 A 
HETATM   25  C   UNL     1     -39.797  62.700 -59.262  1.00  0.00     0.014 A 
HETATM   26  C   UNL     1     -39.934  63.362 -62.000  1.00  0.00     0.030 A 
HETATM   27  N   UNL     1     -41.612  61.492 -62.061  1.00  0.00    -0.365 N 
HETATM   28  C   UNL     1     -39.080  64.056 -61.138  1.00  0.00     0.002 A 
HETATM   29  C   UNL     1     -39.009  63.730 -59.788  1.00  0.00     0.001 A 
HETATM   30  H   UNL     1     -41.840  61.510 -63.046  1.00  0.00     0.165 HD
HETATM   31  C   UNL     1     -42.143  60.621 -61.145  1.00  0.00     0.097 A 
ENDBRANCH  21  22
BRANCH  21  32
HETATM   32  C   UNL     1     -42.559  58.908 -58.839  1.00  0.00    -0.048 A 
HETATM   33  C   UNL     1     -41.820  57.888 -59.463  1.00  0.00     0.011 A 
HETATM   34  C   UNL     1     -42.389  56.640 -59.719  1.00  0.00     0.037 A 
HETATM   35  C   UNL     1     -43.708  56.375 -59.358  1.00  0.00     0.068 A 
HETATM   36  C   UNL     1     -44.457  57.378 -58.741  1.00  0.00     0.037 A 
HETATM   37  C   UNL     1     -43.884  58.631 -58.476  1.00  0.00     0.011 A 
BRANCH  35  38
HETATM   38  O   UNL     1     -44.138  55.114 -59.665  1.00  0.00    -0.356 OA
HETATM   39  C   UNL     1     -45.010  54.988 -60.779  1.00  0.00     0.210 C 
ENDBRANCH  35  38
ENDBRANCH  21  32
ENDBRANCH   1  21
TORSDOF 7
ENDMDL
MODEL 4
REMARK VINA RESULT:      -9.0      2.231      3.318
REMARK  7 active torsions:
REMARK  status: ('A' for Active; 'I' for Inactive)
REMARK    1  A    between atoms: N_7  and  C_8 
REMARK    2  A    between atoms: C_8  and  C_9 
REMARK       I    between atoms: C_9  and  N_10 
REMARK    3  A    between atoms: N_10  and  C_11 
REMARK    4  A    between atoms: C_11  and  C_12 
REMARK    5  A    between atoms: C_12  and  C_13 
REMARK    6  A    between atoms: C_12  and  C_23 
REMARK    7  A    between atoms: C_26  and  O_27 
ROOT
HETATM    1  C   UNL     1     -43.670  54.833 -54.603  1.00  0.00     0.136 C 
ENDROOT
BRANCH   1   2
HETATM    2  N   UNL     1     -43.936  55.901 -55.558  1.00  0.00    -0.359 N 
HETATM    3  C   UNL     1     -43.185  55.897 -56.727  1.00  0.00     0.236 C 
HETATM    4  O   UNL     1     -42.168  55.213 -56.851  1.00  0.00    -0.272 OA
HETATM    5  H   UNL     1     -44.893  56.227 -55.646  1.00  0.00     0.162 HD
BRANCH   3   6
HETATM    6  C   UNL     1     -43.805  56.598 -57.929  1.00  0.00     0.239 C 
BRANCH   6   7
HETATM    7  N   UNL     1     -43.043  57.697 -58.478  1.00  0.00    -0.259 N 
HETATM    8  C   UNL     1     -42.286  57.594 -59.602  1.00  0.00     0.326 C 
HETATM    9  N   UNL     1     -41.869  58.853 -59.962  1.00  0.00    -0.324 N 
HETATM   10  O   UNL     1     -42.031  56.591 -60.245  1.00  0.00    -0.247 OA
HETATM   11  C   UNL     1     -42.544  59.899 -59.209  1.00  0.00     0.119 C 
HETATM   12  H   UNL     1     -41.399  58.978 -60.850  1.00  0.00     0.165 HD
HETATM   13  C   UNL     1     -41.530  60.953 -58.722  1.00  0.00     0.019 C 
HETATM   14  C   UNL     1     -43.186  59.006 -58.116  1.00  0.00     0.257 C 
HETATM   15  C   UNL     1     -43.684  60.506 -60.049  1.00  0.00     0.041 C 
HETATM   16  C   UNL     1     -42.071  61.871 -57.619  1.00  0.00     0.013 C 
HETATM   17  C   UNL     1     -41.033  61.800 -59.915  1.00  0.00     0.007 C 
HETATM   18  C   UNL     1     -42.172  62.416 -60.729  1.00  0.00     0.001 C 
HETATM   19  C   UNL     1     -43.168  61.363 -61.203  1.00  0.00     0.003 C 
HETATM   20  O   UNL     1     -43.824  59.394 -57.146  1.00  0.00    -0.270 OA
ENDBRANCH   6   7
ENDBRANCH   3   6
ENDBRANCH   1   2
BRANCH   1  21
HETATM   21  C   UNL     1     -42.798  55.101 -53.363  1.00  0.00     0.071 C 
BRANCH  21  22
HETATM   22  C   UNL     1     -42.121  56.448 -53.250  1.00  0.00    -0.020 A 
HETATM   23  C   UNL     1     -42.664  57.588 -52.547  1.00  0.00    -0.001 A 
HETATM   24  C   UNL     1     -41.768  58.647 -52.692  1.00  0.00     0.042 A 
HETATM   25  C   UNL     1     -43.840  57.812 -51.799  1.00  0.00     0.014 A 
HETATM   26  C   UNL     1     -41.990  59.914 -52.138  1.00  0.00     0.030 A 
HETATM   27  N   UNL     1     -40.713  58.181 -53.434  1.00  0.00    -0.365 N 
HETATM   28  C   UNL     1     -43.164  60.106 -51.405  1.00  0.00     0.002 A 
HETATM   29  C   UNL     1     -44.078  59.071 -51.235  1.00  0.00     0.001 A 
HETATM   30  H   UNL     1     -39.905  58.732 -53.690  1.00  0.00     0.165 HD
HETATM   31  C   UNL     1     -40.906  56.865 -53.765  1.00  0.00     0.097 A 
ENDBRANCH  21  22
BRANCH  21  32
HETATM   32  C   UNL     1     -41.773  54.035 -53.021  1.00  0.00    -0.048 A 
HETATM   33  C   UNL     1     -41.396  53.865 -51.677  1.00  0.00     0.011 A 
HETATM   34  C   UNL     1     -40.471  52.888 -51.307  1.00  0.00     0.037 A 
HETATM   35  C   UNL     1     -39.899  52.054 -52.266  1.00  0.00     0.068 A 
HETATM   36  C   UNL     1     -40.259  52.213 -53.604  1.00  0.00     0.037 A 
HETATM   37  C   UNL     1     -41.195  53.190 -53.977  1.00  0.00     0.011 A 
BRANCH  35  38
HETATM   38  O   UNL     1     -39.011  51.143 -51.767  1.00  0.00    -0.356 OA
HETATM   39  C   UNL     1     -39.555  50.034 -51.065  1.00  0.00     0.210 C 
ENDBRANCH  35  38
ENDBRANCH  21  32
ENDBRANCH   1  21
TORSDOF 7
ENDMDL
MODEL 5
REMARK VINA RESULT:      -9.0      3.132      8.645
REMARK  7 active torsions:
REMARK  status: ('A' for Active; 'I' for Inactive)
REMARK    1  A    between atoms: N_7  and  C_8 
REMARK    2  A    between atoms: C_8  and  C_9 
REMARK       I    between atoms: C_9  and  N_10 
REMARK    3  A    between atoms: N_10  and  C_11 
REMARK    4  A    between atoms: C_11  and  C_12 
REMARK    5  A    between atoms: C_12  and  C_13 
REMARK    6  A    between atoms: C_12  and  C_23 
REMARK    7  A    between atoms: C_26  and  O_27 
ROOT
HETATM    1  C   UNL     1     -44.323  60.082 -56.649  1.00  0.00     0.136 C 
ENDROOT
BRANCH   1   2
HETATM    2  N   UNL     1     -43.470  59.881 -55.484  1.00  0.00    -0.359 N 
HETATM    3  C   UNL     1     -44.109  59.749 -54.256  1.00  0.00     0.236 C 
HETATM    4  O   UNL     1     -45.292  60.050 -54.097  1.00  0.00    -0.272 OA
HETATM    5  H   UNL     1     -42.625  59.333 -55.607  1.00  0.00     0.162 HD
BRANCH   3   6
HETATM    6  C   UNL     1     -43.343  58.995 -53.177  1.00  0.00     0.239 C 
BRANCH   6   7
HETATM    7  N   UNL     1     -42.526  57.895 -53.638  1.00  0.00    -0.259 N 
HETATM    8  C   UNL     1     -41.167  57.906 -53.601  1.00  0.00     0.326 C 
HETATM    9  N   UNL     1     -40.713  56.647 -53.912  1.00  0.00    -0.324 N 
HETATM   10  O   UNL     1     -40.433  58.831 -53.303  1.00  0.00    -0.247 OA
HETATM   11  C   UNL     1     -41.782  55.661 -53.938  1.00  0.00     0.119 C 
HETATM   12  H   UNL     1     -39.727  56.442 -53.808  1.00  0.00     0.165 HD
HETATM   13  C   UNL     1     -41.659  54.763 -55.186  1.00  0.00     0.019 C 
HETATM   14  C   UNL     1     -42.985  56.639 -53.911  1.00  0.00     0.257 C 
HETATM   15  C   UNL     1     -41.798  54.861 -52.621  1.00  0.00     0.041 C 
HETATM   16  C   UNL     1     -42.927  53.961 -55.500  1.00  0.00     0.013 C 
HETATM   17  C   UNL     1     -40.455  53.806 -55.031  1.00  0.00     0.007 C 
HETATM   18  C   UNL     1     -40.492  53.001 -53.731  1.00  0.00     0.001 C 
HETATM   19  C   UNL     1     -40.617  53.900 -52.507  1.00  0.00     0.003 C 
HETATM   20  O   UNL     1     -44.169  56.334 -53.998  1.00  0.00    -0.270 OA
ENDBRANCH   6   7
ENDBRANCH   3   6
ENDBRANCH   1   2
BRANCH   1  21
HETATM   21  C   UNL     1     -43.843  59.649 -58.046  1.00  0.00     0.071 C 
BRANCH  21  22
HETATM   22  C   UNL     1     -43.461  58.200 -58.247  1.00  0.00    -0.020 A 
HETATM   23  C   UNL     1     -44.258  57.228 -58.960  1.00  0.00    -0.001 A 
HETATM   24  C   UNL     1     -43.591  56.005 -58.905  1.00  0.00     0.042 A 
HETATM   25  C   UNL     1     -45.489  57.281 -59.648  1.00  0.00     0.014 A 
HETATM   26  C   UNL     1     -44.093  54.836 -59.492  1.00  0.00     0.030 A 
HETATM   27  N   UNL     1     -42.429  56.212 -58.206  1.00  0.00    -0.365 N 
HETATM   28  C   UNL     1     -45.315  54.920 -60.164  1.00  0.00     0.002 A 
HETATM   29  C   UNL     1     -46.005  56.125 -60.245  1.00  0.00     0.001 A 
HETATM   30  H   UNL     1     -41.739  55.498 -58.017  1.00  0.00     0.165 HD
HETATM   31  C   UNL     1     -42.334  57.522 -57.817  1.00  0.00     0.097 A 
ENDBRANCH  21  22
BRANCH  21  32
HETATM   32  C   UNL     1     -42.764  60.507 -58.680  1.00  0.00    -0.048 A 
HETATM   33  C   UNL     1     -41.858  61.184 -57.845  1.00  0.00     0.011 A 
HETATM   34  C   UNL     1     -40.838  61.972 -58.379  1.00  0.00     0.037 A 
HETATM   35  C   UNL     1     -40.692  62.104 -59.758  1.00  0.00     0.068 A 
HETATM   36  C   UNL     1     -41.585  61.442 -60.601  1.00  0.00     0.037 A 
HETATM   37  C   UNL     1     -42.607  60.643 -60.066  1.00  0.00     0.011 A 
BRANCH  35  38
HETATM   38  O   UNL     1     -39.652  62.904 -60.144  1.00  0.00    -0.356 OA
HETATM   39  C   UNL     1     -39.256  63.923 -59.237  1.00  0.00     0.210 C 
ENDBRANCH  35  38
ENDBRANCH  21  32
ENDBRANCH   1  21
TORSDOF 7
ENDMDL
MODEL 6
REMARK VINA RESULT:      -9.0      4.339      8.155
REMARK  7 active torsions:
REMARK  status: ('A' for Active; 'I' for Inactive)
REMARK    1  A    between atoms: N_7  and  C_8 
REMARK    2  A    between atoms: C_8  and  C_9 
REMARK       I    between atoms: C_9  and  N_10 
REMARK    3  A    between atoms: N_10  and  C_11 
REMARK    4  A    between atoms: C_11  and  C_12 
REMARK    5  A    between atoms: C_12  and  C_13 
REMARK    6  A    between atoms: C_12  and  C_23 
REMARK    7  A    between atoms: C_26  and  O_27 
ROOT
HETATM    1  C   UNL     1     -41.453  57.100 -51.550  1.00  0.00     0.136 C 
ENDROOT
BRANCH   1   2
HETATM    2  N   UNL     1     -42.548  57.914 -51.038  1.00  0.00    -0.359 N 
HETATM    3  C   UNL     1     -42.526  59.266 -51.359  1.00  0.00     0.236 C 
HETATM    4  O   UNL     1     -41.521  59.817 -51.810  1.00  0.00    -0.272 OA
HETATM    5  H   UNL     1     -43.466  57.485 -50.979  1.00  0.00     0.162 HD
BRANCH   3   6
HETATM    6  C   UNL     1     -43.869  59.982 -51.346  1.00  0.00     0.239 C 
BRANCH   6   7
HETATM    7  N   UNL     1     -44.161  60.750 -50.156  1.00  0.00    -0.259 N 
HETATM    8  C   UNL     1     -43.641  61.982 -49.914  1.00  0.00     0.326 C 
HETATM    9  N   UNL     1     -44.273  62.513 -48.816  1.00  0.00    -0.324 N 
HETATM   10  O   UNL     1     -42.795  62.578 -50.557  1.00  0.00    -0.247 OA
HETATM   11  C   UNL     1     -45.435  61.736 -48.413  1.00  0.00     0.119 C 
HETATM   12  H   UNL     1     -44.100  63.480 -48.571  1.00  0.00     0.165 HD
HETATM   13  C   UNL     1     -45.443  61.531 -46.885  1.00  0.00     0.019 C 
HETATM   14  C   UNL     1     -45.167  60.475 -49.274  1.00  0.00     0.257 C 
HETATM   15  C   UNL     1     -46.724  62.397 -48.937  1.00  0.00     0.041 C 
HETATM   16  C   UNL     1     -46.394  60.425 -46.413  1.00  0.00     0.013 C 
HETATM   17  C   UNL     1     -45.787  62.860 -46.175  1.00  0.00     0.007 C 
HETATM   18  C   UNL     1     -47.080  63.497 -46.687  1.00  0.00     0.001 C 
HETATM   19  C   UNL     1     -47.059  63.692 -48.199  1.00  0.00     0.003 C 
HETATM   20  O   UNL     1     -45.819  59.438 -49.263  1.00  0.00    -0.270 OA
ENDBRANCH   6   7
ENDBRANCH   3   6
ENDBRANCH   1   2
BRANCH   1  21
HETATM   21  C   UNL     1     -41.536  56.483 -52.958  1.00  0.00     0.071 C 
BRANCH  21  22
HETATM   22  C   UNL     1     -42.845  56.596 -53.706  1.00  0.00    -0.020 A 
HETATM   23  C   UNL     1     -43.174  57.648 -54.639  1.00  0.00    -0.001 A 
HETATM   24  C   UNL     1     -44.472  57.425 -55.096  1.00  0.00     0.042 A 
HETATM   25  C   UNL     1     -42.481  58.773 -55.137  1.00  0.00     0.014 A 
HETATM   26  C   UNL     1     -45.113  58.268 -56.013  1.00  0.00     0.030 A 
HETATM   27  N   UNL     1     -44.920  56.281 -54.488  1.00  0.00    -0.365 N 
HETATM   28  C   UNL     1     -44.402  59.375 -56.486  1.00  0.00     0.002 A 
HETATM   29  C   UNL     1     -43.103  59.625 -56.057  1.00  0.00     0.001 A 
HETATM   30  H   UNL     1     -45.833  55.871 -54.638  1.00  0.00     0.165 HD
HETATM   31  C   UNL     1     -43.953  55.769 -53.663  1.00  0.00     0.097 A 
ENDBRANCH  21  22
BRANCH  21  32
HETATM   32  C   UNL     1     -41.044  55.054 -53.094  1.00  0.00    -0.048 A 
HETATM   33  C   UNL     1     -40.914  54.269 -51.936  1.00  0.00     0.011 A 
HETATM   34  C   UNL     1     -40.482  52.944 -52.008  1.00  0.00     0.037 A 
HETATM   35  C   UNL     1     -40.171  52.366 -53.237  1.00  0.00     0.068 A 
HETATM   36  C   UNL     1     -40.291  53.133 -54.396  1.00  0.00     0.037 A 
HETATM   37  C   UNL     1     -40.732  54.463 -54.326  1.00  0.00     0.011 A 
BRANCH  35  38
HETATM   38  O   UNL     1     -39.762  51.064 -53.163  1.00  0.00    -0.356 OA
HETATM   39  C   UNL     1     -39.805  50.310 -54.366  1.00  0.00     0.210 C 
ENDBRANCH  35  38
ENDBRANCH  21  32
ENDBRANCH   1  21
TORSDOF 7
ENDMDL
MODEL 7
REMARK VINA RESULT:      -9.0      2.498      5.212
REMARK  7 active torsions:
REMARK  status: ('A' for Active; 'I' for Inactive)
REMARK    1  A    between atoms: N_7  and  C_8 
REMARK    2  A    between atoms: C_8  and  C_9 
REMARK       I    between atoms: C_9  and  N_10 
REMARK    3  A    between atoms: N_10  and  C_11 
REMARK    4  A    between atoms: C_11  and  C_12 
REMARK    5  A    between atoms: C_12  and  C_13 
REMARK    6  A    between atoms: C_12  and  C_23 
REMARK    7  A    between atoms: C_26  and  O_27 
ROOT
HETATM    1  C   UNL     1     -43.123  55.884 -54.154  1.00  0.00     0.136 C 
ENDROOT
BRANCH   1   2
HETATM    2  N   UNL     1     -43.357  56.577 -55.414  1.00  0.00    -0.359 N 
HETATM    3  C   UNL     1     -42.889  55.956 -56.566  1.00  0.00     0.236 C 
HETATM    4  O   UNL     1     -42.089  55.021 -56.528  1.00  0.00    -0.272 OA
HETATM    5  H   UNL     1     -44.221  57.101 -55.511  1.00  0.00     0.162 HD
BRANCH   3   6
HETATM    6  C   UNL     1     -43.590  56.331 -57.865  1.00  0.00     0.239 C 
BRANCH   6   7
HETATM    7  N   UNL     1     -42.984  57.406 -58.619  1.00  0.00    -0.259 N 
HETATM    8  C   UNL     1     -42.311  57.214 -59.784  1.00  0.00     0.326 C 
HETATM    9  N   UNL     1     -42.048  58.442 -60.340  1.00  0.00    -0.324 N 
HETATM   10  O   UNL     1     -42.011  56.158 -60.312  1.00  0.00    -0.247 OA
HETATM   11  C   UNL     1     -42.759  59.521 -59.671  1.00  0.00     0.119 C 
HETATM   12  H   UNL     1     -41.663  58.484 -61.276  1.00  0.00     0.165 HD
HETATM   13  C   UNL     1     -41.816  60.714 -59.419  1.00  0.00     0.019 C 
HETATM   14  C   UNL     1     -43.223  58.734 -58.418  1.00  0.00     0.257 C 
HETATM   15  C   UNL     1     -44.015  59.907 -60.476  1.00  0.00     0.041 C 
HETATM   16  C   UNL     1     -42.356  61.725 -58.400  1.00  0.00     0.013 C 
HETATM   17  C   UNL     1     -41.500  61.429 -60.752  1.00  0.00     0.007 C 
HETATM   18  C   UNL     1     -42.753  61.827 -61.533  1.00  0.00     0.001 C 
HETATM   19  C   UNL     1     -43.677  60.639 -61.773  1.00  0.00     0.003 C 
HETATM   20  O   UNL     1     -43.818  59.197 -57.452  1.00  0.00    -0.270 OA
ENDBRANCH   6   7
ENDBRANCH   3   6
ENDBRANCH   1   2
BRANCH   1  21
HETATM   21  C   UNL     1     -41.882  56.216 -53.304  1.00  0.00     0.071 C 
BRANCH  21  22
HETATM   22  C   UNL     1     -41.349  55.146 -52.379  1.00  0.00    -0.020 A 
HETATM   23  C   UNL     1     -40.762  53.899 -52.812  1.00  0.00    -0.001 A 
HETATM   24  C   UNL     1     -40.420  53.169 -51.675  1.00  0.00     0.042 A 
HETATM   25  C   UNL     1     -40.490  53.326 -54.074  1.00  0.00     0.014 A 
HETATM   26  C   UNL     1     -39.832  51.899 -51.732  1.00  0.00     0.030 A 
HETATM   27  N   UNL     1     -40.763  53.933 -50.589  1.00  0.00    -0.365 N 
HETATM   28  C   UNL     1     -39.577  51.357 -52.995  1.00  0.00     0.002 A 
HETATM   29  C   UNL     1     -39.899  52.059 -54.151  1.00  0.00     0.001 A 
HETATM   30  H   UNL     1     -40.622  53.658 -49.626  1.00  0.00     0.165 HD
HETATM   31  C   UNL     1     -41.309  55.122 -50.996  1.00  0.00     0.097 A 
ENDBRANCH  21  22
BRANCH  21  32
HETATM   32  C   UNL     1     -41.930  57.520 -52.529  1.00  0.00    -0.048 A 
HETATM   33  C   UNL     1     -43.168  57.976 -52.046  1.00  0.00     0.011 A 
HETATM   34  C   UNL     1     -43.264  59.160 -51.314  1.00  0.00     0.037 A 
HETATM   35  C   UNL     1     -42.127  59.918 -51.042  1.00  0.00     0.068 A 
HETATM   36  C   UNL     1     -40.891  59.482 -51.517  1.00  0.00     0.037 A 
HETATM   37  C   UNL     1     -40.792  58.288 -52.248  1.00  0.00     0.011 A 
BRANCH  35  38
HETATM   38  O   UNL     1     -42.363  61.052 -50.315  1.00  0.00    -0.356 OA
HETATM   39  C   UNL     1     -43.684  61.237 -49.826  1.00  0.00     0.210 C 
ENDBRANCH  35  38
ENDBRANCH  21  32
ENDBRANCH   1  21
TORSDOF 7
ENDMDL
MODEL 8
REMARK VINA RESULT:      -8.9     16.225     19.352
REMARK  7 active torsions:
REMARK  status: ('A' for Active; 'I' for Inactive)
REMARK    1  A    between atoms: N_7  and  C_8 
REMARK    2  A    between atoms: C_8  and  C_9 
REMARK       I    between atoms: C_9  and  N_10 
REMARK    3  A    between atoms: N_10  and  C_11 
REMARK    4  A    between atoms: C_11  and  C_12 
REMARK    5  A    between atoms: C_12  and  C_13 
REMARK    6  A    between atoms: C_12  and  C_23 
REMARK    7  A    between atoms: C_26  and  O_27 
ROOT
HETATM    1  C   UNL     1     -38.566  40.815 -56.200  1.00  0.00     0.136 C 
ENDROOT
BRANCH   1   2
HETATM    2  N   UNL     1     -38.443  41.254 -54.816  1.00  0.00    -0.359 N 
HETATM    3  C   UNL     1     -39.625  41.411 -54.102  1.00  0.00     0.236 C 
HETATM    4  O   UNL     1     -40.725  41.450 -54.654  1.00  0.00    -0.272 OA
HETATM    5  H   UNL     1     -37.643  40.924 -54.286  1.00  0.00     0.162 HD
BRANCH   3   6
HETATM    6  C   UNL     1     -39.515  41.300 -52.587  1.00  0.00     0.239 C 
BRANCH   6   7
HETATM    7  N   UNL     1     -38.280  40.740 -52.085  1.00  0.00    -0.259 N 
HETATM    8  C   UNL     1     -38.178  39.478 -51.590  1.00  0.00     0.326 C 
HETATM    9  N   UNL     1     -36.848  39.194 -51.397  1.00  0.00    -0.324 N 
HETATM   10  O   UNL     1     -39.074  38.680 -51.381  1.00  0.00    -0.247 OA
HETATM   11  C   UNL     1     -35.973  40.191 -51.993  1.00  0.00     0.119 C 
HETATM   12  H   UNL     1     -36.580  38.249 -51.152  1.00  0.00     0.165 HD
HETATM   13  C   UNL     1     -34.849  40.579 -51.011  1.00  0.00     0.019 C 
HETATM   14  C   UNL     1     -37.041  41.278 -52.280  1.00  0.00     0.257 C 
HETATM   15  C   UNL     1     -35.440  39.687 -53.348  1.00  0.00     0.041 C 
HETATM   16  C   UNL     1     -34.117  41.872 -51.388  1.00  0.00     0.013 C 
HETATM   17  C   UNL     1     -33.836  39.419 -50.884  1.00  0.00     0.007 C 
HETATM   18  C   UNL     1     -33.296  38.941 -52.233  1.00  0.00     0.001 C 
HETATM   19  C   UNL     1     -34.418  38.564 -53.193  1.00  0.00     0.003 C 
HETATM   20  O   UNL     1     -36.831  42.401 -52.724  1.00  0.00    -0.270 OA
ENDBRANCH   6   7
ENDBRANCH   3   6
ENDBRANCH   1   2
BRANCH   1  21
HETATM   21  C   UNL     1     -37.413  40.053 -56.878  1.00  0.00     0.071 C 
BRANCH  21  22
HETATM   22  C   UNL     1     -36.014  40.607 -56.734  1.00  0.00    -0.020 A 
HETATM   23  C   UNL     1     -34.806  39.816 -56.771  1.00  0.00    -0.001 A 
HETATM   24  C   UNL     1     -33.725  40.675 -56.573  1.00  0.00     0.042 A 
HETATM   25  C   UNL     1     -34.535  38.443 -56.956  1.00  0.00     0.014 A 
HETATM   26  C   UNL     1     -32.396  40.234 -56.542  1.00  0.00     0.030 A 
HETATM   27  N   UNL     1     -34.238  41.940 -56.436  1.00  0.00    -0.365 N 
HETATM   28  C   UNL     1     -32.160  38.869 -56.726  1.00  0.00     0.002 A 
HETATM   29  C   UNL     1     -33.213  37.984 -56.932  1.00  0.00     0.001 A 
HETATM   30  H   UNL     1     -33.682  42.771 -56.288  1.00  0.00     0.165 HD
HETATM   31  C   UNL     1     -35.604  41.915 -56.541  1.00  0.00     0.097 A 
ENDBRANCH  21  22
BRANCH  21  32
HETATM   32  C   UNL     1     -37.619  39.685 -58.336  1.00  0.00    -0.048 A 
HETATM   33  C   UNL     1     -38.332  38.514 -58.646  1.00  0.00     0.011 A 
HETATM   34  C   UNL     1     -38.563  38.139 -59.969  1.00  0.00     0.037 A 
HETATM   35  C   UNL     1     -38.091  38.923 -61.020  1.00  0.00     0.068 A 
HETATM   36  C   UNL     1     -37.378  40.087 -60.731  1.00  0.00     0.037 A 
HETATM   37  C   UNL     1     -37.151  40.469 -59.400  1.00  0.00     0.011 A 
BRANCH  35  38
HETATM   38  O   UNL     1     -38.388  38.441 -62.264  1.00  0.00    -0.356 OA
HETATM   39  C   UNL     1     -37.379  38.563 -63.257  1.00  0.00     0.210 C 
ENDBRANCH  35  38
ENDBRANCH  21  32
ENDBRANCH   1  21
TORSDOF 7
ENDMDL
MODEL 9
REMARK VINA RESULT:      -8.7      1.938      2.778
REMARK  7 active torsions:
REMARK  status: ('A' for Active; 'I' for Inactive)
REMARK    1  A    between atoms: N_7  and  C_8 
REMARK    2  A    between atoms: C_8  and  C_9 
REMARK       I    between atoms: C_9  and  N_10 
REMARK    3  A    between atoms: N_10  and  C_11 
REMARK    4  A    between atoms: C_11  and  C_12 
REMARK    5  A    between atoms: C_12  and  C_13 
REMARK    6  A    between atoms: C_12  and  C_23 
REMARK    7  A    between atoms: C_26  and  O_27 
ROOT
HETATM    1  C   UNL     1     -42.605  55.724 -55.180  1.00  0.00     0.136 C 
ENDROOT
BRANCH   1   2
HETATM    2  N   UNL     1     -43.806  56.144 -55.891  1.00  0.00    -0.359 N 
HETATM    3  C   UNL     1     -44.079  57.506 -55.908  1.00  0.00     0.236 C 
HETATM    4  O   UNL     1     -43.514  58.298 -55.153  1.00  0.00    -0.272 OA
HETATM    5  H   UNL     1     -44.066  55.628 -56.725  1.00  0.00     0.162 HD
BRANCH   3   6
HETATM    6  C   UNL     1     -44.938  58.006 -57.062  1.00  0.00     0.239 C 
BRANCH   6   7
HETATM    7  N   UNL     1     -44.220  58.425 -58.244  1.00  0.00    -0.259 N 
HETATM    8  C   UNL     1     -44.126  57.668 -59.370  1.00  0.00     0.326 C 
HETATM    9  N   UNL     1     -43.564  58.433 -60.362  1.00  0.00    -0.324 N 
HETATM   10  O   UNL     1     -44.504  56.522 -59.536  1.00  0.00    -0.247 OA
HETATM   11  C   UNL     1     -43.475  59.839 -59.999  1.00  0.00     0.119 C 
HETATM   12  H   UNL     1     -43.536  58.068 -61.306  1.00  0.00     0.165 HD
HETATM   13  C   UNL     1     -42.087  60.404 -60.363  1.00  0.00     0.019 C 
HETATM   14  C   UNL     1     -43.784  59.696 -58.487  1.00  0.00     0.257 C 
HETATM   15  C   UNL     1     -44.632  60.627 -60.642  1.00  0.00     0.041 C 
HETATM   16  C   UNL     1     -41.766  61.742 -59.687  1.00  0.00     0.013 C 
HETATM   17  C   UNL     1     -41.960  60.546 -61.897  1.00  0.00     0.007 C 
HETATM   18  C   UNL     1     -43.102  61.348 -62.522  1.00  0.00     0.001 C 
HETATM   19  C   UNL     1     -44.467  60.780 -62.153  1.00  0.00     0.003 C 
HETATM   20  O   UNL     1     -43.762  60.595 -57.654  1.00  0.00    -0.270 OA
ENDBRANCH   6   7
ENDBRANCH   3   6
ENDBRANCH   1   2
BRANCH   1  21
HETATM   21  C   UNL     1     -42.710  55.125 -53.766  1.00  0.00     0.071 C 
BRANCH  21  22
HETATM   22  C   UNL     1     -42.749  56.078 -52.593  1.00  0.00    -0.020 A 
HETATM   23  C   UNL     1     -41.823  57.167 -52.385  1.00  0.00    -0.001 A 
HETATM   24  C   UNL     1     -42.162  57.794 -51.186  1.00  0.00     0.042 A 
HETATM   25  C   UNL     1     -40.724  57.676 -53.110  1.00  0.00     0.014 A 
HETATM   26  C   UNL     1     -41.459  58.892 -50.674  1.00  0.00     0.030 A 
HETATM   27  N   UNL     1     -43.256  57.136 -50.685  1.00  0.00    -0.365 N 
HETATM   28  C   UNL     1     -40.375  59.372 -51.414  1.00  0.00     0.002 A 
HETATM   29  C   UNL     1     -40.011  58.775 -52.617  1.00  0.00     0.001 A 
HETATM   30  H   UNL     1     -43.727  57.380 -49.824  1.00  0.00     0.165 HD
HETATM   31  C   UNL     1     -43.623  56.115 -51.522  1.00  0.00     0.097 A 
ENDBRANCH  21  22
BRANCH  21  32
HETATM   32  C   UNL     1     -41.728  54.017 -53.433  1.00  0.00    -0.048 A 
HETATM   33  C   UNL     1     -41.276  53.888 -52.108  1.00  0.00     0.011 A 
HETATM   34  C   UNL     1     -40.386  52.876 -51.746  1.00  0.00     0.037 A 
HETATM   35  C   UNL     1     -39.925  51.965 -52.694  1.00  0.00     0.068 A 
HETATM   36  C   UNL     1     -40.361  52.081 -54.014  1.00  0.00     0.037 A 
HETATM   37  C   UNL     1     -41.261  53.094 -54.379  1.00  0.00     0.011 A 
BRANCH  35  38
HETATM   38  O   UNL     1     -39.060  51.026 -52.204  1.00  0.00    -0.356 OA
HETATM   39  C   UNL     1     -39.549  50.180 -51.174  1.00  0.00     0.210 C 
ENDBRANCH  35  38
ENDBRANCH  21  32
ENDBRANCH   1  21
TORSDOF 7
ENDMDL
MODEL 10
REMARK VINA RESULT:      -8.5     16.483     19.140
REMARK  7 active torsions:
REMARK  status: ('A' for Active; 'I' for Inactive)
REMARK    1  A    between atoms: N_7  and  C_8 
REMARK    2  A    between atoms: C_8  and  C_9 
REMARK       I    between atoms: C_9  and  N_10 
REMARK    3  A    between atoms: N_10  and  C_11 
REMARK    4  A    between atoms: C_11  and  C_12 
REMARK    5  A    between atoms: C_12  and  C_13 
REMARK    6  A    between atoms: C_12  and  C_23 
REMARK    7  A    between atoms: C_26  and  O_27 
ROOT
HETATM    1  C   UNL     1     -34.529  41.368 -51.583  1.00  0.00     0.136 C 
ENDROOT
BRANCH   1   2
HETATM    2  N   UNL     1     -35.839  40.862 -51.971  1.00  0.00    -0.359 N 
HETATM    3  C   UNL     1     -36.482  41.522 -53.011  1.00  0.00     0.236 C 
HETATM    4  O   UNL     1     -36.117  42.627 -53.412  1.00  0.00    -0.272 OA
HETATM    5  H   UNL     1     -35.993  39.860 -51.917  1.00  0.00     0.162 HD
BRANCH   3   6
HETATM    6  C   UNL     1     -37.513  40.712 -53.787  1.00  0.00     0.239 C 
BRANCH   6   7
HETATM    7  N   UNL     1     -37.145  40.355 -55.138  1.00  0.00    -0.259 N 
HETATM    8  C   UNL     1     -36.678  39.127 -55.487  1.00  0.00     0.326 C 
HETATM    9  N   UNL     1     -36.623  39.056 -56.857  1.00  0.00    -0.324 N 
HETATM   10  O   UNL     1     -36.388  38.199 -54.753  1.00  0.00    -0.247 OA
HETATM   11  C   UNL     1     -37.293  40.176 -57.500  1.00  0.00     0.119 C 
HETATM   12  H   UNL     1     -36.418  38.165 -57.294  1.00  0.00     0.165 HD
HETATM   13  C   UNL     1     -36.425  40.739 -58.644  1.00  0.00     0.019 C 
HETATM   14  C   UNL     1     -37.457  41.080 -56.252  1.00  0.00     0.257 C 
HETATM   15  C   UNL     1     -38.701  39.756 -57.965  1.00  0.00     0.041 C 
HETATM   16  C   UNL     1     -36.858  42.130 -59.122  1.00  0.00     0.013 C 
HETATM   17  C   UNL     1     -36.414  39.753 -59.834  1.00  0.00     0.007 C 
HETATM   18  C   UNL     1     -37.816  39.361 -60.302  1.00  0.00     0.001 C 
HETATM   19  C   UNL     1     -38.663  38.808 -59.161  1.00  0.00     0.003 C 
HETATM   20  O   UNL     1     -37.907  42.220 -56.237  1.00  0.00    -0.270 OA
ENDBRANCH   6   7
ENDBRANCH   3   6
ENDBRANCH   1   2
BRANCH   1  21
HETATM   21  C   UNL     1     -33.322  40.416 -51.501  1.00  0.00     0.071 C 
BRANCH  21  22
HETATM   22  C   UNL     1     -33.173  39.365 -52.577  1.00  0.00    -0.020 A 
HETATM   23  C   UNL     1     -33.193  39.630 -53.998  1.00  0.00    -0.001 A 
HETATM   24  C   UNL     1     -33.058  38.411 -54.662  1.00  0.00     0.042 A 
HETATM   25  C   UNL     1     -33.314  40.800 -54.778  1.00  0.00     0.014 A 
HETATM   26  C   UNL     1     -33.046  38.301 -56.059  1.00  0.00     0.030 A 
HETATM   27  N   UNL     1     -32.943  37.440 -53.700  1.00  0.00    -0.365 N 
HETATM   28  C   UNL     1     -33.170  39.477 -56.804  1.00  0.00     0.002 A 
HETATM   29  C   UNL     1     -33.300  40.711 -56.175  1.00  0.00     0.001 A 
HETATM   30  H   UNL     1     -32.824  36.455 -53.892  1.00  0.00     0.165 HD
HETATM   31  C   UNL     1     -33.000  37.998 -52.450  1.00  0.00     0.097 A 
ENDBRANCH  21  22
BRANCH  21  32
HETATM   32  C   UNL     1     -33.086  39.746 -50.160  1.00  0.00    -0.048 A 
HETATM   33  C   UNL     1     -31.870  39.975 -49.493  1.00  0.00     0.011 A 
HETATM   34  C   UNL     1     -31.610  39.397 -48.250  1.00  0.00     0.037 A 
HETATM   35  C   UNL     1     -32.556  38.576 -47.639  1.00  0.00     0.068 A 
HETATM   36  C   UNL     1     -33.767  38.335 -48.290  1.00  0.00     0.037 A 
HETATM   37  C   UNL     1     -34.032  38.922 -49.536  1.00  0.00     0.011 A 
BRANCH  35  38
HETATM   38  O   UNL     1     -32.174  38.077 -46.425  1.00  0.00    -0.356 OA
HETATM   39  C   UNL     1     -33.210  37.667 -45.545  1.00  0.00     0.210 C 
ENDBRANCH  35  38
ENDBRANCH  21  32
ENDBRANCH   1  21
TORSDOF 7
ENDMDL
