MODEL 1
REMARK VINA RESULT:      -7.9      0.000      0.000
REMARK  3 active torsions:
REMARK  status: ('A' for Active; 'I' for Inactive)
REMARK    1  A    between atoms: C_2  and  N_3 
REMARK    2  A    between atoms: C_7  and  N_8 
REMARK    3  A    between atoms: N_8  and  C_9 
ROOT
HETATM    1  N   UNL     1     -42.170  58.636 -52.725  1.00  0.00    -0.230 N 
HETATM    2  C   UNL     1     -40.869  58.401 -53.169  1.00  0.00     0.335 A 
HETATM    3  O   UNL     1     -39.916  59.179 -53.119  1.00  0.00    -0.246 OA
HETATM    4  N   UNL     1     -40.603  57.157 -53.675  1.00  0.00    -0.294 N 
HETATM    5  C   UNL     1     -41.458  56.102 -53.719  1.00  0.00     0.114 A 
HETATM    6  C   UNL     1     -42.710  56.319 -53.311  1.00  0.00     0.123 A 
HETATM    7  C   UNL     1     -43.143  57.640 -52.817  1.00  0.00     0.259 A 
HETATM    8  O   UNL     1     -44.343  57.755 -52.570  1.00  0.00    -0.267 OA
HETATM    9  H   UNL     1     -39.640  57.028 -53.952  1.00  0.00     0.172 HD
ENDROOT
BRANCH   5  10
HETATM   10  N   UNL     1     -41.012  54.904 -54.233  1.00  0.00    -0.342 N 
HETATM   11  H   UNL     1     -40.554  54.987 -55.135  1.00  0.00     0.167 HD
BRANCH  10  12
HETATM   12  C   UNL     1     -40.588  53.750 -53.534  1.00  0.00     0.036 A 
HETATM   13  C   UNL     1     -40.424  52.561 -54.267  1.00  0.00     0.069 A 
HETATM   14  C   UNL     1     -40.033  51.417 -53.600  1.00  0.00     0.107 A 
HETATM   15  C   UNL     1     -39.816  51.410 -52.245  1.00  0.00     0.105 A 
HETATM   16  O   UNL     1     -39.818  50.200 -54.168  1.00  0.00    -0.323 OA
HETATM   17  O   UNL     1     -39.432  50.189 -51.787  1.00  0.00    -0.323 OA
HETATM   18  C   UNL     1     -39.982  52.542 -51.483  1.00  0.00     0.042 A 
HETATM   19  C   UNL     1     -39.429  49.428 -53.013  1.00  0.00     0.352 A 
HETATM   20  C   UNL     1     -40.377  53.717 -52.137  1.00  0.00     0.032 A 
ENDBRANCH  10  12
ENDBRANCH   5  10
BRANCH   1  21
HETATM   21  C   UNL     1     -42.523  59.933 -52.183  1.00  0.00     0.047 A 
HETATM   22  C   UNL     1     -42.926  60.998 -53.011  1.00  0.00     0.031 A 
HETATM   23  C   UNL     1     -43.261  62.254 -52.486  1.00  0.00     0.021 A 
HETATM   24  C   UNL     1     -43.200  62.469 -51.115  1.00  0.00     0.011 A 
HETATM   25  C   UNL     1     -42.809  61.441 -50.269  1.00  0.00     0.021 A 
HETATM   26 BR   UNL     1     -43.653  64.159 -50.404  1.00  0.00    -0.051 Br
HETATM   27  C   UNL     1     -42.474  60.188 -50.800  1.00  0.00     0.031 A 
ENDBRANCH   1  21
TORSDOF 3
ENDMDL
MODEL 2
REMARK VINA RESULT:      -7.7      0.548      1.892
REMARK  3 active torsions:
REMARK  status: ('A' for Active; 'I' for Inactive)
REMARK    1  A    between atoms: C_2  and  N_3 
REMARK    2  A    between atoms: C_7  and  N_8 
REMARK    3  A    between atoms: N_8  and  C_9 
ROOT
HETATM    1  N   UNL     1     -42.174  58.644 -52.711  1.00  0.00    -0.230 N 
HETATM    2  C   UNL     1     -43.117  57.617 -52.675  1.00  0.00     0.335 A 
HETATM    3  O   UNL     1     -44.284  57.695 -52.288  1.00  0.00    -0.246 OA
HETATM    4  N   UNL     1     -42.725  56.400 -53.161  1.00  0.00    -0.294 N 
HETATM    5  C   UNL     1     -41.535  56.108 -53.748  1.00  0.00     0.114 A 
HETATM    6  C   UNL     1     -40.618  57.078 -53.775  1.00  0.00     0.123 A 
HETATM    7  C   UNL     1     -40.892  58.414 -53.210  1.00  0.00     0.259 A 
HETATM    8  O   UNL     1     -39.940  59.195 -53.193  1.00  0.00    -0.267 OA
HETATM    9  H   UNL     1     -43.454  55.700 -53.142  1.00  0.00     0.172 HD
ENDROOT
BRANCH   5  10
HETATM   10  N   UNL     1     -41.318  54.831 -54.217  1.00  0.00    -0.342 N 
HETATM   11  H   UNL     1     -41.116  54.785 -55.211  1.00  0.00     0.167 HD
BRANCH  10  12
HETATM   12  C   UNL     1     -40.792  53.716 -53.524  1.00  0.00     0.036 A 
HETATM   13  C   UNL     1     -40.660  52.506 -54.229  1.00  0.00     0.069 A 
HETATM   14  C   UNL     1     -40.170  51.400 -53.564  1.00  0.00     0.107 A 
HETATM   15  C   UNL     1     -39.824  51.448 -52.237  1.00  0.00     0.105 A 
HETATM   16  O   UNL     1     -39.971  50.170 -54.109  1.00  0.00    -0.323 OA
HETATM   17  O   UNL     1     -39.359  50.257 -51.778  1.00  0.00    -0.323 OA
HETATM   18  C   UNL     1     -39.954  52.602 -51.502  1.00  0.00     0.042 A 
HETATM   19  C   UNL     1     -39.448  49.452 -52.971  1.00  0.00     0.352 A 
HETATM   20  C   UNL     1     -40.448  53.741 -52.154  1.00  0.00     0.032 A 
ENDBRANCH  10  12
ENDBRANCH   5  10
BRANCH   1  21
HETATM   21  C   UNL     1     -42.519  59.959 -52.207  1.00  0.00     0.047 A 
HETATM   22  C   UNL     1     -42.427  60.275 -50.838  1.00  0.00     0.031 A 
HETATM   23  C   UNL     1     -42.767  61.544 -50.351  1.00  0.00     0.021 A 
HETATM   24  C   UNL     1     -43.208  62.527 -51.228  1.00  0.00     0.011 A 
HETATM   25  C   UNL     1     -43.310  62.250 -52.584  1.00  0.00     0.021 A 
HETATM   26 BR   UNL     1     -43.666  64.240 -50.575  1.00  0.00    -0.051 Br
HETATM   27  C   UNL     1     -42.970  60.979 -53.065  1.00  0.00     0.031 A 
ENDBRANCH   1  21
TORSDOF 3
ENDMDL
MODEL 3
REMARK VINA RESULT:      -7.7      5.217      6.236
REMARK  3 active torsions:
REMARK  status: ('A' for Active; 'I' for Inactive)
REMARK    1  A    between atoms: C_2  and  N_3 
REMARK    2  A    between atoms: C_7  and  N_8 
REMARK    3  A    between atoms: N_8  and  C_9 
ROOT
HETATM    1  N   UNL     1     -42.983  57.047 -58.128  1.00  0.00    -0.230 N 
HETATM    2  C   UNL     1     -43.490  55.778 -58.405  1.00  0.00     0.335 A 
HETATM    3  O   UNL     1     -43.885  55.359 -59.493  1.00  0.00    -0.246 OA
HETATM    4  N   UNL     1     -43.513  54.882 -57.371  1.00  0.00    -0.294 N 
HETATM    5  C   UNL     1     -43.021  55.077 -56.120  1.00  0.00     0.114 A 
HETATM    6  C   UNL     1     -42.546  56.293 -55.838  1.00  0.00     0.123 A 
HETATM    7  C   UNL     1     -42.540  57.371 -56.846  1.00  0.00     0.259 A 
HETATM    8  O   UNL     1     -42.180  58.478 -56.445  1.00  0.00    -0.267 OA
HETATM    9  H   UNL     1     -43.859  53.969 -57.631  1.00  0.00     0.172 HD
ENDROOT
BRANCH   5  10
HETATM   10  N   UNL     1     -43.095  54.049 -55.206  1.00  0.00    -0.342 N 
HETATM   11  H   UNL     1     -43.641  53.253 -55.523  1.00  0.00     0.167 HD
BRANCH  10  12
HETATM   12  C   UNL     1     -42.151  53.677 -54.221  1.00  0.00     0.036 A 
HETATM   13  C   UNL     1     -42.414  54.042 -52.888  1.00  0.00     0.069 A 
HETATM   14  C   UNL     1     -41.494  53.709 -51.914  1.00  0.00     0.107 A 
HETATM   15  C   UNL     1     -40.330  53.047 -52.216  1.00  0.00     0.105 A 
HETATM   16  O   UNL     1     -41.611  53.976 -50.586  1.00  0.00    -0.323 OA
HETATM   17  O   UNL     1     -39.567  52.810 -51.116  1.00  0.00    -0.323 OA
HETATM   18  C   UNL     1     -40.020  52.688 -53.506  1.00  0.00     0.042 A 
HETATM   19  C   UNL     1     -40.388  53.395 -50.085  1.00  0.00     0.352 A 
HETATM   20  C   UNL     1     -40.939  53.013 -54.513  1.00  0.00     0.032 A 
ENDBRANCH  10  12
ENDBRANCH   5  10
BRANCH   1  21
HETATM   21  C   UNL     1     -42.934  58.049 -59.175  1.00  0.00     0.047 A 
HETATM   22  C   UNL     1     -41.818  58.182 -60.022  1.00  0.00     0.031 A 
HETATM   23  C   UNL     1     -41.770  59.156 -61.030  1.00  0.00     0.021 A 
HETATM   24  C   UNL     1     -42.844  60.018 -61.211  1.00  0.00     0.011 A 
HETATM   25  C   UNL     1     -43.962  59.914 -60.394  1.00  0.00     0.021 A 
HETATM   26 BR   UNL     1     -42.784  61.330 -62.569  1.00  0.00    -0.051 Br
HETATM   27  C   UNL     1     -44.003  58.939 -59.388  1.00  0.00     0.031 A 
ENDBRANCH   1  21
TORSDOF 3
ENDMDL
MODEL 4
REMARK VINA RESULT:      -7.6      2.144      2.900
REMARK  3 active torsions:
REMARK  status: ('A' for Active; 'I' for Inactive)
REMARK    1  A    between atoms: C_2  and  N_3 
REMARK    2  A    between atoms: C_7  and  N_8 
REMARK    3  A    between atoms: N_8  and  C_9 
ROOT
HETATM    1  N   UNL     1     -43.517  58.321 -51.432  1.00  0.00    -0.230 N 
HETATM    2  C   UNL     1     -43.917  57.069 -50.964  1.00  0.00     0.335 A 
HETATM    3  O   UNL     1     -45.053  56.730 -50.632  1.00  0.00    -0.246 OA
HETATM    4  N   UNL     1     -42.957  56.096 -50.907  1.00  0.00    -0.294 N 
HETATM    5  C   UNL     1     -41.671  56.201 -51.333  1.00  0.00     0.114 A 
HETATM    6  C   UNL     1     -41.273  57.398 -51.769  1.00  0.00     0.123 A 
HETATM    7  C   UNL     1     -42.193  58.551 -51.805  1.00  0.00     0.259 A 
HETATM    8  O   UNL     1     -41.690  59.629 -52.122  1.00  0.00    -0.267 OA
HETATM    9  H   UNL     1     -43.304  55.200 -50.593  1.00  0.00     0.172 HD
ENDROOT
BRANCH   5  10
HETATM   10  N   UNL     1     -40.844  55.103 -51.234  1.00  0.00    -0.342 N 
HETATM   11  H   UNL     1     -40.659  54.811 -50.279  1.00  0.00     0.167 HD
BRANCH  10  12
HETATM   12  C   UNL     1     -40.683  54.037 -52.149  1.00  0.00     0.036 A 
HETATM   13  C   UNL     1     -40.173  52.821 -51.658  1.00  0.00     0.069 A 
HETATM   14  C   UNL     1     -39.987  51.775 -52.539  1.00  0.00     0.107 A 
HETATM   15  C   UNL     1     -40.272  51.896 -53.875  1.00  0.00     0.105 A 
HETATM   16  O   UNL     1     -39.519  50.539 -52.217  1.00  0.00    -0.323 OA
HETATM   17  O   UNL     1     -40.025  50.751 -54.565  1.00  0.00    -0.323 OA
HETATM   18  C   UNL     1     -40.754  53.070 -54.405  1.00  0.00     0.042 A 
HETATM   19  C   UNL     1     -39.554  49.893 -53.506  1.00  0.00     0.352 A 
HETATM   20  C   UNL     1     -40.953  54.147 -53.531  1.00  0.00     0.032 A 
ENDBRANCH  10  12
ENDBRANCH   5  10
BRANCH   1  21
HETATM   21  C   UNL     1     -44.480  59.402 -51.512  1.00  0.00     0.047 A 
HETATM   22  C   UNL     1     -45.207  59.661 -52.689  1.00  0.00     0.031 A 
HETATM   23  C   UNL     1     -46.133  60.711 -52.768  1.00  0.00     0.021 A 
HETATM   24  C   UNL     1     -46.352  61.525 -51.664  1.00  0.00     0.011 A 
HETATM   25  C   UNL     1     -45.653  61.297 -50.486  1.00  0.00     0.021 A 
HETATM   26 BR   UNL     1     -47.600  62.939 -51.765  1.00  0.00    -0.051 Br
HETATM   27  C   UNL     1     -44.727  60.247 -50.414  1.00  0.00     0.031 A 
ENDBRANCH   1  21
TORSDOF 3
ENDMDL
MODEL 5
REMARK VINA RESULT:      -7.6      5.255      7.598
REMARK  3 active torsions:
REMARK  status: ('A' for Active; 'I' for Inactive)
REMARK    1  A    between atoms: C_2  and  N_3 
REMARK    2  A    between atoms: C_7  and  N_8 
REMARK    3  A    between atoms: N_8  and  C_9 
ROOT
HETATM    1  N   UNL     1     -41.922  55.916 -53.612  1.00  0.00    -0.230 N 
HETATM    2  C   UNL     1     -41.435  57.144 -54.060  1.00  0.00     0.335 A 
HETATM    3  O   UNL     1     -40.671  57.901 -53.461  1.00  0.00    -0.246 OA
HETATM    4  N   UNL     1     -41.807  57.535 -55.317  1.00  0.00    -0.294 N 
HETATM    5  C   UNL     1     -42.540  56.814 -56.205  1.00  0.00     0.114 A 
HETATM    6  C   UNL     1     -43.024  55.643 -55.784  1.00  0.00     0.123 A 
HETATM    7  C   UNL     1     -42.759  55.146 -54.419  1.00  0.00     0.259 A 
HETATM    8  O   UNL     1     -43.344  54.110 -54.103  1.00  0.00    -0.267 OA
HETATM    9  H   UNL     1     -41.403  58.415 -55.606  1.00  0.00     0.172 HD
ENDROOT
BRANCH   5  10
HETATM   10  N   UNL     1     -42.794  57.348 -57.450  1.00  0.00    -0.342 N 
HETATM   11  H   UNL     1     -42.022  57.884 -57.834  1.00  0.00     0.167 HD
BRANCH  10  12
HETATM   12  C   UNL     1     -43.642  56.849 -58.466  1.00  0.00     0.036 A 
HETATM   13  C   UNL     1     -44.929  57.403 -58.579  1.00  0.00     0.069 A 
HETATM   14  C   UNL     1     -45.780  56.914 -59.549  1.00  0.00     0.107 A 
HETATM   15  C   UNL     1     -45.408  55.897 -60.391  1.00  0.00     0.105 A 
HETATM   16  O   UNL     1     -47.044  57.354 -59.792  1.00  0.00    -0.323 OA
HETATM   17  O   UNL     1     -46.387  55.569 -61.275  1.00  0.00    -0.323 OA
HETATM   18  C   UNL     1     -44.168  55.310 -60.306  1.00  0.00     0.042 A 
HETATM   19  C   UNL     1     -47.419  56.502 -60.895  1.00  0.00     0.352 A 
HETATM   20  C   UNL     1     -43.284  55.790 -59.330  1.00  0.00     0.032 A 
ENDBRANCH  10  12
ENDBRANCH   5  10
BRANCH   1  21
HETATM   21  C   UNL     1     -41.573  55.442 -52.287  1.00  0.00     0.047 A 
HETATM   22  C   UNL     1     -42.031  56.089 -51.124  1.00  0.00     0.031 A 
HETATM   23  C   UNL     1     -41.687  55.633 -49.844  1.00  0.00     0.021 A 
HETATM   24  C   UNL     1     -40.876  54.515 -49.702  1.00  0.00     0.011 A 
HETATM   25  C   UNL     1     -40.407  53.852 -50.827  1.00  0.00     0.021 A 
HETATM   26 BR   UNL     1     -40.412  53.897 -47.978  1.00  0.00    -0.051 Br
HETATM   27  C   UNL     1     -40.752  54.313 -52.105  1.00  0.00     0.031 A 
ENDBRANCH   1  21
TORSDOF 3
ENDMDL
MODEL 6
REMARK VINA RESULT:      -7.6      4.060      9.258
REMARK  3 active torsions:
REMARK  status: ('A' for Active; 'I' for Inactive)
REMARK    1  A    between atoms: C_2  and  N_3 
REMARK    2  A    between atoms: C_7  and  N_8 
REMARK    3  A    between atoms: N_8  and  C_9 
ROOT
HETATM    1  N   UNL     1     -41.662  55.520 -52.173  1.00  0.00    -0.230 N 
HETATM    2  C   UNL     1     -42.530  55.576 -51.082  1.00  0.00     0.335 A 
HETATM    3  O   UNL     1     -42.942  54.628 -50.413  1.00  0.00    -0.246 OA
HETATM    4  N   UNL     1     -42.935  56.819 -50.678  1.00  0.00    -0.294 N 
HETATM    5  C   UNL     1     -42.519  58.010 -51.182  1.00  0.00     0.114 A 
HETATM    6  C   UNL     1     -41.700  57.970 -52.236  1.00  0.00     0.123 A 
HETATM    7  C   UNL     1     -41.253  56.688 -52.816  1.00  0.00     0.259 A 
HETATM    8  O   UNL     1     -40.589  56.770 -53.850  1.00  0.00    -0.267 OA
HETATM    9  H   UNL     1     -43.535  56.807 -49.865  1.00  0.00     0.172 HD
ENDROOT
BRANCH   5  10
HETATM   10  N   UNL     1     -43.005  59.175 -50.629  1.00  0.00    -0.342 N 
HETATM   11  H   UNL     1     -42.289  59.766 -50.217  1.00  0.00     0.167 HD
BRANCH  10  12
HETATM   12  C   UNL     1     -44.145  59.920 -51.008  1.00  0.00     0.036 A 
HETATM   13  C   UNL     1     -44.532  60.994 -50.186  1.00  0.00     0.069 A 
HETATM   14  C   UNL     1     -45.656  61.719 -50.525  1.00  0.00     0.107 A 
HETATM   15  C   UNL     1     -46.408  61.411 -51.631  1.00  0.00     0.105 A 
HETATM   16  O   UNL     1     -46.147  62.789 -49.844  1.00  0.00    -0.323 OA
HETATM   17  O   UNL     1     -47.466  62.250 -51.790  1.00  0.00    -0.323 OA
HETATM   18  C   UNL     1     -46.082  60.359 -52.453  1.00  0.00     0.042 A 
HETATM   19  C   UNL     1     -47.290  63.126 -50.657  1.00  0.00     0.352 A 
HETATM   20  C   UNL     1     -44.944  59.607 -52.131  1.00  0.00     0.032 A 
ENDBRANCH  10  12
ENDBRANCH   5  10
BRANCH   1  21
HETATM   21  C   UNL     1     -41.197  54.236 -52.659  1.00  0.00     0.047 A 
HETATM   22  C   UNL     1     -41.660  53.691 -53.872  1.00  0.00     0.031 A 
HETATM   23  C   UNL     1     -41.215  52.446 -54.337  1.00  0.00     0.021 A 
HETATM   24  C   UNL     1     -40.292  51.719 -53.595  1.00  0.00     0.011 A 
HETATM   25  C   UNL     1     -39.813  52.227 -52.396  1.00  0.00     0.021 A 
HETATM   26 BR   UNL     1     -39.688  50.042 -54.221  1.00  0.00    -0.051 Br
HETATM   27  C   UNL     1     -40.264  53.472 -51.934  1.00  0.00     0.031 A 
ENDBRANCH   1  21
TORSDOF 3
ENDMDL
MODEL 7
REMARK VINA RESULT:      -7.4      3.892      9.152
REMARK  3 active torsions:
REMARK  status: ('A' for Active; 'I' for Inactive)
REMARK    1  A    between atoms: C_2  and  N_3 
REMARK    2  A    between atoms: C_7  and  N_8 
REMARK    3  A    between atoms: N_8  and  C_9 
ROOT
HETATM    1  N   UNL     1     -42.212  55.141 -52.302  1.00  0.00    -0.230 N 
HETATM    2  C   UNL     1     -43.355  55.037 -51.508  1.00  0.00     0.335 A 
HETATM    3  O   UNL     1     -43.877  54.002 -51.093  1.00  0.00    -0.246 OA
HETATM    4  N   UNL     1     -43.938  56.208 -51.108  1.00  0.00    -0.294 N 
HETATM    5  C   UNL     1     -43.473  57.464 -51.339  1.00  0.00     0.114 A 
HETATM    6  C   UNL     1     -42.389  57.577 -52.110  1.00  0.00     0.123 A 
HETATM    7  C   UNL     1     -41.714  56.390 -52.670  1.00  0.00     0.259 A 
HETATM    8  O   UNL     1     -40.791  56.617 -53.453  1.00  0.00    -0.267 OA
HETATM    9  H   UNL     1     -44.742  56.079 -50.509  1.00  0.00     0.172 HD
ENDROOT
BRANCH   5  10
HETATM   10  N   UNL     1     -44.171  58.537 -50.829  1.00  0.00    -0.342 N 
HETATM   11  H   UNL     1     -44.582  58.366 -49.916  1.00  0.00     0.167 HD
BRANCH  10  12
HETATM   12  C   UNL     1     -43.953  59.916 -51.055  1.00  0.00     0.036 A 
HETATM   13  C   UNL     1     -44.543  60.497 -52.192  1.00  0.00     0.069 A 
HETATM   14  C   UNL     1     -44.324  61.836 -52.443  1.00  0.00     0.107 A 
HETATM   15  C   UNL     1     -43.537  62.606 -51.624  1.00  0.00     0.105 A 
HETATM   16  O   UNL     1     -44.835  62.543 -53.487  1.00  0.00    -0.323 OA
HETATM   17  O   UNL     1     -43.455  63.896 -52.044  1.00  0.00    -0.323 OA
HETATM   18  C   UNL     1     -42.923  62.078 -50.513  1.00  0.00     0.042 A 
HETATM   19  C   UNL     1     -44.286  63.851 -53.222  1.00  0.00     0.352 A 
HETATM   20  C   UNL     1     -43.131  60.721 -50.234  1.00  0.00     0.032 A 
ENDBRANCH  10  12
ENDBRANCH   5  10
BRANCH   1  21
HETATM   21  C   UNL     1     -41.547  53.940 -52.768  1.00  0.00     0.047 A 
HETATM   22  C   UNL     1     -40.568  53.287 -51.994  1.00  0.00     0.031 A 
HETATM   23  C   UNL     1     -39.920  52.130 -52.449  1.00  0.00     0.021 A 
HETATM   24  C   UNL     1     -40.242  51.600 -53.692  1.00  0.00     0.011 A 
HETATM   25  C   UNL     1     -41.203  52.218 -54.481  1.00  0.00     0.021 A 
HETATM   26 BR   UNL     1     -39.372  50.041 -54.308  1.00  0.00    -0.051 Br
HETATM   27  C   UNL     1     -41.846  53.375 -54.022  1.00  0.00     0.031 A 
ENDBRANCH   1  21
TORSDOF 3
ENDMDL
MODEL 8
REMARK VINA RESULT:      -7.4      1.829      2.383
REMARK  3 active torsions:
REMARK  status: ('A' for Active; 'I' for Inactive)
REMARK    1  A    between atoms: C_2  and  N_3 
REMARK    2  A    between atoms: C_7  and  N_8 
REMARK    3  A    between atoms: N_8  and  C_9 
ROOT
HETATM    1  N   UNL     1     -43.222  58.058 -51.856  1.00  0.00    -0.230 N 
HETATM    2  C   UNL     1     -41.949  58.010 -52.424  1.00  0.00     0.335 A 
HETATM    3  O   UNL     1     -41.390  58.901 -53.065  1.00  0.00    -0.246 OA
HETATM    4  N   UNL     1     -41.220  56.872 -52.213  1.00  0.00    -0.294 N 
HETATM    5  C   UNL     1     -41.578  55.813 -51.441  1.00  0.00     0.114 A 
HETATM    6  C   UNL     1     -42.800  55.839 -50.905  1.00  0.00     0.123 A 
HETATM    7  C   UNL     1     -43.714  56.977 -51.124  1.00  0.00     0.259 A 
HETATM    8  O   UNL     1     -44.852  56.846 -50.673  1.00  0.00    -0.267 OA
HETATM    9  H   UNL     1     -40.294  56.901 -52.617  1.00  0.00     0.172 HD
ENDROOT
BRANCH   5  10
HETATM   10  N   UNL     1     -40.702  54.758 -51.309  1.00  0.00    -0.342 N 
HETATM   11  H   UNL     1     -40.497  54.511 -50.345  1.00  0.00     0.167 HD
BRANCH  10  12
HETATM   12  C   UNL     1     -40.501  53.665 -52.184  1.00  0.00     0.036 A 
HETATM   13  C   UNL     1     -40.079  52.445 -51.625  1.00  0.00     0.069 A 
HETATM   14  C   UNL     1     -39.854  51.373 -52.465  1.00  0.00     0.107 A 
HETATM   15  C   UNL     1     -40.018  51.472 -53.824  1.00  0.00     0.105 A 
HETATM   16  O   UNL     1     -39.460  50.130 -52.078  1.00  0.00    -0.323 OA
HETATM   17  O   UNL     1     -39.753  50.304 -54.466  1.00  0.00    -0.323 OA
HETATM   18  C   UNL     1     -40.409  52.649 -54.417  1.00  0.00     0.042 A 
HETATM   19  C   UNL     1     -39.407  49.455 -53.353  1.00  0.00     0.352 A 
HETATM   20  C   UNL     1     -40.646  53.752 -53.586  1.00  0.00     0.032 A 
ENDBRANCH  10  12
ENDBRANCH   5  10
BRANCH   1  21
HETATM   21  C   UNL     1     -44.053  59.231 -52.045  1.00  0.00     0.047 A 
HETATM   22  C   UNL     1     -44.093  60.271 -51.098  1.00  0.00     0.031 A 
HETATM   23  C   UNL     1     -44.902  61.401 -51.279  1.00  0.00     0.021 A 
HETATM   24  C   UNL     1     -45.689  61.514 -52.418  1.00  0.00     0.011 A 
HETATM   25  C   UNL     1     -45.674  60.507 -53.373  1.00  0.00     0.021 A 
HETATM   26 BR   UNL     1     -46.779  63.037 -52.665  1.00  0.00    -0.051 Br
HETATM   27  C   UNL     1     -44.864  59.379 -53.186  1.00  0.00     0.031 A 
ENDBRANCH   1  21
TORSDOF 3
ENDMDL
MODEL 9
REMARK VINA RESULT:      -7.3      4.053      4.897
REMARK  3 active torsions:
REMARK  status: ('A' for Active; 'I' for Inactive)
REMARK    1  A    between atoms: C_2  and  N_3 
REMARK    2  A    between atoms: C_7  and  N_8 
REMARK    3  A    between atoms: N_8  and  C_9 
ROOT
HETATM    1  N   UNL     1     -42.428  57.354 -56.362  1.00  0.00    -0.230 N 
HETATM    2  C   UNL     1     -41.813  57.968 -55.271  1.00  0.00     0.335 A 
HETATM    3  O   UNL     1     -41.616  59.173 -55.112  1.00  0.00    -0.246 OA
HETATM    4  N   UNL     1     -41.424  57.153 -54.243  1.00  0.00    -0.294 N 
HETATM    5  C   UNL     1     -41.644  55.817 -54.141  1.00  0.00     0.114 A 
HETATM    6  C   UNL     1     -42.218  55.215 -55.185  1.00  0.00     0.123 A 
HETATM    7  C   UNL     1     -42.613  55.972 -56.389  1.00  0.00     0.259 A 
HETATM    8  O   UNL     1     -43.033  55.300 -57.332  1.00  0.00    -0.267 OA
HETATM    9  H   UNL     1     -41.014  57.650 -53.463  1.00  0.00     0.172 HD
ENDROOT
BRANCH   5  10
HETATM   10  N   UNL     1     -41.213  55.154 -53.012  1.00  0.00    -0.342 N 
HETATM   11  H   UNL     1     -41.648  55.476 -52.153  1.00  0.00     0.167 HD
BRANCH  10  12
HETATM   12  C   UNL     1     -40.747  53.824 -52.897  1.00  0.00     0.036 A 
HETATM   13  C   UNL     1     -40.719  53.246 -51.615  1.00  0.00     0.069 A 
HETATM   14  C   UNL     1     -40.245  51.957 -51.477  1.00  0.00     0.107 A 
HETATM   15  C   UNL     1     -39.791  51.235 -52.552  1.00  0.00     0.105 A 
HETATM   16  O   UNL     1     -40.170  51.258 -50.313  1.00  0.00    -0.323 OA
HETATM   17  O   UNL     1     -39.376  49.989 -52.204  1.00  0.00    -0.323 OA
HETATM   18  C   UNL     1     -39.781  51.764 -53.821  1.00  0.00     0.042 A 
HETATM   19  C   UNL     1     -39.625  50.007 -50.783  1.00  0.00     0.352 A 
HETATM   20  C   UNL     1     -40.258  53.071 -53.988  1.00  0.00     0.032 A 
ENDBRANCH  10  12
ENDBRANCH   5  10
BRANCH   1  21
HETATM   21  C   UNL     1     -42.860  58.155 -57.491  1.00  0.00     0.047 A 
HETATM   22  C   UNL     1     -44.176  58.644 -57.592  1.00  0.00     0.031 A 
HETATM   23  C   UNL     1     -44.595  59.413 -58.687  1.00  0.00     0.021 A 
HETATM   24  C   UNL     1     -43.699  59.710 -59.706  1.00  0.00     0.011 A 
HETATM   25  C   UNL     1     -42.393  59.245 -59.639  1.00  0.00     0.021 A 
HETATM   26 BR   UNL     1     -44.259  60.747 -61.183  1.00  0.00    -0.051 Br
HETATM   27  C   UNL     1     -41.981  58.476 -58.542  1.00  0.00     0.031 A 
ENDBRANCH   1  21
TORSDOF 3
ENDMDL
MODEL 10
REMARK VINA RESULT:      -7.2      5.821      8.538
REMARK  3 active torsions:
REMARK  status: ('A' for Active; 'I' for Inactive)
REMARK    1  A    between atoms: C_2  and  N_3 
REMARK    2  A    between atoms: C_7  and  N_8 
REMARK    3  A    between atoms: N_8  and  C_9 
ROOT
HETATM    1  N   UNL     1     -42.149  55.337 -54.589  1.00  0.00    -0.230 N 
HETATM    2  C   UNL     1     -42.946  54.764 -55.579  1.00  0.00     0.335 A 
HETATM    3  O   UNL     1     -43.413  53.625 -55.587  1.00  0.00    -0.246 OA
HETATM    4  N   UNL     1     -43.286  55.561 -56.638  1.00  0.00    -0.294 N 
HETATM    5  C   UNL     1     -42.991  56.879 -56.786  1.00  0.00     0.114 A 
HETATM    6  C   UNL     1     -42.216  57.435 -55.853  1.00  0.00     0.123 A 
HETATM    7  C   UNL     1     -41.717  56.659 -54.701  1.00  0.00     0.259 A 
HETATM    8  O   UNL     1     -40.924  57.244 -53.963  1.00  0.00    -0.267 OA
HETATM    9  H   UNL     1     -43.890  55.109 -57.310  1.00  0.00     0.172 HD
ENDROOT
BRANCH   5  10
HETATM   10  N   UNL     1     -43.446  57.542 -57.905  1.00  0.00    -0.342 N 
HETATM   11  H   UNL     1     -42.828  58.282 -58.225  1.00  0.00     0.167 HD
BRANCH  10  12
HETATM   12  C   UNL     1     -44.258  57.048 -58.952  1.00  0.00     0.036 A 
HETATM   13  C   UNL     1     -45.513  57.651 -59.150  1.00  0.00     0.069 A 
HETATM   14  C   UNL     1     -46.331  57.169 -60.152  1.00  0.00     0.107 A 
HETATM   15  C   UNL     1     -45.957  56.113 -60.945  1.00  0.00     0.105 A 
HETATM   16  O   UNL     1     -47.560  57.653 -60.476  1.00  0.00    -0.323 OA
HETATM   17  O   UNL     1     -46.900  55.799 -61.872  1.00  0.00    -0.323 OA
HETATM   18  C   UNL     1     -44.749  55.479 -60.776  1.00  0.00     0.042 A 
HETATM   19  C   UNL     1     -47.911  56.784 -61.574  1.00  0.00     0.352 A 
HETATM   20  C   UNL     1     -43.899  55.951 -59.766  1.00  0.00     0.032 A 
ENDBRANCH  10  12
ENDBRANCH   5  10
BRANCH   1  21
HETATM   21  C   UNL     1     -41.745  54.549 -53.442  1.00  0.00     0.047 A 
HETATM   22  C   UNL     1     -40.625  53.698 -53.485  1.00  0.00     0.031 A 
HETATM   23  C   UNL     1     -40.239  52.930 -52.376  1.00  0.00     0.021 A 
HETATM   24  C   UNL     1     -40.971  53.001 -51.197  1.00  0.00     0.011 A 
HETATM   25  C   UNL     1     -42.080  53.831 -51.119  1.00  0.00     0.021 A 
HETATM   26 BR   UNL     1     -40.453  51.970 -49.702  1.00  0.00    -0.051 Br
HETATM   27  C   UNL     1     -42.462  54.595 -52.231  1.00  0.00     0.031 A 
ENDBRANCH   1  21
TORSDOF 3
ENDMDL
