MODEL 1
REMARK VINA RESULT:      -9.1      0.000      0.000
REMARK  7 active torsions:
REMARK  status: ('A' for Active; 'I' for Inactive)
REMARK    1  A    between atoms: C_3  and  N_4 
REMARK       I    between atoms: N_4  and  C_5 
REMARK    2  A    between atoms: C_5  and  C_6 
REMARK    3  A    between atoms: C_6  and  N_7 
REMARK    4  A    between atoms: N_10  and  C_11 
REMARK    5  A    between atoms: C_11  and  C_12 
REMARK    6  A    between atoms: C_27  and  C_28 
REMARK       I    between atoms: C_28  and  N_29 
REMARK    7  A    between atoms: N_29  and  C_30 
ROOT
HETATM    1  N   UNL     1     -42.478  59.206 -52.971  1.00  0.00    -0.290 N 
HETATM    2  C   UNL     1     -41.616  58.274 -52.416  1.00  0.00     0.332 C 
HETATM    3  O   UNL     1     -40.399  58.459 -52.492  1.00  0.00    -0.246 OA
HETATM    4  N   UNL     1     -42.192  57.196 -51.765  1.00  0.00    -0.261 N 
HETATM    5  C   UNL     1     -43.507  57.196 -51.318  1.00  0.00     0.264 C 
HETATM    6  O   UNL     1     -43.993  56.324 -50.601  1.00  0.00    -0.267 OA
HETATM    7  C   UNL     1     -44.343  58.353 -51.692  1.00  0.00     0.059 A 
HETATM    8  C   UNL     1     -43.812  59.340 -52.519  1.00  0.00     0.056 A 
HETATM    9  C   UNL     1     -45.657  58.447 -51.214  1.00  0.00     0.020 A 
HETATM   10  C   UNL     1     -46.441  59.560 -51.524  1.00  0.00     0.018 A 
HETATM   11  C   UNL     1     -45.909  60.591 -52.305  1.00  0.00     0.034 A 
HETATM   12  C   UNL     1     -44.603  60.458 -52.821  1.00  0.00     0.048 A 
ENDROOT
BRANCH   1  13
HETATM   13  C   UNL     1     -41.980  59.986 -54.110  1.00  0.00     0.237 C 
BRANCH  13  14
HETATM   14  C   UNL     1     -42.111  59.401 -55.520  1.00  0.00     0.240 C 
HETATM   15  N   UNL     1     -43.032  58.381 -55.631  1.00  0.00    -0.325 N 
HETATM   16  H   UNL     1     -43.709  58.366 -54.870  1.00  0.00     0.169 HD
HETATM   17  O   UNL     1     -41.539  59.965 -56.450  1.00  0.00    -0.271 OA
BRANCH  15  18
HETATM   18  C   UNL     1     -43.407  57.648 -56.781  1.00  0.00     0.040 A 
HETATM   19  C   UNL     1     -44.294  58.059 -57.794  1.00  0.00    -0.035 A 
HETATM   20  C   UNL     1     -44.946  59.410 -57.883  1.00  0.00     0.050 C 
HETATM   21  C   UNL     1     -44.602  57.154 -58.834  1.00  0.00     0.009 A 
HETATM   22  C   UNL     1     -43.998  55.901 -58.915  1.00  0.00     0.001 A 
HETATM   23  C   UNL     1     -43.069  55.526 -57.955  1.00  0.00     0.002 A 
HETATM   24  C   UNL     1     -42.778  56.393 -56.902  1.00  0.00     0.030 A 
ENDBRANCH  15  18
ENDBRANCH  13  14
ENDBRANCH   1  13
BRANCH   4  25
HETATM   25  C   UNL     1     -41.318  56.144 -51.247  1.00  0.00     0.175 C 
BRANCH  25  26
HETATM   26  C   UNL     1     -41.149  54.940 -52.154  1.00  0.00    -0.037 A 
HETATM   27  C   UNL     1     -40.335  53.856 -51.781  1.00  0.00     0.048 A 
HETATM   28  C   UNL     1     -40.268  52.775 -52.636  1.00  0.00     0.105 A 
HETATM   29  C   UNL     1     -40.949  52.746 -53.831  1.00  0.00     0.105 A 
HETATM   30  O   UNL     1     -39.557  51.634 -52.421  1.00  0.00    -0.323 OA
HETATM   31  O   UNL     1     -40.756  51.587 -54.516  1.00  0.00    -0.323 OA
HETATM   32  C   UNL     1     -41.735  53.798 -54.243  1.00  0.00     0.040 A 
HETATM   33  C   UNL     1     -39.898  50.875 -53.602  1.00  0.00     0.352 A 
HETATM   34  C   UNL     1     -41.832  54.904 -53.395  1.00  0.00     0.012 A 
ENDBRANCH  25  26
ENDBRANCH   4  25
BRANCH  11  35
HETATM   35  C   UNL     1     -46.650  61.855 -52.610  1.00  0.00     0.252 C 
HETATM   36  N   UNL     1     -47.967  61.746 -53.017  1.00  0.00    -0.352 N 
HETATM   37  H   UNL     1     -48.431  60.853 -52.983  1.00  0.00     0.163 HD
HETATM   38  O   UNL     1     -46.085  62.933 -52.459  1.00  0.00    -0.268 OA
BRANCH  36  39
HETATM   39  C   UNL     1     -48.821  62.922 -53.181  1.00  0.00     0.084 C 
HETATM   40  C   UNL     1     -49.043  63.233 -54.666  1.00  0.00     0.025 C 
HETATM   41  C   UNL     1     -49.974  62.237 -55.355  1.00  0.00     0.002 C 
HETATM   42  C   UNL     1     -51.295  62.091 -54.607  1.00  0.00     0.000 C 
HETATM   43  C   UNL     1     -51.075  61.725 -53.142  1.00  0.00     0.002 C 
HETATM   44  C   UNL     1     -50.153  62.724 -52.442  1.00  0.00     0.025 C 
ENDBRANCH  36  39
ENDBRANCH  11  35
TORSDOF 7
ENDMDL
MODEL 2
REMARK VINA RESULT:      -9.1      3.118      8.145
REMARK  7 active torsions:
REMARK  status: ('A' for Active; 'I' for Inactive)
REMARK    1  A    between atoms: C_3  and  N_4 
REMARK       I    between atoms: N_4  and  C_5 
REMARK    2  A    between atoms: C_5  and  C_6 
REMARK    3  A    between atoms: C_6  and  N_7 
REMARK    4  A    between atoms: N_10  and  C_11 
REMARK    5  A    between atoms: C_11  and  C_12 
REMARK    6  A    between atoms: C_27  and  C_28 
REMARK       I    between atoms: C_28  and  N_29 
REMARK    7  A    between atoms: N_29  and  C_30 
ROOT
HETATM    1  N   UNL     1     -42.738  58.622 -53.215  1.00  0.00    -0.290 N 
HETATM    2  C   UNL     1     -42.517  59.308 -52.030  1.00  0.00     0.332 C 
HETATM    3  O   UNL     1     -42.036  58.706 -51.067  1.00  0.00    -0.246 OA
HETATM    4  N   UNL     1     -42.821  60.659 -52.021  1.00  0.00    -0.261 N 
HETATM    5  C   UNL     1     -42.956  61.413 -53.180  1.00  0.00     0.264 C 
HETATM    6  O   UNL     1     -43.064  62.637 -53.199  1.00  0.00    -0.267 OA
HETATM    7  C   UNL     1     -42.907  60.685 -54.463  1.00  0.00     0.059 A 
HETATM    8  C   UNL     1     -42.803  59.297 -54.457  1.00  0.00     0.056 A 
HETATM    9  C   UNL     1     -42.966  61.396 -55.670  1.00  0.00     0.020 A 
HETATM   10  C   UNL     1     -42.875  60.722 -56.889  1.00  0.00     0.018 A 
HETATM   11  C   UNL     1     -42.710  59.333 -56.906  1.00  0.00     0.034 A 
HETATM   12  C   UNL     1     -42.704  58.627 -55.685  1.00  0.00     0.048 A 
ENDROOT
BRANCH   1  13
HETATM   13  C   UNL     1     -42.994  57.181 -53.118  1.00  0.00     0.237 C 
BRANCH  13  14
HETATM   14  C   UNL     1     -41.806  56.215 -53.157  1.00  0.00     0.240 C 
HETATM   15  N   UNL     1     -42.137  54.895 -52.938  1.00  0.00    -0.325 N 
HETATM   16  H   UNL     1     -43.123  54.696 -53.094  1.00  0.00     0.169 HD
HETATM   17  O   UNL     1     -40.714  56.636 -53.530  1.00  0.00    -0.271 OA
BRANCH  15  18
HETATM   18  C   UNL     1     -41.291  53.761 -52.929  1.00  0.00     0.040 A 
HETATM   19  C   UNL     1     -40.486  53.315 -51.865  1.00  0.00    -0.035 A 
HETATM   20  C   UNL     1     -40.446  53.922 -50.491  1.00  0.00     0.050 C 
HETATM   21  C   UNL     1     -39.648  52.195 -52.071  1.00  0.00     0.009 A 
HETATM   22  C   UNL     1     -39.655  51.490 -53.272  1.00  0.00     0.001 A 
HETATM   23  C   UNL     1     -40.502  51.888 -54.295  1.00  0.00     0.002 A 
HETATM   24  C   UNL     1     -41.312  53.011 -54.122  1.00  0.00     0.030 A 
ENDBRANCH  15  18
ENDBRANCH  13  14
ENDBRANCH   1  13
BRANCH   4  25
HETATM   25  C   UNL     1     -42.690  61.396 -50.765  1.00  0.00     0.175 C 
BRANCH  25  26
HETATM   26  C   UNL     1     -43.970  61.543 -49.965  1.00  0.00    -0.037 A 
HETATM   27  C   UNL     1     -44.054  61.091 -48.637  1.00  0.00     0.048 A 
HETATM   28  C   UNL     1     -45.237  61.301 -47.957  1.00  0.00     0.105 A 
HETATM   29  C   UNL     1     -46.320  61.911 -48.548  1.00  0.00     0.105 A 
HETATM   30  O   UNL     1     -45.482  60.960 -46.662  1.00  0.00    -0.323 OA
HETATM   31  O   UNL     1     -47.378  62.030 -47.702  1.00  0.00    -0.323 OA
HETATM   32  C   UNL     1     -46.286  62.342 -49.854  1.00  0.00     0.040 A 
HETATM   33  C   UNL     1     -46.830  61.453 -46.501  1.00  0.00     0.352 A 
HETATM   34  C   UNL     1     -45.099  62.154 -50.566  1.00  0.00     0.012 A 
ENDBRANCH  25  26
ENDBRANCH   4  25
BRANCH  11  35
HETATM   35  C   UNL     1     -42.517  58.546 -58.165  1.00  0.00     0.252 C 
HETATM   36  N   UNL     1     -43.622  57.915 -58.705  1.00  0.00    -0.352 N 
HETATM   37  H   UNL     1     -44.538  58.093 -58.325  1.00  0.00     0.163 HD
HETATM   38  O   UNL     1     -41.408  58.513 -58.686  1.00  0.00    -0.268 OA
BRANCH  36  39
HETATM   39  C   UNL     1     -43.572  57.261 -60.012  1.00  0.00     0.084 C 
HETATM   40  C   UNL     1     -42.966  55.857 -59.897  1.00  0.00     0.025 C 
HETATM   41  C   UNL     1     -43.902  54.852 -59.229  1.00  0.00     0.002 C 
HETATM   42  C   UNL     1     -45.269  54.821 -59.904  1.00  0.00     0.000 C 
HETATM   43  C   UNL     1     -45.898  56.210 -59.967  1.00  0.00     0.002 C 
HETATM   44  C   UNL     1     -44.971  57.220 -60.645  1.00  0.00     0.025 C 
ENDBRANCH  36  39
ENDBRANCH  11  35
TORSDOF 7
ENDMDL
MODEL 3
REMARK VINA RESULT:      -9.1      2.881      6.699
REMARK  7 active torsions:
REMARK  status: ('A' for Active; 'I' for Inactive)
REMARK    1  A    between atoms: C_3  and  N_4 
REMARK       I    between atoms: N_4  and  C_5 
REMARK    2  A    between atoms: C_5  and  C_6 
REMARK    3  A    between atoms: C_6  and  N_7 
REMARK    4  A    between atoms: N_10  and  C_11 
REMARK    5  A    between atoms: C_11  and  C_12 
REMARK    6  A    between atoms: C_27  and  C_28 
REMARK       I    between atoms: C_28  and  N_29 
REMARK    7  A    between atoms: N_29  and  C_30 
ROOT
HETATM    1  N   UNL     1     -43.626  57.223 -54.095  1.00  0.00    -0.290 N 
HETATM    2  C   UNL     1     -43.290  56.790 -55.369  1.00  0.00     0.332 C 
HETATM    3  O   UNL     1     -43.357  55.587 -55.633  1.00  0.00    -0.246 OA
HETATM    4  N   UNL     1     -42.934  57.762 -56.288  1.00  0.00    -0.261 N 
HETATM    5  C   UNL     1     -43.254  59.105 -56.134  1.00  0.00     0.264 C 
HETATM    6  O   UNL     1     -43.093  59.958 -57.005  1.00  0.00    -0.267 OA
HETATM    7  C   UNL     1     -43.878  59.503 -54.857  1.00  0.00     0.059 A 
HETATM    8  C   UNL     1     -44.049  58.552 -53.855  1.00  0.00     0.056 A 
HETATM    9  C   UNL     1     -44.289  60.830 -54.667  1.00  0.00     0.020 A 
HETATM   10  C   UNL     1     -44.922  61.207 -53.481  1.00  0.00     0.018 A 
HETATM   11  C   UNL     1     -45.158  60.255 -52.484  1.00  0.00     0.034 A 
HETATM   12  C   UNL     1     -44.692  58.937 -52.670  1.00  0.00     0.048 A 
ENDROOT
BRANCH   1  13
HETATM   13  C   UNL     1     -43.436  56.275 -52.992  1.00  0.00     0.237 C 
BRANCH  13  14
HETATM   14  C   UNL     1     -42.120  55.494 -52.908  1.00  0.00     0.240 C 
HETATM   15  N   UNL     1     -42.264  54.125 -52.994  1.00  0.00    -0.325 N 
HETATM   16  H   UNL     1     -43.148  53.838 -53.408  1.00  0.00     0.169 HD
HETATM   17  O   UNL     1     -41.061  56.115 -52.939  1.00  0.00    -0.271 OA
BRANCH  15  18
HETATM   18  C   UNL     1     -41.261  53.128 -52.971  1.00  0.00     0.040 A 
HETATM   19  C   UNL     1     -40.436  52.781 -51.885  1.00  0.00    -0.035 A 
HETATM   20  C   UNL     1     -40.535  53.357 -50.500  1.00  0.00     0.050 C 
HETATM   21  C   UNL     1     -39.436  51.802 -52.078  1.00  0.00     0.009 A 
HETATM   22  C   UNL     1     -39.296  51.130 -53.290  1.00  0.00     0.001 A 
HETATM   23  C   UNL     1     -40.156  51.422 -54.337  1.00  0.00     0.002 A 
HETATM   24  C   UNL     1     -41.128  52.410 -54.176  1.00  0.00     0.030 A 
ENDBRANCH  15  18
ENDBRANCH  13  14
ENDBRANCH   1  13
BRANCH   4  25
HETATM   25  C   UNL     1     -42.483  57.338 -57.614  1.00  0.00     0.175 C 
BRANCH  25  26
HETATM   26  C   UNL     1     -43.569  56.790 -58.520  1.00  0.00    -0.037 A 
HETATM   27  C   UNL     1     -44.737  57.525 -58.783  1.00  0.00     0.048 A 
HETATM   28  C   UNL     1     -45.659  56.982 -59.655  1.00  0.00     0.105 A 
HETATM   29  C   UNL     1     -45.472  55.752 -60.242  1.00  0.00     0.105 A 
HETATM   30  O   UNL     1     -46.825  57.567 -60.046  1.00  0.00    -0.323 OA
HETATM   31  O   UNL     1     -46.492  55.409 -61.074  1.00  0.00    -0.323 OA
HETATM   32  C   UNL     1     -44.355  54.990 -59.989  1.00  0.00     0.040 A 
HETATM   33  C   UNL     1     -47.330  56.577 -60.969  1.00  0.00     0.352 A 
HETATM   34  C   UNL     1     -43.397  55.517 -59.118  1.00  0.00     0.012 A 
ENDBRANCH  25  26
ENDBRANCH   4  25
BRANCH  11  35
HETATM   35  C   UNL     1     -45.906  60.556 -51.223  1.00  0.00     0.252 C 
HETATM   36  N   UNL     1     -45.795  61.830 -50.699  1.00  0.00    -0.352 N 
HETATM   37  H   UNL     1     -45.328  62.552 -51.225  1.00  0.00     0.163 HD
HETATM   38  O   UNL     1     -46.609  59.686 -50.721  1.00  0.00    -0.268 OA
BRANCH  36  39
HETATM   39  C   UNL     1     -46.611  62.270 -49.567  1.00  0.00     0.084 C 
HETATM   40  C   UNL     1     -45.851  62.097 -48.246  1.00  0.00     0.025 C 
HETATM   41  C   UNL     1     -44.727  63.115 -48.063  1.00  0.00     0.002 C 
HETATM   42  C   UNL     1     -45.226  64.544 -48.242  1.00  0.00     0.000 C 
HETATM   43  C   UNL     1     -45.933  64.731 -49.582  1.00  0.00     0.002 C 
HETATM   44  C   UNL     1     -47.067  63.723 -49.768  1.00  0.00     0.025 C 
ENDBRANCH  36  39
ENDBRANCH  11  35
TORSDOF 7
ENDMDL
MODEL 4
REMARK VINA RESULT:      -9.0      2.984      8.024
REMARK  7 active torsions:
REMARK  status: ('A' for Active; 'I' for Inactive)
REMARK    1  A    between atoms: C_3  and  N_4 
REMARK       I    between atoms: N_4  and  C_5 
REMARK    2  A    between atoms: C_5  and  C_6 
REMARK    3  A    between atoms: C_6  and  N_7 
REMARK    4  A    between atoms: N_10  and  C_11 
REMARK    5  A    between atoms: C_11  and  C_12 
REMARK    6  A    between atoms: C_27  and  C_28 
REMARK       I    between atoms: C_28  and  N_29 
REMARK    7  A    between atoms: N_29  and  C_30 
ROOT
HETATM    1  N   UNL     1     -43.902  58.932 -52.632  1.00  0.00    -0.290 N 
HETATM    2  C   UNL     1     -43.283  59.704 -51.661  1.00  0.00     0.332 C 
HETATM    3  O   UNL     1     -42.381  59.208 -50.982  1.00  0.00    -0.246 OA
HETATM    4  N   UNL     1     -43.700  61.019 -51.546  1.00  0.00    -0.261 N 
HETATM    5  C   UNL     1     -44.387  61.687 -52.551  1.00  0.00     0.264 C 
HETATM    6  O   UNL     1     -44.626  62.893 -52.540  1.00  0.00    -0.267 OA
HETATM    7  C   UNL     1     -44.800  60.892 -53.724  1.00  0.00     0.059 A 
HETATM    8  C   UNL     1     -44.553  59.522 -53.741  1.00  0.00     0.056 A 
HETATM    9  C   UNL     1     -45.434  61.522 -54.804  1.00  0.00     0.020 A 
HETATM   10  C   UNL     1     -45.788  60.788 -55.938  1.00  0.00     0.018 A 
HETATM   11  C   UNL     1     -45.495  59.422 -56.002  1.00  0.00     0.034 A 
HETATM   12  C   UNL     1     -44.903  58.793 -54.887  1.00  0.00     0.048 A 
ENDROOT
BRANCH   1  13
HETATM   13  C   UNL     1     -43.936  57.481 -52.414  1.00  0.00     0.237 C 
BRANCH  13  14
HETATM   14  C   UNL     1     -42.773  56.629 -52.933  1.00  0.00     0.240 C 
HETATM   15  N   UNL     1     -42.865  55.289 -52.621  1.00  0.00    -0.325 N 
HETATM   16  H   UNL     1     -43.810  54.996 -52.379  1.00  0.00     0.169 HD
HETATM   17  O   UNL     1     -41.962  57.140 -53.700  1.00  0.00    -0.271 OA
BRANCH  15  18
HETATM   18  C   UNL     1     -41.981  54.239 -52.963  1.00  0.00     0.040 A 
HETATM   19  C   UNL     1     -41.896  53.573 -54.200  1.00  0.00    -0.035 A 
HETATM   20  C   UNL     1     -42.681  53.925 -55.432  1.00  0.00     0.050 C 
HETATM   21  C   UNL     1     -40.994  52.493 -54.328  1.00  0.00     0.009 A 
HETATM   22  C   UNL     1     -40.146  52.122 -53.287  1.00  0.00     0.001 A 
HETATM   23  C   UNL     1     -40.181  52.826 -52.093  1.00  0.00     0.002 A 
HETATM   24  C   UNL     1     -41.088  53.873 -51.936  1.00  0.00     0.030 A 
ENDBRANCH  15  18
ENDBRANCH  13  14
ENDBRANCH   1  13
BRANCH   4  25
HETATM   25  C   UNL     1     -43.137  61.839 -50.472  1.00  0.00     0.175 C 
BRANCH  25  26
HETATM   26  C   UNL     1     -44.099  62.184 -49.352  1.00  0.00    -0.037 A 
HETATM   27  C   UNL     1     -44.947  61.211 -48.795  1.00  0.00     0.048 A 
HETATM   28  C   UNL     1     -45.761  61.588 -47.746  1.00  0.00     0.105 A 
HETATM   29  C   UNL     1     -45.774  62.875 -47.259  1.00  0.00     0.105 A 
HETATM   30  O   UNL     1     -46.617  60.773 -47.070  1.00  0.00    -0.323 OA
HETATM   31  O   UNL     1     -46.637  63.032 -46.219  1.00  0.00    -0.323 OA
HETATM   32  C   UNL     1     -44.979  63.862 -47.794  1.00  0.00     0.040 A 
HETATM   33  C   UNL     1     -47.144  61.689 -46.085  1.00  0.00     0.352 A 
HETATM   34  C   UNL     1     -44.135  63.509 -48.851  1.00  0.00     0.012 A 
ENDBRANCH  25  26
ENDBRANCH   4  25
BRANCH  11  35
HETATM   35  C   UNL     1     -45.761  58.582 -57.212  1.00  0.00     0.252 C 
HETATM   36  N   UNL     1     -44.732  58.423 -58.122  1.00  0.00    -0.352 N 
HETATM   37  H   UNL     1     -43.809  58.760 -57.901  1.00  0.00     0.163 HD
HETATM   38  O   UNL     1     -46.855  58.044 -57.340  1.00  0.00    -0.268 OA
BRANCH  36  39
HETATM   39  C   UNL     1     -44.838  57.494 -59.248  1.00  0.00     0.084 C 
HETATM   40  C   UNL     1     -44.100  58.040 -60.476  1.00  0.00     0.025 C 
HETATM   41  C   UNL     1     -42.580  57.982 -60.337  1.00  0.00     0.002 C 
HETATM   42  C   UNL     1     -42.101  56.582 -59.968  1.00  0.00     0.000 C 
HETATM   43  C   UNL     1     -42.794  56.062 -58.712  1.00  0.00     0.002 C 
HETATM   44  C   UNL     1     -44.316  56.106 -58.848  1.00  0.00     0.025 C 
ENDBRANCH  36  39
ENDBRANCH  11  35
TORSDOF 7
ENDMDL
MODEL 5
REMARK VINA RESULT:      -9.0      1.595      2.644
REMARK  7 active torsions:
REMARK  status: ('A' for Active; 'I' for Inactive)
REMARK    1  A    between atoms: C_3  and  N_4 
REMARK       I    between atoms: N_4  and  C_5 
REMARK    2  A    between atoms: C_5  and  C_6 
REMARK    3  A    between atoms: C_6  and  N_7 
REMARK    4  A    between atoms: N_10  and  C_11 
REMARK    5  A    between atoms: C_11  and  C_12 
REMARK    6  A    between atoms: C_27  and  C_28 
REMARK       I    between atoms: C_28  and  N_29 
REMARK    7  A    between atoms: N_29  and  C_30 
ROOT
HETATM    1  N   UNL     1     -43.753  60.003 -54.910  1.00  0.00    -0.290 N 
HETATM    2  C   UNL     1     -42.524  59.509 -54.502  1.00  0.00     0.332 C 
HETATM    3  O   UNL     1     -41.575  59.530 -55.290  1.00  0.00    -0.246 OA
HETATM    4  N   UNL     1     -42.433  59.051 -53.199  1.00  0.00    -0.261 N 
HETATM    5  C   UNL     1     -43.340  59.402 -52.207  1.00  0.00     0.264 C 
HETATM    6  O   UNL     1     -43.194  59.144 -51.014  1.00  0.00    -0.267 OA
HETATM    7  C   UNL     1     -44.521  60.183 -52.625  1.00  0.00     0.059 A 
HETATM    8  C   UNL     1     -44.709  60.467 -53.975  1.00  0.00     0.056 A 
HETATM    9  C   UNL     1     -45.438  60.628 -51.662  1.00  0.00     0.020 A 
HETATM   10  C   UNL     1     -46.534  61.406 -52.041  1.00  0.00     0.018 A 
HETATM   11  C   UNL     1     -46.710  61.753 -53.384  1.00  0.00     0.034 A 
HETATM   12  C   UNL     1     -45.808  61.255 -54.346  1.00  0.00     0.048 A 
ENDROOT
BRANCH   1  13
HETATM   13  C   UNL     1     -44.060  59.941 -56.343  1.00  0.00     0.237 C 
BRANCH  13  14
HETATM   14  C   UNL     1     -44.635  58.643 -56.920  1.00  0.00     0.240 C 
HETATM   15  N   UNL     1     -43.937  58.139 -57.996  1.00  0.00    -0.325 N 
HETATM   16  H   UNL     1     -42.987  58.499 -58.064  1.00  0.00     0.169 HD
HETATM   17  O   UNL     1     -45.536  58.074 -56.310  1.00  0.00    -0.271 OA
BRANCH  15  18
HETATM   18  C   UNL     1     -44.186  56.962 -58.739  1.00  0.00     0.040 A 
HETATM   19  C   UNL     1     -43.705  55.669 -58.461  1.00  0.00    -0.035 A 
HETATM   20  C   UNL     1     -42.900  55.281 -57.253  1.00  0.00     0.050 C 
HETATM   21  C   UNL     1     -44.004  54.625 -59.365  1.00  0.00     0.009 A 
HETATM   22  C   UNL     1     -44.814  54.833 -60.479  1.00  0.00     0.001 A 
HETATM   23  C   UNL     1     -45.346  56.092 -60.712  1.00  0.00     0.002 A 
HETATM   24  C   UNL     1     -45.035  57.142 -59.849  1.00  0.00     0.030 A 
ENDBRANCH  15  18
ENDBRANCH  13  14
ENDBRANCH   1  13
BRANCH   4  25
HETATM   25  C   UNL     1     -41.180  58.437 -52.760  1.00  0.00     0.175 C 
BRANCH  25  26
HETATM   26  C   UNL     1     -41.128  56.926 -52.873  1.00  0.00    -0.037 A 
HETATM   27  C   UNL     1     -40.725  56.298 -54.065  1.00  0.00     0.048 A 
HETATM   28  C   UNL     1     -40.657  54.920 -54.078  1.00  0.00     0.105 A 
HETATM   29  C   UNL     1     -40.988  54.162 -52.979  1.00  0.00     0.105 A 
HETATM   30  O   UNL     1     -40.260  54.153 -55.131  1.00  0.00    -0.323 OA
HETATM   31  O   UNL     1     -40.841  52.828 -53.200  1.00  0.00    -0.323 OA
HETATM   32  C   UNL     1     -41.412  54.737 -51.803  1.00  0.00     0.040 A 
HETATM   33  C   UNL     1     -40.350  52.832 -54.555  1.00  0.00     0.352 A 
HETATM   34  C   UNL     1     -41.482  56.132 -51.754  1.00  0.00     0.012 A 
ENDBRANCH  25  26
ENDBRANCH   4  25
BRANCH  11  35
HETATM   35  C   UNL     1     -47.807  62.654 -53.860  1.00  0.00     0.252 C 
HETATM   36  N   UNL     1     -49.092  62.146 -53.883  1.00  0.00    -0.352 N 
HETATM   37  H   UNL     1     -49.285  61.246 -53.472  1.00  0.00     0.163 HD
HETATM   38  O   UNL     1     -47.538  63.807 -54.180  1.00  0.00    -0.268 OA
BRANCH  36  39
HETATM   39  C   UNL     1     -50.249  62.993 -54.175  1.00  0.00     0.084 C 
HETATM   40  C   UNL     1     -51.461  62.142 -54.575  1.00  0.00     0.025 C 
HETATM   41  C   UNL     1     -52.080  61.390 -53.399  1.00  0.00     0.002 C 
HETATM   42  C   UNL     1     -52.408  62.326 -52.241  1.00  0.00     0.000 C 
HETATM   43  C   UNL     1     -51.188  63.132 -51.805  1.00  0.00     0.002 C 
HETATM   44  C   UNL     1     -50.568  63.897 -52.975  1.00  0.00     0.025 C 
ENDBRANCH  36  39
ENDBRANCH  11  35
TORSDOF 7
ENDMDL
MODEL 6
REMARK VINA RESULT:      -8.9      3.587      7.310
REMARK  7 active torsions:
REMARK  status: ('A' for Active; 'I' for Inactive)
REMARK    1  A    between atoms: C_3  and  N_4 
REMARK       I    between atoms: N_4  and  C_5 
REMARK    2  A    between atoms: C_5  and  C_6 
REMARK    3  A    between atoms: C_6  and  N_7 
REMARK    4  A    between atoms: N_10  and  C_11 
REMARK    5  A    between atoms: C_11  and  C_12 
REMARK    6  A    between atoms: C_27  and  C_28 
REMARK       I    between atoms: C_28  and  N_29 
REMARK    7  A    between atoms: N_29  and  C_30 
ROOT
HETATM    1  N   UNL     1     -42.251  58.694 -54.751  1.00  0.00    -0.290 N 
HETATM    2  C   UNL     1     -42.775  57.494 -54.298  1.00  0.00     0.332 C 
HETATM    3  O   UNL     1     -43.218  57.426 -53.148  1.00  0.00    -0.246 OA
HETATM    4  N   UNL     1     -42.804  56.442 -55.198  1.00  0.00    -0.261 N 
HETATM    5  C   UNL     1     -42.707  56.618 -56.572  1.00  0.00     0.264 C 
HETATM    6  O   UNL     1     -42.890  55.725 -57.397  1.00  0.00    -0.267 OA
HETATM    7  C   UNL     1     -42.420  57.982 -57.055  1.00  0.00     0.059 A 
HETATM    8  C   UNL     1     -42.192  58.999 -56.132  1.00  0.00     0.056 A 
HETATM    9  C   UNL     1     -42.380  58.240 -58.432  1.00  0.00     0.020 A 
HETATM   10  C   UNL     1     -42.154  59.536 -58.900  1.00  0.00     0.018 A 
HETATM   11  C   UNL     1     -41.982  60.584 -57.990  1.00  0.00     0.034 A 
HETATM   12  C   UNL     1     -41.974  60.300 -56.609  1.00  0.00     0.048 A 
ENDROOT
BRANCH   1  13
HETATM   13  C   UNL     1     -41.675  59.596 -53.748  1.00  0.00     0.237 C 
BRANCH  13  14
HETATM   14  C   UNL     1     -42.595  60.593 -53.035  1.00  0.00     0.240 C 
HETATM   15  N   UNL     1     -42.941  60.232 -51.751  1.00  0.00    -0.325 N 
HETATM   16  H   UNL     1     -42.310  59.544 -51.343  1.00  0.00     0.169 HD
HETATM   17  O   UNL     1     -42.816  61.678 -53.567  1.00  0.00    -0.271 OA
BRANCH  15  18
HETATM   18  C   UNL     1     -43.748  60.930 -50.822  1.00  0.00     0.040 A 
HETATM   19  C   UNL     1     -45.020  60.551 -50.355  1.00  0.00    -0.035 A 
HETATM   20  C   UNL     1     -45.726  59.269 -50.695  1.00  0.00     0.050 C 
HETATM   21  C   UNL     1     -45.707  61.421 -49.478  1.00  0.00     0.009 A 
HETATM   22  C   UNL     1     -45.128  62.601 -49.018  1.00  0.00     0.001 A 
HETATM   23  C   UNL     1     -43.845  62.937 -49.423  1.00  0.00     0.002 A 
HETATM   24  C   UNL     1     -43.165  62.107 -50.315  1.00  0.00     0.030 A 
ENDBRANCH  15  18
ENDBRANCH  13  14
ENDBRANCH   1  13
BRANCH   4  25
HETATM   25  C   UNL     1     -43.264  55.134 -54.729  1.00  0.00     0.175 C 
BRANCH  25  26
HETATM   26  C   UNL     1     -42.216  54.297 -54.022  1.00  0.00    -0.037 A 
HETATM   27  C   UNL     1     -42.246  54.117 -52.629  1.00  0.00     0.048 A 
HETATM   28  C   UNL     1     -41.287  53.303 -52.061  1.00  0.00     0.105 A 
HETATM   29  C   UNL     1     -40.309  52.694 -52.814  1.00  0.00     0.105 A 
HETATM   30  O   UNL     1     -41.186  52.994 -50.739  1.00  0.00    -0.323 OA
HETATM   31  O   UNL     1     -39.473  51.928 -52.063  1.00  0.00    -0.323 OA
HETATM   32  C   UNL     1     -40.229  52.867 -54.176  1.00  0.00     0.040 A 
HETATM   33  C   UNL     1     -40.053  52.098 -50.755  1.00  0.00     0.352 A 
HETATM   34  C   UNL     1     -41.192  53.678 -54.782  1.00  0.00     0.012 A 
ENDBRANCH  25  26
ENDBRANCH   4  25
BRANCH  11  35
HETATM   35  C   UNL     1     -41.823  62.013 -58.406  1.00  0.00     0.252 C 
HETATM   36  N   UNL     1     -41.112  62.271 -59.563  1.00  0.00    -0.352 N 
HETATM   37  H   UNL     1     -40.827  61.509 -60.159  1.00  0.00     0.163 HD
HETATM   38  O   UNL     1     -42.349  62.894 -57.735  1.00  0.00    -0.268 OA
BRANCH  36  39
HETATM   39  C   UNL     1     -41.040  63.613 -60.140  1.00  0.00     0.084 C 
HETATM   40  C   UNL     1     -39.905  64.422 -59.500  1.00  0.00     0.025 C 
HETATM   41  C   UNL     1     -38.518  63.962 -59.944  1.00  0.00     0.002 C 
HETATM   42  C   UNL     1     -38.396  63.924 -61.463  1.00  0.00     0.000 C 
HETATM   43  C   UNL     1     -39.493  63.073 -62.096  1.00  0.00     0.002 C 
HETATM   44  C   UNL     1     -40.885  63.535 -61.666  1.00  0.00     0.025 C 
ENDBRANCH  36  39
ENDBRANCH  11  35
TORSDOF 7
ENDMDL
MODEL 7
REMARK VINA RESULT:      -8.6      3.446      6.987
REMARK  7 active torsions:
REMARK  status: ('A' for Active; 'I' for Inactive)
REMARK    1  A    between atoms: C_3  and  N_4 
REMARK       I    between atoms: N_4  and  C_5 
REMARK    2  A    between atoms: C_5  and  C_6 
REMARK    3  A    between atoms: C_6  and  N_7 
REMARK    4  A    between atoms: N_10  and  C_11 
REMARK    5  A    between atoms: C_11  and  C_12 
REMARK    6  A    between atoms: C_27  and  C_28 
REMARK       I    between atoms: C_28  and  N_29 
REMARK    7  A    between atoms: N_29  and  C_30 
ROOT
HETATM    1  N   UNL     1     -43.843  58.651 -55.785  1.00  0.00    -0.290 N 
HETATM    2  C   UNL     1     -44.222  57.524 -55.073  1.00  0.00     0.332 C 
HETATM    3  O   UNL     1     -45.120  57.618 -54.231  1.00  0.00    -0.246 OA
HETATM    4  N   UNL     1     -43.584  56.337 -55.389  1.00  0.00    -0.261 N 
HETATM    5  C   UNL     1     -42.902  56.139 -56.583  1.00  0.00     0.264 C 
HETATM    6  O   UNL     1     -42.467  55.052 -56.957  1.00  0.00    -0.267 OA
HETATM    7  C   UNL     1     -42.749  57.308 -57.471  1.00  0.00     0.059 A 
HETATM    8  C   UNL     1     -43.220  58.549 -57.052  1.00  0.00     0.056 A 
HETATM    9  C   UNL     1     -42.134  57.157 -58.721  1.00  0.00     0.020 A 
HETATM   10  C   UNL     1     -42.025  58.247 -59.587  1.00  0.00     0.018 A 
HETATM   11  C   UNL     1     -42.544  59.490 -59.212  1.00  0.00     0.034 A 
HETATM   12  C   UNL     1     -43.115  59.637 -57.930  1.00  0.00     0.048 A 
ENDROOT
BRANCH   1  13
HETATM   13  C   UNL     1     -44.027  59.951 -55.131  1.00  0.00     0.237 C 
BRANCH  13  14
HETATM   14  C   UNL     1     -43.018  60.393 -54.065  1.00  0.00     0.240 C 
HETATM   15  N   UNL     1     -42.450  59.357 -53.355  1.00  0.00    -0.325 N 
HETATM   16  H   UNL     1     -42.526  58.457 -53.825  1.00  0.00     0.169 HD
HETATM   17  O   UNL     1     -42.672  61.571 -54.031  1.00  0.00    -0.271 OA
BRANCH  15  18
HETATM   18  C   UNL     1     -41.479  59.417 -52.328  1.00  0.00     0.040 A 
HETATM   19  C   UNL     1     -41.653  59.925 -51.028  1.00  0.00    -0.035 A 
HETATM   20  C   UNL     1     -42.950  60.422 -50.454  1.00  0.00     0.050 C 
HETATM   21  C   UNL     1     -40.537  59.967 -50.161  1.00  0.00     0.009 A 
HETATM   22  C   UNL     1     -39.298  59.458 -50.541  1.00  0.00     0.001 A 
HETATM   23  C   UNL     1     -39.147  58.893 -51.798  1.00  0.00     0.002 A 
HETATM   24  C   UNL     1     -40.228  58.872 -52.679  1.00  0.00     0.030 A 
ENDBRANCH  15  18
ENDBRANCH  13  14
ENDBRANCH   1  13
BRANCH   4  25
HETATM   25  C   UNL     1     -43.890  55.146 -54.597  1.00  0.00     0.175 C 
BRANCH  25  26
HETATM   26  C   UNL     1     -42.836  54.760 -53.578  1.00  0.00    -0.037 A 
HETATM   27  C   UNL     1     -42.090  53.576 -53.714  1.00  0.00     0.048 A 
HETATM   28  C   UNL     1     -41.115  53.315 -52.773  1.00  0.00     0.105 A 
HETATM   29  C   UNL     1     -40.878  54.160 -51.714  1.00  0.00     0.105 A 
HETATM   30  O   UNL     1     -40.283  52.237 -52.768  1.00  0.00    -0.323 OA
HETATM   31  O   UNL     1     -39.869  53.724 -50.913  1.00  0.00    -0.323 OA
HETATM   32  C   UNL     1     -41.604  55.314 -51.531  1.00  0.00     0.040 A 
HETATM   33  C   UNL     1     -39.477  52.522 -51.604  1.00  0.00     0.352 A 
HETATM   34  C   UNL     1     -42.592  55.613 -52.473  1.00  0.00     0.012 A 
ENDBRANCH  25  26
ENDBRANCH   4  25
BRANCH  11  35
HETATM   35  C   UNL     1     -42.547  60.684 -60.115  1.00  0.00     0.252 C 
HETATM   36  N   UNL     1     -41.916  61.829 -59.668  1.00  0.00    -0.352 N 
HETATM   37  H   UNL     1     -41.371  61.805 -58.820  1.00  0.00     0.163 HD
HETATM   38  O   UNL     1     -43.073  60.599 -61.219  1.00  0.00    -0.268 OA
BRANCH  36  39
HETATM   39  C   UNL     1     -41.722  62.990 -60.536  1.00  0.00     0.084 C 
HETATM   40  C   UNL     1     -41.979  64.294 -59.771  1.00  0.00     0.025 C 
HETATM   41  C   UNL     1     -40.874  64.631 -58.772  1.00  0.00     0.002 C 
HETATM   42  C   UNL     1     -39.499  64.627 -59.431  1.00  0.00     0.000 C 
HETATM   43  C   UNL     1     -39.220  63.308 -60.145  1.00  0.00     0.002 C 
HETATM   44  C   UNL     1     -40.317  62.969 -61.156  1.00  0.00     0.025 C 
ENDBRANCH  36  39
ENDBRANCH  11  35
TORSDOF 7
ENDMDL
MODEL 8
REMARK VINA RESULT:      -8.4      3.242      9.163
REMARK  7 active torsions:
REMARK  status: ('A' for Active; 'I' for Inactive)
REMARK    1  A    between atoms: C_3  and  N_4 
REMARK       I    between atoms: N_4  and  C_5 
REMARK    2  A    between atoms: C_5  and  C_6 
REMARK    3  A    between atoms: C_6  and  N_7 
REMARK    4  A    between atoms: N_10  and  C_11 
REMARK    5  A    between atoms: C_11  and  C_12 
REMARK    6  A    between atoms: C_27  and  C_28 
REMARK       I    between atoms: C_28  and  N_29 
REMARK    7  A    between atoms: N_29  and  C_30 
ROOT
HETATM    1  N   UNL     1     -44.405  59.360 -56.149  1.00  0.00    -0.290 N 
HETATM    2  C   UNL     1     -44.260  60.465 -56.973  1.00  0.00     0.332 C 
HETATM    3  O   UNL     1     -44.263  61.593 -56.472  1.00  0.00    -0.246 OA
HETATM    4  N   UNL     1     -44.076  60.222 -58.323  1.00  0.00    -0.261 N 
HETATM    5  C   UNL     1     -43.659  58.995 -58.822  1.00  0.00     0.264 C 
HETATM    6  O   UNL     1     -43.335  58.799 -59.992  1.00  0.00    -0.267 OA
HETATM    7  C   UNL     1     -43.550  57.882 -57.859  1.00  0.00     0.059 A 
HETATM    8  C   UNL     1     -43.931  58.084 -56.536  1.00  0.00     0.056 A 
HETATM    9  C   UNL     1     -43.066  56.637 -58.286  1.00  0.00     0.020 A 
HETATM   10  C   UNL     1     -42.916  55.590 -57.374  1.00  0.00     0.018 A 
HETATM   11  C   UNL     1     -43.237  55.788 -56.028  1.00  0.00     0.034 A 
HETATM   12  C   UNL     1     -43.770  57.030 -55.624  1.00  0.00     0.048 A 
ENDROOT
BRANCH   1  13
HETATM   13  C   UNL     1     -45.153  59.547 -54.901  1.00  0.00     0.237 C 
BRANCH  13  14
HETATM   14  C   UNL     1     -44.457  59.246 -53.570  1.00  0.00     0.240 C 
HETATM   15  N   UNL     1     -43.156  59.696 -53.493  1.00  0.00    -0.325 N 
HETATM   16  H   UNL     1     -42.940  60.421 -54.174  1.00  0.00     0.169 HD
HETATM   17  O   UNL     1     -45.125  58.797 -52.642  1.00  0.00    -0.271 OA
BRANCH  15  18
HETATM   18  C   UNL     1     -42.250  59.601 -52.411  1.00  0.00     0.040 A 
HETATM   19  C   UNL     1     -41.104  58.789 -52.335  1.00  0.00    -0.035 A 
HETATM   20  C   UNL     1     -40.574  57.927 -53.447  1.00  0.00     0.050 C 
HETATM   21  C   UNL     1     -40.359  58.776 -51.135  1.00  0.00     0.009 A 
HETATM   22  C   UNL     1     -40.693  59.595 -50.059  1.00  0.00     0.001 A 
HETATM   23  C   UNL     1     -41.782  60.448 -50.161  1.00  0.00     0.002 A 
HETATM   24  C   UNL     1     -42.549  60.449 -51.326  1.00  0.00     0.030 A 
ENDBRANCH  15  18
ENDBRANCH  13  14
ENDBRANCH   1  13
BRANCH   4  25
HETATM   25  C   UNL     1     -44.012  61.363 -59.236  1.00  0.00     0.175 C 
BRANCH  25  26
HETATM   26  C   UNL     1     -42.613  61.833 -59.585  1.00  0.00    -0.037 A 
HETATM   27  C   UNL     1     -42.221  62.021 -60.922  1.00  0.00     0.048 A 
HETATM   28  C   UNL     1     -40.947  62.496 -61.160  1.00  0.00     0.105 A 
HETATM   29  C   UNL     1     -40.064  62.762 -60.138  1.00  0.00     0.105 A 
HETATM   30  O   UNL     1     -40.414  62.765 -62.384  1.00  0.00    -0.323 OA
HETATM   31  O   UNL     1     -38.870  63.231 -60.588  1.00  0.00    -0.323 OA
HETATM   32  C   UNL     1     -40.402  62.566 -58.819  1.00  0.00     0.040 A 
HETATM   33  C   UNL     1     -39.109  63.260 -62.009  1.00  0.00     0.352 A 
HETATM   34  C   UNL     1     -41.689  62.096 -58.544  1.00  0.00     0.012 A 
ENDBRANCH  25  26
ENDBRANCH   4  25
BRANCH  11  35
HETATM   35  C   UNL     1     -43.023  54.749 -54.972  1.00  0.00     0.252 C 
HETATM   36  N   UNL     1     -43.012  55.164 -53.654  1.00  0.00    -0.352 N 
HETATM   37  H   UNL     1     -43.266  56.111 -53.423  1.00  0.00     0.163 HD
HETATM   38  O   UNL     1     -42.899  53.575 -55.304  1.00  0.00    -0.268 OA
BRANCH  36  39
HETATM   39  C   UNL     1     -42.974  54.208 -52.547  1.00  0.00     0.084 C 
HETATM   40  C   UNL     1     -41.538  53.744 -52.275  1.00  0.00     0.025 C 
HETATM   41  C   UNL     1     -40.676  54.818 -51.615  1.00  0.00     0.002 C 
HETATM   42  C   UNL     1     -41.335  55.376 -50.358  1.00  0.00     0.000 C 
HETATM   43  C   UNL     1     -42.743  55.890 -50.640  1.00  0.00     0.002 C 
HETATM   44  C   UNL     1     -43.616  54.816 -51.291  1.00  0.00     0.025 C 
ENDBRANCH  36  39
ENDBRANCH  11  35
TORSDOF 7
ENDMDL
MODEL 9
REMARK VINA RESULT:      -8.4      3.599      5.767
REMARK  7 active torsions:
REMARK  status: ('A' for Active; 'I' for Inactive)
REMARK    1  A    between atoms: C_3  and  N_4 
REMARK       I    between atoms: N_4  and  C_5 
REMARK    2  A    between atoms: C_5  and  C_6 
REMARK    3  A    between atoms: C_6  and  N_7 
REMARK    4  A    between atoms: N_10  and  C_11 
REMARK    5  A    between atoms: C_11  and  C_12 
REMARK    6  A    between atoms: C_27  and  C_28 
REMARK       I    between atoms: C_28  and  N_29 
REMARK    7  A    between atoms: N_29  and  C_30 
ROOT
HETATM    1  N   UNL     1     -42.574  57.309 -56.779  1.00  0.00    -0.290 N 
HETATM    2  C   UNL     1     -42.606  56.112 -56.081  1.00  0.00     0.332 C 
HETATM    3  O   UNL     1     -41.797  55.226 -56.368  1.00  0.00    -0.246 OA
HETATM    4  N   UNL     1     -43.536  56.005 -55.061  1.00  0.00    -0.261 N 
HETATM    5  C   UNL     1     -44.140  57.106 -54.468  1.00  0.00     0.264 C 
HETATM    6  O   UNL     1     -44.842  57.049 -53.460  1.00  0.00    -0.267 OA
HETATM    7  C   UNL     1     -43.865  58.426 -55.067  1.00  0.00     0.059 A 
HETATM    8  C   UNL     1     -43.087  58.503 -56.219  1.00  0.00     0.056 A 
HETATM    9  C   UNL     1     -44.387  59.583 -54.473  1.00  0.00     0.020 A 
HETATM   10  C   UNL     1     -44.095  60.840 -55.006  1.00  0.00     0.018 A 
HETATM   11  C   UNL     1     -43.267  60.946 -56.128  1.00  0.00     0.034 A 
HETATM   12  C   UNL     1     -42.792  59.770 -56.744  1.00  0.00     0.048 A 
ENDROOT
BRANCH   1  13
HETATM   13  C   UNL     1     -42.072  57.269 -58.157  1.00  0.00     0.237 C 
BRANCH  13  14
HETATM   14  C   UNL     1     -43.072  57.075 -59.302  1.00  0.00     0.240 C 
HETATM   15  N   UNL     1     -44.387  57.298 -58.955  1.00  0.00    -0.325 N 
HETATM   16  H   UNL     1     -44.491  57.853 -58.107  1.00  0.00     0.169 HD
HETATM   17  O   UNL     1     -42.641  56.908 -60.440  1.00  0.00    -0.271 OA
BRANCH  15  18
HETATM   18  C   UNL     1     -45.541  57.227 -59.770  1.00  0.00     0.040 A 
HETATM   19  C   UNL     1     -46.044  56.089 -60.427  1.00  0.00    -0.035 A 
HETATM   20  C   UNL     1     -45.486  54.698 -60.307  1.00  0.00     0.050 C 
HETATM   21  C   UNL     1     -47.176  56.231 -61.261  1.00  0.00     0.009 A 
HETATM   22  C   UNL     1     -47.838  57.449 -61.390  1.00  0.00     0.001 A 
HETATM   23  C   UNL     1     -47.384  58.554 -60.685  1.00  0.00     0.002 A 
HETATM   24  C   UNL     1     -46.248  58.440 -59.883  1.00  0.00     0.030 A 
ENDBRANCH  15  18
ENDBRANCH  13  14
ENDBRANCH   1  13
BRANCH   4  25
HETATM   25  C   UNL     1     -43.664  54.725 -54.363  1.00  0.00     0.175 C 
BRANCH  25  26
HETATM   26  C   UNL     1     -42.515  54.377 -53.437  1.00  0.00    -0.037 A 
HETATM   27  C   UNL     1     -42.322  55.065 -52.226  1.00  0.00     0.048 A 
HETATM   28  C   UNL     1     -41.283  54.662 -51.413  1.00  0.00     0.105 A 
HETATM   29  C   UNL     1     -40.436  53.636 -51.764  1.00  0.00     0.105 A 
HETATM   30  O   UNL     1     -40.971  55.192 -50.198  1.00  0.00    -0.323 OA
HETATM   31  O   UNL     1     -39.490  53.391 -50.819  1.00  0.00    -0.323 OA
HETATM   32  C   UNL     1     -40.576  52.956 -52.953  1.00  0.00     0.040 A 
HETATM   33  C   UNL     1     -39.854  54.360 -49.816  1.00  0.00     0.352 A 
HETATM   34  C   UNL     1     -41.625  53.334 -53.794  1.00  0.00     0.012 A 
ENDBRANCH  25  26
ENDBRANCH   4  25
BRANCH  11  35
HETATM   35  C   UNL     1     -42.835  62.257 -56.707  1.00  0.00     0.252 C 
HETATM   36  N   UNL     1     -42.202  62.240 -57.936  1.00  0.00    -0.352 N 
HETATM   37  H   UNL     1     -42.156  61.384 -58.466  1.00  0.00     0.163 HD
HETATM   38  O   UNL     1     -43.081  63.292 -56.097  1.00  0.00    -0.268 OA
BRANCH  36  39
HETATM   39  C   UNL     1     -41.890  63.473 -58.658  1.00  0.00     0.084 C 
HETATM   40  C   UNL     1     -40.408  63.835 -58.503  1.00  0.00     0.025 C 
HETATM   41  C   UNL     1     -39.481  62.920 -59.301  1.00  0.00     0.002 C 
HETATM   42  C   UNL     1     -39.891  62.842 -60.767  1.00  0.00     0.000 C 
HETATM   43  C   UNL     1     -41.351  62.426 -60.923  1.00  0.00     0.002 C 
HETATM   44  C   UNL     1     -42.287  63.345 -60.136  1.00  0.00     0.025 C 
ENDBRANCH  36  39
ENDBRANCH  11  35
TORSDOF 7
ENDMDL
MODEL 10
REMARK VINA RESULT:      -8.4      2.994      6.907
REMARK  7 active torsions:
REMARK  status: ('A' for Active; 'I' for Inactive)
REMARK    1  A    between atoms: C_3  and  N_4 
REMARK       I    between atoms: N_4  and  C_5 
REMARK    2  A    between atoms: C_5  and  C_6 
REMARK    3  A    between atoms: C_6  and  N_7 
REMARK    4  A    between atoms: N_10  and  C_11 
REMARK    5  A    between atoms: C_11  and  C_12 
REMARK    6  A    between atoms: C_27  and  C_28 
REMARK       I    between atoms: C_28  and  N_29 
REMARK    7  A    between atoms: N_29  and  C_30 
ROOT
HETATM    1  N   UNL     1     -42.601  58.313 -55.541  1.00  0.00    -0.290 N 
HETATM    2  C   UNL     1     -43.132  57.313 -54.741  1.00  0.00     0.332 C 
HETATM    3  O   UNL     1     -43.595  57.608 -53.637  1.00  0.00    -0.246 OA
HETATM    4  N   UNL     1     -43.143  56.031 -55.264  1.00  0.00    -0.261 N 
HETATM    5  C   UNL     1     -43.021  55.766 -56.622  1.00  0.00     0.264 C 
HETATM    6  O   UNL     1     -43.188  54.658 -57.127  1.00  0.00    -0.267 OA
HETATM    7  C   UNL     1     -42.727  56.911 -57.506  1.00  0.00     0.059 A 
HETATM    8  C   UNL     1     -42.517  58.168 -56.946  1.00  0.00     0.056 A 
HETATM    9  C   UNL     1     -42.662  56.722 -58.893  1.00  0.00     0.020 A 
HETATM   10  C   UNL     1     -42.430  57.806 -59.741  1.00  0.00     0.018 A 
HETATM   11  C   UNL     1     -42.275  59.089 -59.205  1.00  0.00     0.034 A 
HETATM   12  C   UNL     1     -42.292  59.254 -57.805  1.00  0.00     0.048 A 
ENDROOT
BRANCH   1  13
HETATM   13  C   UNL     1     -42.044  59.489 -54.863  1.00  0.00     0.237 C 
BRANCH  13  14
HETATM   14  C   UNL     1     -42.997  60.601 -54.411  1.00  0.00     0.240 C 
HETATM   15  N   UNL     1     -43.605  60.371 -53.195  1.00  0.00    -0.325 N 
HETATM   16  H   UNL     1     -43.120  59.679 -52.627  1.00  0.00     0.169 HD
HETATM   17  O   UNL     1     -43.025  61.651 -55.048  1.00  0.00    -0.271 OA
BRANCH  15  18
HETATM   18  C   UNL     1     -44.511  61.196 -52.489  1.00  0.00     0.040 A 
HETATM   19  C   UNL     1     -44.224  62.012 -51.379  1.00  0.00    -0.035 A 
HETATM   20  C   UNL     1     -42.860  62.228 -50.788  1.00  0.00     0.050 C 
HETATM   21  C   UNL     1     -45.284  62.713 -50.760  1.00  0.00     0.009 A 
HETATM   22  C   UNL     1     -46.582  62.667 -51.263  1.00  0.00     0.001 A 
HETATM   23  C   UNL     1     -46.849  61.919 -52.400  1.00  0.00     0.002 A 
HETATM   24  C   UNL     1     -45.822  61.194 -53.005  1.00  0.00     0.030 A 
ENDBRANCH  15  18
ENDBRANCH  13  14
ENDBRANCH   1  13
BRANCH   4  25
HETATM   25  C   UNL     1     -43.609  54.934 -54.416  1.00  0.00     0.175 C 
BRANCH  25  26
HETATM   26  C   UNL     1     -42.518  54.168 -53.694  1.00  0.00    -0.037 A 
HETATM   27  C   UNL     1     -41.795  53.149 -54.338  1.00  0.00     0.048 A 
HETATM   28  C   UNL     1     -40.785  52.529 -53.632  1.00  0.00     0.105 A 
HETATM   29  C   UNL     1     -40.491  52.865 -52.330  1.00  0.00     0.105 A 
HETATM   30  O   UNL     1     -39.967  51.549 -54.107  1.00  0.00    -0.323 OA
HETATM   31  O   UNL     1     -39.456  52.143 -51.824  1.00  0.00    -0.323 OA
HETATM   32  C   UNL     1     -41.193  53.838 -51.656  1.00  0.00     0.040 A 
HETATM   33  C   UNL     1     -39.109  51.333 -52.965  1.00  0.00     0.352 A 
HETATM   34  C   UNL     1     -42.216  54.492 -52.348  1.00  0.00     0.012 A 
ENDBRANCH  25  26
ENDBRANCH   4  25
BRANCH  11  35
HETATM   35  C   UNL     1     -42.110  60.315 -60.047  1.00  0.00     0.252 C 
HETATM   36  N   UNL     1     -42.053  61.536 -59.402  1.00  0.00    -0.352 N 
HETATM   37  H   UNL     1     -41.997  61.571 -58.396  1.00  0.00     0.163 HD
HETATM   38  O   UNL     1     -42.001  60.197 -61.263  1.00  0.00    -0.268 OA
BRANCH  36  39
HETATM   39  C   UNL     1     -41.731  62.771 -60.117  1.00  0.00     0.084 C 
HETATM   40  C   UNL     1     -42.177  63.999 -59.314  1.00  0.00     0.025 C 
HETATM   41  C   UNL     1     -41.302  64.266 -58.092  1.00  0.00     0.002 C 
HETATM   42  C   UNL     1     -39.825  64.342 -58.463  1.00  0.00     0.000 C 
HETATM   43  C   UNL     1     -39.367  63.094 -59.213  1.00  0.00     0.002 C 
HETATM   44  C   UNL     1     -40.232  62.826 -60.444  1.00  0.00     0.025 C 
ENDBRANCH  36  39
ENDBRANCH  11  35
TORSDOF 7
ENDMDL
