MODEL 1
REMARK VINA RESULT:      -8.7      0.000      0.000
REMARK  3 active torsions:
REMARK  status: ('A' for Active; 'I' for Inactive)
REMARK    1  A    between atoms: C_4  and  N_5 
REMARK       I    between atoms: N_5  and  C_6 
REMARK    2  A    between atoms: C_6  and  C_7 
REMARK    3  A    between atoms: C_7  and  C_8 
ROOT
HETATM    1  C   UNL     1     -42.472  55.941 -50.930  1.00  0.00     0.286 C 
HETATM    2  N   UNL     1     -41.177  56.716 -50.720  1.00  0.00    -0.056 N 
HETATM    3  H   UNL     1     -41.125  56.883 -49.691  1.00  0.00     0.278 HD
HETATM    4  H   UNL     1     -40.358  56.142 -50.950  1.00  0.00     0.278 HD
HETATM    5  C   UNL     1     -41.119  58.055 -51.402  1.00  0.00     0.209 C 
HETATM    6  C   UNL     1     -42.374  58.883 -51.029  1.00  0.00     0.115 C 
HETATM    7  N   UNL     1     -43.619  58.132 -51.173  1.00  0.00    -0.353 N 
HETATM    8  C   UNL     1     -43.739  56.813 -50.809  1.00  0.00     0.249 C 
HETATM    9  O   UNL     1     -44.839  56.357 -50.520  1.00  0.00    -0.271 OA
HETATM   10  C   UNL     1     -40.938  57.866 -52.909  1.00  0.00     0.035 C 
HETATM   11  C   UNL     1     -40.977  59.205 -53.640  1.00  0.00     0.002 C 
HETATM   12  C   UNL     1     -42.261  59.968 -53.330  1.00  0.00     0.002 C 
HETATM   13  C   UNL     1     -42.433  60.190 -51.828  1.00  0.00     0.027 C 
HETATM   14  H   UNL     1     -44.492  58.641 -51.037  1.00  0.00     0.163 HD
ENDROOT
BRANCH   1  15
HETATM   15  C   UNL     1     -42.560  54.700 -50.025  1.00  0.00     0.146 C 
BRANCH  15  16
HETATM   16  C   UNL     1     -41.233  54.365 -49.397  1.00  0.00     0.224 C 
HETATM   17  N   UNL     1     -40.256  53.695 -50.060  1.00  0.00    -0.327 N 
HETATM   18  H   UNL     1     -39.404  53.645 -49.506  1.00  0.00     0.169 HD
HETATM   19  O   UNL     1     -40.980  54.822 -48.273  1.00  0.00    -0.273 OA
BRANCH  17  20
HETATM   20  C   UNL     1     -40.157  53.081 -51.327  1.00  0.00     0.035 A 
HETATM   21  C   UNL     1     -40.313  53.712 -52.560  1.00  0.00     0.036 A 
HETATM   22  C   UNL     1     -40.224  52.989 -53.763  1.00  0.00    -0.059 A 
HETATM   23  C   UNL     1     -40.480  53.673 -55.076  1.00  0.00     0.048 C 
HETATM   24  C   UNL     1     -39.973  51.615 -53.726  1.00  0.00     0.013 A 
HETATM   25  C   UNL     1     -39.792  50.962 -52.506  1.00  0.00    -0.059 A 
HETATM   26  C   UNL     1     -39.907  51.698 -51.317  1.00  0.00     0.036 A 
HETATM   27  C   UNL     1     -39.548  49.482 -52.464  1.00  0.00     0.048 C 
ENDBRANCH  17  20
ENDBRANCH  15  16
ENDBRANCH   1  15
TORSDOF 3
ENDMDL
MODEL 2
REMARK VINA RESULT:      -8.6      0.417      1.827
REMARK  3 active torsions:
REMARK  status: ('A' for Active; 'I' for Inactive)
REMARK    1  A    between atoms: C_4  and  N_5 
REMARK       I    between atoms: N_5  and  C_6 
REMARK    2  A    between atoms: C_6  and  C_7 
REMARK    3  A    between atoms: C_7  and  C_8 
ROOT
HETATM    1  C   UNL     1     -42.535  55.974 -51.146  1.00  0.00     0.286 C 
HETATM    2  N   UNL     1     -41.221  56.730 -50.987  1.00  0.00    -0.056 N 
HETATM    3  H   UNL     1     -41.089  56.829 -49.957  1.00  0.00     0.278 HD
HETATM    4  H   UNL     1     -40.427  56.169 -51.317  1.00  0.00     0.278 HD
HETATM    5  C   UNL     1     -41.205  58.111 -51.583  1.00  0.00     0.209 C 
HETATM    6  C   UNL     1     -42.420  58.917 -51.062  1.00  0.00     0.115 C 
HETATM    7  N   UNL     1     -43.680  58.180 -51.158  1.00  0.00    -0.353 N 
HETATM    8  C   UNL     1     -43.781  56.841 -50.871  1.00  0.00     0.249 C 
HETATM    9  O   UNL     1     -44.860  56.370 -50.529  1.00  0.00    -0.271 OA
HETATM   10  C   UNL     1     -41.142  58.019 -53.109  1.00  0.00     0.035 C 
HETATM   11  C   UNL     1     -41.226  59.403 -53.747  1.00  0.00     0.002 C 
HETATM   12  C   UNL     1     -42.476  60.149 -53.290  1.00  0.00     0.002 C 
HETATM   13  C   UNL     1     -42.530  60.273 -51.768  1.00  0.00     0.027 C 
HETATM   14  H   UNL     1     -44.535  58.682 -50.922  1.00  0.00     0.163 HD
ENDROOT
BRANCH   1  15
HETATM   15  C   UNL     1     -42.564  54.678 -50.320  1.00  0.00     0.146 C 
BRANCH  15  16
HETATM   16  C   UNL     1     -41.215  54.354 -49.732  1.00  0.00     0.224 C 
HETATM   17  N   UNL     1     -40.264  53.664 -50.413  1.00  0.00    -0.327 N 
HETATM   18  H   UNL     1     -39.393  53.625 -49.890  1.00  0.00     0.169 HD
HETATM   19  O   UNL     1     -40.920  54.838 -48.630  1.00  0.00    -0.273 OA
BRANCH  17  20
HETATM   20  C   UNL     1     -40.214  53.018 -51.667  1.00  0.00     0.035 A 
HETATM   21  C   UNL     1     -39.961  51.664 -51.884  1.00  0.00     0.036 A 
HETATM   22  C   UNL     1     -39.903  51.135 -53.186  1.00  0.00    -0.059 A 
HETATM   23  C   UNL     1     -39.544  49.692 -53.399  1.00  0.00     0.048 C 
HETATM   24  C   UNL     1     -40.104  51.977 -54.283  1.00  0.00     0.013 A 
HETATM   25  C   UNL     1     -40.381  53.331 -54.093  1.00  0.00    -0.059 A 
HETATM   26  C   UNL     1     -40.412  53.843 -52.787  1.00  0.00     0.036 A 
HETATM   27  C   UNL     1     -40.572  54.241 -55.271  1.00  0.00     0.048 C 
ENDBRANCH  17  20
ENDBRANCH  15  16
ENDBRANCH   1  15
TORSDOF 3
ENDMDL
MODEL 3
REMARK VINA RESULT:      -8.2      2.110      3.352
REMARK  3 active torsions:
REMARK  status: ('A' for Active; 'I' for Inactive)
REMARK    1  A    between atoms: C_4  and  N_5 
REMARK       I    between atoms: N_5  and  C_6 
REMARK    2  A    between atoms: C_6  and  C_7 
REMARK    3  A    between atoms: C_7  and  C_8 
ROOT
HETATM    1  C   UNL     1     -43.257  56.463 -52.819  1.00  0.00     0.286 C 
HETATM    2  N   UNL     1     -42.225  57.367 -53.483  1.00  0.00    -0.056 N 
HETATM    3  H   UNL     1     -41.382  56.765 -53.612  1.00  0.00     0.278 HD
HETATM    4  H   UNL     1     -42.521  57.636 -54.429  1.00  0.00     0.278 HD
HETATM    5  C   UNL     1     -41.812  58.564 -52.673  1.00  0.00     0.209 C 
HETATM    6  C   UNL     1     -41.379  58.110 -51.257  1.00  0.00     0.115 C 
HETATM    7  N   UNL     1     -42.335  57.198 -50.631  1.00  0.00    -0.353 N 
HETATM    8  C   UNL     1     -42.974  56.201 -51.325  1.00  0.00     0.249 C 
HETATM    9  O   UNL     1     -43.393  55.215 -50.729  1.00  0.00    -0.271 OA
HETATM   10  C   UNL     1     -42.936  59.602 -52.665  1.00  0.00     0.035 C 
HETATM   11  C   UNL     1     -42.586  60.785 -51.768  1.00  0.00     0.002 C 
HETATM   12  C   UNL     1     -42.248  60.326 -50.352  1.00  0.00     0.002 C 
HETATM   13  C   UNL     1     -41.102  59.314 -50.350  1.00  0.00     0.027 C 
HETATM   14  H   UNL     1     -42.163  56.933 -49.662  1.00  0.00     0.163 HD
ENDROOT
BRANCH   1  15
HETATM   15  C   UNL     1     -43.459  55.147 -53.588  1.00  0.00     0.146 C 
BRANCH  15  16
HETATM   16  C   UNL     1     -42.608  55.083 -54.829  1.00  0.00     0.224 C 
HETATM   17  N   UNL     1     -41.545  54.247 -54.947  1.00  0.00    -0.327 N 
HETATM   18  H   UNL     1     -41.155  54.279 -55.886  1.00  0.00     0.169 HD
HETATM   19  O   UNL     1     -42.965  55.731 -55.824  1.00  0.00    -0.273 OA
BRANCH  17  20
HETATM   20  C   UNL     1     -40.886  53.350 -54.079  1.00  0.00     0.035 A 
HETATM   21  C   UNL     1     -40.483  52.052 -54.390  1.00  0.00     0.036 A 
HETATM   22  C   UNL     1     -39.859  51.236 -53.429  1.00  0.00    -0.059 A 
HETATM   23  C   UNL     1     -39.512  49.811 -53.760  1.00  0.00     0.048 C 
HETATM   24  C   UNL     1     -39.636  51.730 -52.142  1.00  0.00     0.013 A 
HETATM   25  C   UNL     1     -40.010  53.033 -51.811  1.00  0.00    -0.059 A 
HETATM   26  C   UNL     1     -40.650  53.823 -52.777  1.00  0.00     0.036 A 
HETATM   27  C   UNL     1     -39.793  53.557 -50.422  1.00  0.00     0.048 C 
ENDBRANCH  17  20
ENDBRANCH  15  16
ENDBRANCH   1  15
TORSDOF 3
ENDMDL
MODEL 4
REMARK VINA RESULT:      -8.0      2.662      3.597
REMARK  3 active torsions:
REMARK  status: ('A' for Active; 'I' for Inactive)
REMARK    1  A    between atoms: C_4  and  N_5 
REMARK       I    between atoms: N_5  and  C_6 
REMARK    2  A    between atoms: C_6  and  C_7 
REMARK    3  A    between atoms: C_7  and  C_8 
ROOT
HETATM    1  C   UNL     1     -43.420  56.395 -53.609  1.00  0.00     0.286 C 
HETATM    2  N   UNL     1     -43.203  56.166 -52.118  1.00  0.00    -0.056 N 
HETATM    3  H   UNL     1     -43.978  55.532 -51.826  1.00  0.00     0.278 HD
HETATM    4  H   UNL     1     -42.336  55.644 -51.944  1.00  0.00     0.278 HD
HETATM    5  C   UNL     1     -43.280  57.404 -51.266  1.00  0.00     0.209 C 
HETATM    6  C   UNL     1     -44.598  58.159 -51.566  1.00  0.00     0.115 C 
HETATM    7  N   UNL     1     -44.845  58.336 -52.996  1.00  0.00    -0.353 N 
HETATM    8  C   UNL     1     -44.586  57.355 -53.921  1.00  0.00     0.249 C 
HETATM    9  O   UNL     1     -45.191  57.346 -54.987  1.00  0.00    -0.271 OA
HETATM   10  C   UNL     1     -42.026  58.257 -51.471  1.00  0.00     0.035 C 
HETATM   11  C   UNL     1     -42.122  59.568 -50.698  1.00  0.00     0.002 C 
HETATM   12  C   UNL     1     -43.383  60.342 -51.070  1.00  0.00     0.002 C 
HETATM   13  C   UNL     1     -44.642  59.507 -50.837  1.00  0.00     0.027 C 
HETATM   14  H   UNL     1     -45.645  58.907 -53.266  1.00  0.00     0.163 HD
ENDROOT
BRANCH   1  15
HETATM   15  C   UNL     1     -43.561  55.074 -54.385  1.00  0.00     0.146 C 
BRANCH  15  16
HETATM   16  C   UNL     1     -42.501  54.926 -55.445  1.00  0.00     0.224 C 
HETATM   17  N   UNL     1     -41.395  54.157 -55.274  1.00  0.00    -0.327 N 
HETATM   18  H   UNL     1     -40.847  54.108 -56.129  1.00  0.00     0.169 HD
HETATM   19  O   UNL     1     -42.706  55.430 -56.559  1.00  0.00    -0.273 OA
BRANCH  17  20
HETATM   20  C   UNL     1     -40.858  53.415 -54.201  1.00  0.00     0.035 A 
HETATM   21  C   UNL     1     -40.665  53.875 -52.899  1.00  0.00     0.036 A 
HETATM   22  C   UNL     1     -40.090  53.051 -51.915  1.00  0.00    -0.059 A 
HETATM   23  C   UNL     1     -39.810  53.596 -50.543  1.00  0.00     0.048 C 
HETATM   24  C   UNL     1     -39.707  51.747 -52.242  1.00  0.00     0.013 A 
HETATM   25  C   UNL     1     -39.910  51.255 -53.532  1.00  0.00    -0.059 A 
HETATM   26  C   UNL     1     -40.465  52.100 -54.504  1.00  0.00     0.036 A 
HETATM   27  C   UNL     1     -39.477  49.864 -53.892  1.00  0.00     0.048 C 
ENDBRANCH  17  20
ENDBRANCH  15  16
ENDBRANCH   1  15
TORSDOF 3
ENDMDL
MODEL 5
REMARK VINA RESULT:      -7.9     14.869     16.651
REMARK  3 active torsions:
REMARK  status: ('A' for Active; 'I' for Inactive)
REMARK    1  A    between atoms: C_4  and  N_5 
REMARK       I    between atoms: N_5  and  C_6 
REMARK    2  A    between atoms: C_6  and  C_7 
REMARK    3  A    between atoms: C_7  and  C_8 
ROOT
HETATM    1  C   UNL     1     -37.013  41.306 -53.234  1.00  0.00     0.286 C 
HETATM    2  N   UNL     1     -37.075  40.083 -54.142  1.00  0.00    -0.056 N 
HETATM    3  H   UNL     1     -36.370  39.420 -53.751  1.00  0.00     0.278 HD
HETATM    4  H   UNL     1     -37.980  39.606 -54.062  1.00  0.00     0.278 HD
HETATM    5  C   UNL     1     -36.712  40.338 -55.579  1.00  0.00     0.209 C 
HETATM    6  C   UNL     1     -35.344  41.061 -55.650  1.00  0.00     0.115 C 
HETATM    7  N   UNL     1     -35.253  42.203 -54.743  1.00  0.00    -0.353 N 
HETATM    8  C   UNL     1     -35.766  42.184 -53.469  1.00  0.00     0.249 C 
HETATM    9  O   UNL     1     -35.305  42.932 -52.614  1.00  0.00    -0.271 OA
HETATM   10  C   UNL     1     -37.842  41.099 -56.276  1.00  0.00     0.035 C 
HETATM   11  C   UNL     1     -37.461  41.460 -57.708  1.00  0.00     0.002 C 
HETATM   12  C   UNL     1     -36.155  42.250 -57.752  1.00  0.00     0.002 C 
HETATM   13  C   UNL     1     -35.013  41.481 -57.087  1.00  0.00     0.027 C 
HETATM   14  H   UNL     1     -34.417  42.784 -54.804  1.00  0.00     0.163 HD
ENDROOT
BRANCH   1  15
HETATM   15  C   UNL     1     -37.164  40.936 -51.750  1.00  0.00     0.146 C 
BRANCH  15  16
HETATM   16  C   UNL     1     -37.119  39.447 -51.532  1.00  0.00     0.224 C 
HETATM   17  N   UNL     1     -35.974  38.784 -51.224  1.00  0.00    -0.327 N 
HETATM   18  H   UNL     1     -36.160  37.805 -51.024  1.00  0.00     0.169 HD
HETATM   19  O   UNL     1     -38.188  38.820 -51.515  1.00  0.00    -0.273 OA
BRANCH  17  20
HETATM   20  C   UNL     1     -34.616  39.150 -51.107  1.00  0.00     0.035 A 
HETATM   21  C   UNL     1     -33.907  39.306 -49.917  1.00  0.00     0.036 A 
HETATM   22  C   UNL     1     -32.559  39.707 -49.922  1.00  0.00    -0.059 A 
HETATM   23  C   UNL     1     -31.839  39.952 -48.626  1.00  0.00     0.048 C 
HETATM   24  C   UNL     1     -31.915  39.953 -51.137  1.00  0.00     0.013 A 
HETATM   25  C   UNL     1     -32.596  39.783 -52.344  1.00  0.00    -0.059 A 
HETATM   26  C   UNL     1     -33.946  39.404 -52.316  1.00  0.00     0.036 A 
HETATM   27  C   UNL     1     -31.913  40.071 -53.649  1.00  0.00     0.048 C 
ENDBRANCH  17  20
ENDBRANCH  15  16
ENDBRANCH   1  15
TORSDOF 3
ENDMDL
MODEL 6
REMARK VINA RESULT:      -7.8     14.914     17.650
REMARK  3 active torsions:
REMARK  status: ('A' for Active; 'I' for Inactive)
REMARK    1  A    between atoms: C_4  and  N_5 
REMARK       I    between atoms: N_5  and  C_6 
REMARK    2  A    between atoms: C_6  and  C_7 
REMARK    3  A    between atoms: C_7  and  C_8 
ROOT
HETATM    1  C   UNL     1     -34.206  40.658 -53.794  1.00  0.00     0.286 C 
HETATM    2  N   UNL     1     -32.692  40.788 -53.669  1.00  0.00    -0.056 N 
HETATM    3  H   UNL     1     -32.317  40.493 -54.597  1.00  0.00     0.278 HD
HETATM    4  H   UNL     1     -32.411  41.770 -53.555  1.00  0.00     0.278 HD
HETATM    5  C   UNL     1     -32.061  39.911 -52.622  1.00  0.00     0.209 C 
HETATM    6  C   UNL     1     -32.516  38.445 -52.831  1.00  0.00     0.115 C 
HETATM    7  N   UNL     1     -33.961  38.313 -53.008  1.00  0.00    -0.353 N 
HETATM    8  C   UNL     1     -34.703  39.198 -53.750  1.00  0.00     0.249 C 
HETATM    9  O   UNL     1     -35.767  38.841 -54.242  1.00  0.00    -0.271 OA
HETATM   10  C   UNL     1     -32.375  40.455 -51.227  1.00  0.00     0.035 C 
HETATM   11  C   UNL     1     -31.834  39.530 -50.142  1.00  0.00     0.002 C 
HETATM   12  C   UNL     1     -32.362  38.109 -50.311  1.00  0.00     0.002 C 
HETATM   13  C   UNL     1     -32.024  37.546 -51.691  1.00  0.00     0.027 C 
HETATM   14  H   UNL     1     -34.343  37.369 -53.054  1.00  0.00     0.163 HD
ENDROOT
BRANCH   1  15
HETATM   15  C   UNL     1     -34.753  41.398 -55.026  1.00  0.00     0.146 C 
BRANCH  15  16
HETATM   16  C   UNL     1     -36.031  42.133 -54.721  1.00  0.00     0.224 C 
HETATM   17  N   UNL     1     -37.127  42.063 -55.520  1.00  0.00    -0.327 N 
HETATM   18  H   UNL     1     -37.917  42.548 -55.103  1.00  0.00     0.169 HD
HETATM   19  O   UNL     1     -36.127  42.728 -53.638  1.00  0.00    -0.273 OA
BRANCH  17  20
HETATM   20  C   UNL     1     -37.409  41.465 -56.767  1.00  0.00     0.035 A 
HETATM   21  C   UNL     1     -37.783  40.138 -56.975  1.00  0.00     0.036 A 
HETATM   22  C   UNL     1     -38.010  39.642 -58.272  1.00  0.00    -0.059 A 
HETATM   23  C   UNL     1     -38.327  38.188 -58.479  1.00  0.00     0.048 C 
HETATM   24  C   UNL     1     -37.861  40.490 -59.372  1.00  0.00     0.013 A 
HETATM   25  C   UNL     1     -37.508  41.828 -59.189  1.00  0.00    -0.059 A 
HETATM   26  C   UNL     1     -37.266  42.297 -57.890  1.00  0.00     0.036 A 
HETATM   27  C   UNL     1     -37.323  42.733 -60.372  1.00  0.00     0.048 C 
ENDBRANCH  17  20
ENDBRANCH  15  16
ENDBRANCH   1  15
TORSDOF 3
ENDMDL
MODEL 7
REMARK VINA RESULT:      -7.7      4.639      5.832
REMARK  3 active torsions:
REMARK  status: ('A' for Active; 'I' for Inactive)
REMARK    1  A    between atoms: C_4  and  N_5 
REMARK       I    between atoms: N_5  and  C_6 
REMARK    2  A    between atoms: C_6  and  C_7 
REMARK    3  A    between atoms: C_7  and  C_8 
ROOT
HETATM    1  C   UNL     1     -42.651  57.058 -56.448  1.00  0.00     0.286 C 
HETATM    2  N   UNL     1     -42.416  56.146 -57.647  1.00  0.00    -0.056 N 
HETATM    3  H   UNL     1     -41.404  55.898 -57.603  1.00  0.00     0.278 HD
HETATM    4  H   UNL     1     -42.925  55.260 -57.545  1.00  0.00     0.278 HD
HETATM    5  C   UNL     1     -42.672  56.778 -58.987  1.00  0.00     0.209 C 
HETATM    6  C   UNL     1     -41.890  58.111 -59.092  1.00  0.00     0.115 C 
HETATM    7  N   UNL     1     -42.064  58.970 -57.923  1.00  0.00    -0.353 N 
HETATM    8  C   UNL     1     -42.091  58.483 -56.639  1.00  0.00     0.249 C 
HETATM    9  O   UNL     1     -41.791  59.214 -55.702  1.00  0.00    -0.271 OA
HETATM   10  C   UNL     1     -44.178  56.934 -59.211  1.00  0.00     0.035 C 
HETATM   11  C   UNL     1     -44.467  57.665 -60.518  1.00  0.00     0.002 C 
HETATM   12  C   UNL     1     -43.759  59.015 -60.567  1.00  0.00     0.002 C 
HETATM   13  C   UNL     1     -42.249  58.864 -60.378  1.00  0.00     0.027 C 
HETATM   14  H   UNL     1     -41.655  59.904 -57.963  1.00  0.00     0.163 HD
ENDROOT
BRANCH   1  15
HETATM   15  C   UNL     1     -42.151  56.433 -55.135  1.00  0.00     0.146 C 
BRANCH  15  16
HETATM   16  C   UNL     1     -43.275  55.838 -54.329  1.00  0.00     0.224 C 
HETATM   17  N   UNL     1     -43.089  54.820 -53.450  1.00  0.00    -0.327 N 
HETATM   18  H   UNL     1     -43.942  54.619 -52.935  1.00  0.00     0.169 HD
HETATM   19  O   UNL     1     -44.389  56.378 -54.381  1.00  0.00    -0.273 OA
BRANCH  17  20
HETATM   20  C   UNL     1     -41.992  54.008 -53.089  1.00  0.00     0.035 A 
HETATM   21  C   UNL     1     -41.446  52.978 -53.854  1.00  0.00     0.036 A 
HETATM   22  C   UNL     1     -40.368  52.212 -53.376  1.00  0.00    -0.059 A 
HETATM   23  C   UNL     1     -39.852  51.051 -54.179  1.00  0.00     0.048 C 
HETATM   24  C   UNL     1     -39.830  52.485 -52.116  1.00  0.00     0.013 A 
HETATM   25  C   UNL     1     -40.344  53.525 -51.340  1.00  0.00    -0.059 A 
HETATM   26  C   UNL     1     -41.433  54.263 -51.825  1.00  0.00     0.036 A 
HETATM   27  C   UNL     1     -39.784  53.804 -49.975  1.00  0.00     0.048 C 
ENDBRANCH  17  20
ENDBRANCH  15  16
ENDBRANCH   1  15
TORSDOF 3
ENDMDL
MODEL 8
REMARK VINA RESULT:      -7.7      4.047      5.576
REMARK  3 active torsions:
REMARK  status: ('A' for Active; 'I' for Inactive)
REMARK    1  A    between atoms: C_4  and  N_5 
REMARK       I    between atoms: N_5  and  C_6 
REMARK    2  A    between atoms: C_6  and  C_7 
REMARK    3  A    between atoms: C_7  and  C_8 
ROOT
HETATM    1  C   UNL     1     -42.284  57.196 -55.616  1.00  0.00     0.286 C 
HETATM    2  N   UNL     1     -43.326  58.121 -56.235  1.00  0.00    -0.056 N 
HETATM    3  H   UNL     1     -44.244  57.755 -55.902  1.00  0.00     0.278 HD
HETATM    4  H   UNL     1     -43.251  59.072 -55.854  1.00  0.00     0.278 HD
HETATM    5  C   UNL     1     -43.356  58.131 -57.738  1.00  0.00     0.209 C 
HETATM    6  C   UNL     1     -43.465  56.679 -58.266  1.00  0.00     0.115 C 
HETATM    7  N   UNL     1     -42.507  55.769 -57.639  1.00  0.00    -0.353 N 
HETATM    8  C   UNL     1     -42.204  55.815 -56.300  1.00  0.00     0.249 C 
HETATM    9  O   UNL     1     -41.779  54.814 -55.736  1.00  0.00    -0.271 OA
HETATM   10  C   UNL     1     -42.142  58.888 -58.280  1.00  0.00     0.035 C 
HETATM   11  C   UNL     1     -42.091  58.829 -59.803  1.00  0.00     0.002 C 
HETATM   12  C   UNL     1     -42.109  57.387 -60.303  1.00  0.00     0.002 C 
HETATM   13  C   UNL     1     -43.337  56.633 -59.793  1.00  0.00     0.027 C 
HETATM   14  H   UNL     1     -42.456  54.819 -58.004  1.00  0.00     0.163 HD
ENDROOT
BRANCH   1  15
HETATM   15  C   UNL     1     -42.462  57.055 -54.095  1.00  0.00     0.146 C 
BRANCH  15  16
HETATM   16  C   UNL     1     -43.649  56.199 -53.742  1.00  0.00     0.224 C 
HETATM   17  N   UNL     1     -43.576  55.174 -52.853  1.00  0.00    -0.327 N 
HETATM   18  H   UNL     1     -44.495  54.776 -52.677  1.00  0.00     0.169 HD
HETATM   19  O   UNL     1     -44.760  56.516 -54.189  1.00  0.00    -0.273 OA
BRANCH  17  20
HETATM   20  C   UNL     1     -42.533  54.565 -52.124  1.00  0.00     0.035 A 
HETATM   21  C   UNL     1     -42.195  54.828 -50.798  1.00  0.00     0.036 A 
HETATM   22  C   UNL     1     -41.110  54.179 -50.182  1.00  0.00    -0.059 A 
HETATM   23  C   UNL     1     -40.711  54.542 -48.779  1.00  0.00     0.048 C 
HETATM   24  C   UNL     1     -40.356  53.253 -50.907  1.00  0.00     0.013 A 
HETATM   25  C   UNL     1     -40.686  52.956 -52.230  1.00  0.00    -0.059 A 
HETATM   26  C   UNL     1     -41.759  53.630 -52.832  1.00  0.00     0.036 A 
HETATM   27  C   UNL     1     -39.862  51.980 -53.018  1.00  0.00     0.048 C 
ENDBRANCH  17  20
ENDBRANCH  15  16
ENDBRANCH   1  15
TORSDOF 3
ENDMDL
MODEL 9
REMARK VINA RESULT:      -7.5      3.922      5.442
REMARK  3 active torsions:
REMARK  status: ('A' for Active; 'I' for Inactive)
REMARK    1  A    between atoms: C_4  and  N_5 
REMARK       I    between atoms: N_5  and  C_6 
REMARK    2  A    between atoms: C_6  and  C_7 
REMARK    3  A    between atoms: C_7  and  C_8 
ROOT
HETATM    1  C   UNL     1     -43.183  56.420 -55.390  1.00  0.00     0.286 C 
HETATM    2  N   UNL     1     -44.278  57.143 -56.166  1.00  0.00    -0.056 N 
HETATM    3  H   UNL     1     -45.084  56.482 -56.177  1.00  0.00     0.278 HD
HETATM    4  H   UNL     1     -44.606  57.973 -55.658  1.00  0.00     0.278 HD
HETATM    5  C   UNL     1     -43.936  57.471 -57.593  1.00  0.00     0.209 C 
HETATM    6  C   UNL     1     -43.442  56.193 -58.315  1.00  0.00     0.115 C 
HETATM    7  N   UNL     1     -42.432  55.459 -57.555  1.00  0.00    -0.353 N 
HETATM    8  C   UNL     1     -42.501  55.294 -56.194  1.00  0.00     0.249 C 
HETATM    9  O   UNL     1     -41.932  54.346 -55.665  1.00  0.00    -0.271 OA
HETATM   10  C   UNL     1     -42.932  58.625 -57.638  1.00  0.00     0.035 C 
HETATM   11  C   UNL     1     -42.489  58.912 -59.069  1.00  0.00     0.002 C 
HETATM   12  C   UNL     1     -41.923  57.663 -59.737  1.00  0.00     0.002 C 
HETATM   13  C   UNL     1     -42.933  56.515 -59.725  1.00  0.00     0.027 C 
HETATM   14  H   UNL     1     -41.992  54.660 -58.010  1.00  0.00     0.163 HD
ENDROOT
BRANCH   1  15
HETATM   15  C   UNL     1     -43.677  55.911 -54.025  1.00  0.00     0.146 C 
BRANCH  15  16
HETATM   16  C   UNL     1     -43.379  56.886 -52.917  1.00  0.00     0.224 C 
HETATM   17  N   UNL     1     -42.488  56.621 -51.927  1.00  0.00    -0.327 N 
HETATM   18  H   UNL     1     -42.353  57.432 -51.328  1.00  0.00     0.169 HD
HETATM   19  O   UNL     1     -43.876  58.020 -52.978  1.00  0.00    -0.273 OA
BRANCH  17  20
HETATM   20  C   UNL     1     -41.712  55.500 -51.563  1.00  0.00     0.035 A 
HETATM   21  C   UNL     1     -41.229  54.520 -52.429  1.00  0.00     0.036 A 
HETATM   22  C   UNL     1     -40.489  53.425 -51.947  1.00  0.00    -0.059 A 
HETATM   23  C   UNL     1     -40.052  52.337 -52.886  1.00  0.00     0.048 C 
HETATM   24  C   UNL     1     -40.231  53.314 -50.578  1.00  0.00     0.013 A 
HETATM   25  C   UNL     1     -40.686  54.293 -49.693  1.00  0.00    -0.059 A 
HETATM   26  C   UNL     1     -41.440  55.365 -50.191  1.00  0.00     0.036 A 
HETATM   27  C   UNL     1     -40.431  54.162 -48.219  1.00  0.00     0.048 C 
ENDBRANCH  17  20
ENDBRANCH  15  16
ENDBRANCH   1  15
TORSDOF 3
ENDMDL
MODEL 10
REMARK VINA RESULT:      -7.5      2.969      4.591
REMARK  3 active torsions:
REMARK  status: ('A' for Active; 'I' for Inactive)
REMARK    1  A    between atoms: C_4  and  N_5 
REMARK       I    between atoms: N_5  and  C_6 
REMARK    2  A    between atoms: C_6  and  C_7 
REMARK    3  A    between atoms: C_7  and  C_8 
ROOT
HETATM    1  C   UNL     1     -43.753  57.700 -53.637  1.00  0.00     0.286 C 
HETATM    2  N   UNL     1     -42.375  57.376 -54.202  1.00  0.00    -0.056 N 
HETATM    3  H   UNL     1     -41.778  58.193 -53.944  1.00  0.00     0.278 HD
HETATM    4  H   UNL     1     -41.959  56.567 -53.726  1.00  0.00     0.278 HD
HETATM    5  C   UNL     1     -42.318  57.224 -55.697  1.00  0.00     0.209 C 
HETATM    6  C   UNL     1     -42.959  58.464 -56.369  1.00  0.00     0.115 C 
HETATM    7  N   UNL     1     -44.258  58.818 -55.799  1.00  0.00    -0.353 N 
HETATM    8  C   UNL     1     -44.517  58.765 -54.451  1.00  0.00     0.249 C 
HETATM    9  O   UNL     1     -45.404  59.462 -53.972  1.00  0.00    -0.271 OA
HETATM   10  C   UNL     1     -42.965  55.901 -56.111  1.00  0.00     0.035 C 
HETATM   11  C   UNL     1     -43.014  55.765 -57.630  1.00  0.00     0.002 C 
HETATM   12  C   UNL     1     -43.727  56.952 -58.270  1.00  0.00     0.002 C 
HETATM   13  C   UNL     1     -43.067  58.276 -57.887  1.00  0.00     0.027 C 
HETATM   14  H   UNL     1     -44.782  59.564 -56.254  1.00  0.00     0.163 HD
ENDROOT
BRANCH   1  15
HETATM   15  C   UNL     1     -43.698  58.071 -52.146  1.00  0.00     0.146 C 
BRANCH  15  16
HETATM   16  C   UNL     1     -44.546  57.154 -51.305  1.00  0.00     0.224 C 
HETATM   17  N   UNL     1     -44.104  55.951 -50.856  1.00  0.00    -0.327 N 
HETATM   18  H   UNL     1     -44.781  55.521 -50.230  1.00  0.00     0.169 HD
HETATM   19  O   UNL     1     -45.645  57.566 -50.907  1.00  0.00    -0.273 OA
BRANCH  17  20
HETATM   20  C   UNL     1     -42.932  55.189 -51.050  1.00  0.00     0.035 A 
HETATM   21  C   UNL     1     -41.879  55.058 -50.146  1.00  0.00     0.036 A 
HETATM   22  C   UNL     1     -40.741  54.294 -50.462  1.00  0.00    -0.059 A 
HETATM   23  C   UNL     1     -39.581  54.237 -49.508  1.00  0.00     0.048 C 
HETATM   24  C   UNL     1     -40.662  53.652 -51.700  1.00  0.00     0.013 A 
HETATM   25  C   UNL     1     -41.712  53.749 -52.615  1.00  0.00    -0.059 A 
HETATM   26  C   UNL     1     -42.827  54.534 -52.289  1.00  0.00     0.036 A 
HETATM   27  C   UNL     1     -41.617  53.081 -53.955  1.00  0.00     0.048 C 
ENDBRANCH  17  20
ENDBRANCH  15  16
ENDBRANCH   1  15
TORSDOF 3
ENDMDL
