MODEL 1
REMARK VINA RESULT:      -8.3      0.000      0.000
REMARK  8 active torsions:
REMARK  status: ('A' for Active; 'I' for Inactive)
REMARK    1  A    between atoms: C_2  and  O_3 
REMARK    2  A    between atoms: O_3  and  C_4 
REMARK    3  A    between atoms: C_4  and  C_5 
REMARK    4  A    between atoms: C_10  and  C_11 
REMARK       I    between atoms: C_11  and  N_12 
REMARK    5  A    between atoms: N_12  and  C_13 
REMARK    6  A    between atoms: C_15  and  C_16 
REMARK    7  A    between atoms: C_16  and  C_17 
REMARK    8  A    between atoms: C_17  and  C_18 
ROOT
HETATM    1  C   UNL     1     -43.008  56.236 -56.951  1.00  0.00     0.725 A 
HETATM    2  N   UNL     1     -41.961  56.454 -56.196  1.00  0.00    -0.046 NA
HETATM    3  C   UNL     1     -41.789  55.285 -55.509  1.00  0.00     0.166 A 
HETATM    4  N   UNL     1     -42.672  54.326 -55.814  1.00  0.00    -0.144 NA
HETATM    5  N   UNL     1     -43.427  54.951 -56.735  1.00  0.00    -0.106 N 
HETATM    6  H   UNL     1     -44.198  54.453 -57.160  1.00  0.00     0.208 HD
ENDROOT
BRANCH   1   7
HETATM    7  N   UNL     1     -43.625  57.086 -57.834  1.00  0.00    -0.152 N 
HETATM    8  C   UNL     1     -43.712  56.780 -59.178  1.00  0.00     0.272 C 
HETATM    9  O   UNL     1     -43.197  55.818 -59.735  1.00  0.00    -0.267 OA
HETATM   10  H   UNL     1     -43.983  57.972 -57.519  1.00  0.00     0.187 HD
BRANCH   8  11
HETATM   11  C   UNL     1     -44.473  57.769 -59.964  1.00  0.00     0.063 A 
HETATM   12  C   UNL     1     -43.990  58.910 -60.600  1.00  0.00     0.022 A 
HETATM   13  N   UNL     1     -45.067  59.567 -61.141  1.00  0.00    -0.354 N 
HETATM   14  C   UNL     1     -42.631  59.505 -60.704  1.00  0.00     0.069 C 
HETATM   15  C   UNL     1     -46.248  58.949 -60.801  1.00  0.00     0.115 A 
HETATM   16  H   UNL     1     -45.032  60.449 -61.638  1.00  0.00     0.166 HD
HETATM   17  C   UNL     1     -45.908  57.774 -60.139  1.00  0.00    -0.011 A 
HETATM   18  C   UNL     1     -46.842  56.719 -59.637  1.00  0.00     0.052 C 
BRANCH  15  19
HETATM   19  C   UNL     1     -47.517  59.567 -61.124  1.00  0.00     0.310 C 
HETATM   20  O   UNL     1     -48.135  60.295 -60.359  1.00  0.00    -0.258 OA
BRANCH  19  21
HETATM   21  O   UNL     1     -47.951  59.165 -62.347  1.00  0.00    -0.317 OA
BRANCH  21  22
HETATM   22  C   UNL     1     -49.044  58.237 -62.358  1.00  0.00     0.175 C 
HETATM   23  C   UNL     1     -48.572  56.895 -62.887  1.00  0.00     0.034 C 
ENDBRANCH  21  22
ENDBRANCH  19  21
ENDBRANCH  15  19
ENDBRANCH   8  11
ENDBRANCH   1   7
BRANCH   3  24
HETATM   24  C   UNL     1     -40.702  55.131 -54.512  1.00  0.00     0.087 C 
BRANCH  24  25
HETATM   25  C   UNL     1     -41.260  55.011 -53.092  1.00  0.00     0.048 C 
BRANCH  25  26
HETATM   26  C   UNL     1     -40.687  53.848 -52.346  1.00  0.00    -0.030 A 
HETATM   27  C   UNL     1     -40.399  52.554 -52.890  1.00  0.00    -0.002 A 
HETATM   28  C   UNL     1     -39.868  51.775 -51.863  1.00  0.00     0.042 A 
HETATM   29  C   UNL     1     -40.542  51.977 -54.170  1.00  0.00     0.014 A 
HETATM   30  C   UNL     1     -39.471  50.446 -52.049  1.00  0.00     0.030 A 
HETATM   31  N   UNL     1     -39.832  52.565 -50.738  1.00  0.00    -0.365 N 
HETATM   32  C   UNL     1     -39.624  49.896 -53.325  1.00  0.00     0.002 A 
HETATM   33  C   UNL     1     -40.152  50.648 -54.373  1.00  0.00     0.001 A 
HETATM   34  H   UNL     1     -39.487  52.261 -49.838  1.00  0.00     0.165 HD
HETATM   35  C   UNL     1     -40.325  53.813 -51.014  1.00  0.00     0.096 A 
ENDBRANCH  25  26
ENDBRANCH  24  25
ENDBRANCH   3  24
TORSDOF 8
ENDMDL
MODEL 2
REMARK VINA RESULT:      -8.3      2.505      3.637
REMARK  8 active torsions:
REMARK  status: ('A' for Active; 'I' for Inactive)
REMARK    1  A    between atoms: C_2  and  O_3 
REMARK    2  A    between atoms: O_3  and  C_4 
REMARK    3  A    between atoms: C_4  and  C_5 
REMARK    4  A    between atoms: C_10  and  C_11 
REMARK       I    between atoms: C_11  and  N_12 
REMARK    5  A    between atoms: N_12  and  C_13 
REMARK    6  A    between atoms: C_15  and  C_16 
REMARK    7  A    between atoms: C_16  and  C_17 
REMARK    8  A    between atoms: C_17  and  C_18 
ROOT
HETATM    1  C   UNL     1     -43.689  55.996 -54.537  1.00  0.00     0.725 A 
HETATM    2  N   UNL     1     -43.108  56.525 -53.490  1.00  0.00    -0.046 NA
HETATM    3  C   UNL     1     -43.253  55.584 -52.510  1.00  0.00     0.166 A 
HETATM    4  N   UNL     1     -43.884  54.468 -52.899  1.00  0.00    -0.144 NA
HETATM    5  N   UNL     1     -44.142  54.752 -54.188  1.00  0.00    -0.106 N 
HETATM    6  H   UNL     1     -44.624  54.067 -54.756  1.00  0.00     0.208 HD
ENDROOT
BRANCH   1   7
HETATM    7  N   UNL     1     -43.846  56.523 -55.794  1.00  0.00    -0.152 N 
HETATM    8  C   UNL     1     -43.112  56.050 -56.864  1.00  0.00     0.272 C 
HETATM    9  O   UNL     1     -42.214  55.218 -56.813  1.00  0.00    -0.267 OA
HETATM   10  H   UNL     1     -44.467  57.300 -55.944  1.00  0.00     0.187 HD
BRANCH   8  11
HETATM   11  C   UNL     1     -43.464  56.680 -58.150  1.00  0.00     0.063 A 
HETATM   12  C   UNL     1     -43.997  56.069 -59.283  1.00  0.00     0.022 A 
HETATM   13  N   UNL     1     -44.088  57.026 -60.262  1.00  0.00    -0.354 N 
HETATM   14  C   UNL     1     -44.370  54.661 -59.586  1.00  0.00     0.069 C 
HETATM   15  C   UNL     1     -43.546  58.219 -59.843  1.00  0.00     0.115 A 
HETATM   16  H   UNL     1     -44.410  56.872 -61.210  1.00  0.00     0.166 HD
HETATM   17  C   UNL     1     -43.226  58.063 -58.499  1.00  0.00    -0.011 A 
HETATM   18  C   UNL     1     -42.679  59.103 -57.575  1.00  0.00     0.052 C 
BRANCH  15  19
HETATM   19  C   UNL     1     -43.386  59.316 -60.774  1.00  0.00     0.310 C 
HETATM   20  O   UNL     1     -44.321  59.904 -61.302  1.00  0.00    -0.258 OA
BRANCH  19  21
HETATM   21  O   UNL     1     -42.071  59.540 -61.033  1.00  0.00    -0.317 OA
BRANCH  21  22
HETATM   22  C   UNL     1     -41.728  60.862 -61.471  1.00  0.00     0.175 C 
HETATM   23  C   UNL     1     -41.330  61.711 -60.278  1.00  0.00     0.034 C 
ENDBRANCH  21  22
ENDBRANCH  19  21
ENDBRANCH  15  19
ENDBRANCH   8  11
ENDBRANCH   1   7
BRANCH   3  24
HETATM   24  C   UNL     1     -42.742  55.817 -51.137  1.00  0.00     0.087 C 
BRANCH  24  25
HETATM   25  C   UNL     1     -41.219  55.684 -51.079  1.00  0.00     0.048 C 
BRANCH  25  26
HETATM   26  C   UNL     1     -40.768  54.258 -51.041  1.00  0.00    -0.030 A 
HETATM   27  C   UNL     1     -40.455  53.441 -52.176  1.00  0.00    -0.002 A 
HETATM   28  C   UNL     1     -40.067  52.190 -51.698  1.00  0.00     0.042 A 
HETATM   29  C   UNL     1     -40.464  53.657 -53.570  1.00  0.00     0.014 A 
HETATM   30  C   UNL     1     -39.687  51.141 -52.543  1.00  0.00     0.030 A 
HETATM   31  N   UNL     1     -40.140  52.244 -50.326  1.00  0.00    -0.365 N 
HETATM   32  C   UNL     1     -39.707  51.379 -53.921  1.00  0.00     0.002 A 
HETATM   33  C   UNL     1     -40.089  52.618 -54.430  1.00  0.00     0.001 A 
HETATM   34  H   UNL     1     -39.909  51.476 -49.711  1.00  0.00     0.165 HD
HETATM   35  C   UNL     1     -40.563  53.481 -49.918  1.00  0.00     0.096 A 
ENDBRANCH  25  26
ENDBRANCH  24  25
ENDBRANCH   3  24
TORSDOF 8
ENDMDL
MODEL 3
REMARK VINA RESULT:      -8.3      5.902      7.983
REMARK  8 active torsions:
REMARK  status: ('A' for Active; 'I' for Inactive)
REMARK    1  A    between atoms: C_2  and  O_3 
REMARK    2  A    between atoms: O_3  and  C_4 
REMARK    3  A    between atoms: C_4  and  C_5 
REMARK    4  A    between atoms: C_10  and  C_11 
REMARK       I    between atoms: C_11  and  N_12 
REMARK    5  A    between atoms: N_12  and  C_13 
REMARK    6  A    between atoms: C_15  and  C_16 
REMARK    7  A    between atoms: C_16  and  C_17 
REMARK    8  A    between atoms: C_17  and  C_18 
ROOT
HETATM    1  C   UNL     1     -43.295  56.933 -53.587  1.00  0.00     0.725 A 
HETATM    2  N   UNL     1     -42.244  56.314 -54.065  1.00  0.00    -0.046 NA
HETATM    3  C   UNL     1     -42.741  55.147 -54.573  1.00  0.00     0.166 A 
HETATM    4  N   UNL     1     -44.068  55.009 -54.456  1.00  0.00    -0.144 NA
HETATM    5  N   UNL     1     -44.394  56.157 -53.835  1.00  0.00    -0.106 N 
HETATM    6  H   UNL     1     -45.365  56.337 -53.612  1.00  0.00     0.208 HD
ENDROOT
BRANCH   1   7
HETATM    7  N   UNL     1     -43.364  58.146 -52.949  1.00  0.00    -0.152 N 
HETATM    8  C   UNL     1     -43.805  58.244 -51.645  1.00  0.00     0.272 C 
HETATM    9  O   UNL     1     -44.253  57.330 -50.962  1.00  0.00    -0.267 OA
HETATM   10  H   UNL     1     -43.140  58.992 -53.446  1.00  0.00     0.187 HD
BRANCH   8  11
HETATM   11  C   UNL     1     -43.743  59.612 -51.098  1.00  0.00     0.063 A 
HETATM   12  C   UNL     1     -42.632  60.278 -50.585  1.00  0.00     0.022 A 
HETATM   13  N   UNL     1     -43.060  61.497 -50.122  1.00  0.00    -0.354 N 
HETATM   14  C   UNL     1     -41.210  59.876 -50.409  1.00  0.00     0.069 C 
HETATM   15  C   UNL     1     -44.426  61.616 -50.226  1.00  0.00     0.115 A 
HETATM   16  H   UNL     1     -42.481  62.191 -49.663  1.00  0.00     0.166 HD
HETATM   17  C   UNL     1     -44.875  60.492 -50.911  1.00  0.00    -0.011 A 
HETATM   18  C   UNL     1     -46.277  60.196 -51.338  1.00  0.00     0.052 C 
BRANCH  15  19
HETATM   19  C   UNL     1     -45.108  62.753 -49.643  1.00  0.00     0.310 C 
HETATM   20  O   UNL     1     -45.009  63.897 -50.066  1.00  0.00    -0.258 OA
BRANCH  19  21
HETATM   21  O   UNL     1     -45.795  62.384 -48.530  1.00  0.00    -0.317 OA
BRANCH  21  22
HETATM   22  C   UNL     1     -45.109  62.541 -47.281  1.00  0.00     0.175 C 
HETATM   23  C   UNL     1     -45.127  61.229 -46.518  1.00  0.00     0.034 C 
ENDBRANCH  21  22
ENDBRANCH  19  21
ENDBRANCH  15  19
ENDBRANCH   8  11
ENDBRANCH   1   7
BRANCH   3  24
HETATM   24  C   UNL     1     -41.849  54.137 -55.194  1.00  0.00     0.087 C 
BRANCH  24  25
HETATM   25  C   UNL     1     -40.425  54.239 -54.646  1.00  0.00     0.048 C 
BRANCH  25  26
HETATM   26  C   UNL     1     -40.233  53.444 -53.393  1.00  0.00    -0.030 A 
HETATM   27  C   UNL     1     -39.986  52.035 -53.317  1.00  0.00    -0.002 A 
HETATM   28  C   UNL     1     -39.858  51.703 -51.968  1.00  0.00     0.042 A 
HETATM   29  C   UNL     1     -39.856  51.010 -54.278  1.00  0.00     0.014 A 
HETATM   30  C   UNL     1     -39.606  50.398 -51.529  1.00  0.00     0.030 A 
HETATM   31  N   UNL     1     -40.020  52.866 -51.252  1.00  0.00    -0.365 N 
HETATM   32  C   UNL     1     -39.484  49.400 -52.502  1.00  0.00     0.002 A 
HETATM   33  C   UNL     1     -39.607  49.699 -53.857  1.00  0.00     0.001 A 
HETATM   34  H   UNL     1     -39.971  52.928 -50.245  1.00  0.00     0.165 HD
HETATM   35  C   UNL     1     -40.249  53.920 -52.097  1.00  0.00     0.096 A 
ENDBRANCH  25  26
ENDBRANCH  24  25
ENDBRANCH   3  24
TORSDOF 8
ENDMDL
MODEL 4
REMARK VINA RESULT:      -8.2      3.584      4.603
REMARK  8 active torsions:
REMARK  status: ('A' for Active; 'I' for Inactive)
REMARK    1  A    between atoms: C_2  and  O_3 
REMARK    2  A    between atoms: O_3  and  C_4 
REMARK    3  A    between atoms: C_4  and  C_5 
REMARK    4  A    between atoms: C_10  and  C_11 
REMARK       I    between atoms: C_11  and  N_12 
REMARK    5  A    between atoms: N_12  and  C_13 
REMARK    6  A    between atoms: C_15  and  C_16 
REMARK    7  A    between atoms: C_16  and  C_17 
REMARK    8  A    between atoms: C_17  and  C_18 
ROOT
HETATM    1  C   UNL     1     -42.476  55.355 -53.449  1.00  0.00     0.725 A 
HETATM    2  N   UNL     1     -41.639  55.235 -52.449  1.00  0.00    -0.046 NA
HETATM    3  C   UNL     1     -42.294  54.437 -51.553  1.00  0.00     0.166 A 
HETATM    4  N   UNL     1     -43.504  54.027 -51.954  1.00  0.00    -0.144 NA
HETATM    5  N   UNL     1     -43.591  54.616 -53.160  1.00  0.00    -0.106 N 
HETATM    6  H   UNL     1     -44.425  54.477 -53.716  1.00  0.00     0.208 HD
ENDROOT
BRANCH   1   7
HETATM    7  N   UNL     1     -42.330  56.064 -54.615  1.00  0.00    -0.152 N 
HETATM    8  C   UNL     1     -43.361  56.833 -55.118  1.00  0.00     0.272 C 
HETATM    9  O   UNL     1     -44.498  56.901 -54.667  1.00  0.00    -0.267 OA
HETATM   10  H   UNL     1     -41.479  55.993 -55.147  1.00  0.00     0.187 HD
BRANCH   8  11
HETATM   11  C   UNL     1     -43.002  57.583 -56.336  1.00  0.00     0.063 A 
HETATM   12  C   UNL     1     -42.933  57.108 -57.643  1.00  0.00     0.022 A 
HETATM   13  N   UNL     1     -42.485  58.138 -58.432  1.00  0.00    -0.354 N 
HETATM   14  C   UNL     1     -43.173  55.767 -58.240  1.00  0.00     0.069 C 
HETATM   15  C   UNL     1     -42.167  59.242 -57.675  1.00  0.00     0.115 A 
HETATM   16  H   UNL     1     -42.303  58.083 -59.427  1.00  0.00     0.166 HD
HETATM   17  C   UNL     1     -42.560  58.959 -56.372  1.00  0.00    -0.011 A 
HETATM   18  C   UNL     1     -42.493  59.875 -55.191  1.00  0.00     0.052 C 
BRANCH  15  19
HETATM   19  C   UNL     1     -41.517  60.383 -58.285  1.00  0.00     0.310 C 
HETATM   20  O   UNL     1     -40.686  61.079 -57.716  1.00  0.00    -0.258 OA
BRANCH  19  21
HETATM   21  O   UNL     1     -42.015  60.614 -59.528  1.00  0.00    -0.317 OA
BRANCH  21  22
HETATM   22  C   UNL     1     -41.362  61.637 -60.291  1.00  0.00     0.175 C 
HETATM   23  C   UNL     1     -41.697  61.472 -61.762  1.00  0.00     0.034 C 
ENDBRANCH  21  22
ENDBRANCH  19  21
ENDBRANCH  15  19
ENDBRANCH   8  11
ENDBRANCH   1   7
BRANCH   3  24
HETATM   24  C   UNL     1     -41.680  54.078 -50.251  1.00  0.00     0.087 C 
BRANCH  24  25
HETATM   25  C   UNL     1     -40.224  53.641 -50.422  1.00  0.00     0.048 C 
BRANCH  25  26
HETATM   26  C   UNL     1     -40.097  52.195 -50.782  1.00  0.00    -0.030 A 
HETATM   27  C   UNL     1     -39.937  51.664 -52.104  1.00  0.00    -0.002 A 
HETATM   28  C   UNL     1     -39.846  50.277 -51.991  1.00  0.00     0.042 A 
HETATM   29  C   UNL     1     -39.858  52.244 -53.388  1.00  0.00     0.014 A 
HETATM   30  C   UNL     1     -39.680  49.437 -53.098  1.00  0.00     0.030 A 
HETATM   31  N   UNL     1     -39.946  49.976 -50.653  1.00  0.00    -0.365 N 
HETATM   32  C   UNL     1     -39.607  50.035 -54.360  1.00  0.00     0.002 A 
HETATM   33  C   UNL     1     -39.694  51.418 -54.506  1.00  0.00     0.001 A 
HETATM   34  H   UNL     1     -39.907  49.040 -50.275  1.00  0.00     0.165 HD
HETATM   35  C   UNL     1     -40.100  51.119 -49.916  1.00  0.00     0.096 A 
ENDBRANCH  25  26
ENDBRANCH  24  25
ENDBRANCH   3  24
TORSDOF 8
ENDMDL
MODEL 5
REMARK VINA RESULT:      -8.1      2.437      3.605
REMARK  8 active torsions:
REMARK  status: ('A' for Active; 'I' for Inactive)
REMARK    1  A    between atoms: C_2  and  O_3 
REMARK    2  A    between atoms: O_3  and  C_4 
REMARK    3  A    between atoms: C_4  and  C_5 
REMARK    4  A    between atoms: C_10  and  C_11 
REMARK       I    between atoms: C_11  and  N_12 
REMARK    5  A    between atoms: N_12  and  C_13 
REMARK    6  A    between atoms: C_15  and  C_16 
REMARK    7  A    between atoms: C_16  and  C_17 
REMARK    8  A    between atoms: C_17  and  C_18 
ROOT
HETATM    1  C   UNL     1     -43.592  56.296 -53.147  1.00  0.00     0.725 A 
HETATM    2  N   UNL     1     -42.780  55.364 -52.714  1.00  0.00    -0.046 NA
HETATM    3  C   UNL     1     -43.013  55.310 -51.369  1.00  0.00     0.166 A 
HETATM    4  N   UNL     1     -43.956  56.155 -50.933  1.00  0.00    -0.144 NA
HETATM    5  N   UNL     1     -44.311  56.761 -52.079  1.00  0.00    -0.106 N 
HETATM    6  H   UNL     1     -45.032  57.471 -52.058  1.00  0.00     0.208 HD
ENDROOT
BRANCH   1   7
HETATM    7  N   UNL     1     -43.759  56.768 -54.424  1.00  0.00    -0.152 N 
HETATM    8  C   UNL     1     -42.759  57.475 -55.062  1.00  0.00     0.272 C 
HETATM    9  O   UNL     1     -41.696  57.831 -54.566  1.00  0.00    -0.267 OA
HETATM   10  H   UNL     1     -44.639  56.647 -54.898  1.00  0.00     0.187 HD
BRANCH   8  11
HETATM   11  C   UNL     1     -43.083  57.838 -56.454  1.00  0.00     0.063 A 
HETATM   12  C   UNL     1     -43.369  59.103 -56.962  1.00  0.00     0.022 A 
HETATM   13  N   UNL     1     -43.685  58.951 -58.289  1.00  0.00    -0.354 N 
HETATM   14  C   UNL     1     -43.451  60.447 -56.330  1.00  0.00     0.069 C 
HETATM   15  C   UNL     1     -43.711  57.623 -58.645  1.00  0.00     0.115 A 
HETATM   16  H   UNL     1     -43.970  59.694 -58.917  1.00  0.00     0.166 HD
HETATM   17  C   UNL     1     -43.254  56.905 -57.545  1.00  0.00    -0.011 A 
HETATM   18  C   UNL     1     -43.028  55.429 -57.462  1.00  0.00     0.052 C 
BRANCH  15  19
HETATM   19  C   UNL     1     -44.185  57.226 -59.955  1.00  0.00     0.310 C 
HETATM   20  O   UNL     1     -43.573  56.473 -60.702  1.00  0.00    -0.258 OA
BRANCH  19  21
HETATM   21  O   UNL     1     -45.346  57.861 -60.260  1.00  0.00    -0.317 OA
BRANCH  21  22
HETATM   22  C   UNL     1     -46.528  57.364 -59.618  1.00  0.00     0.175 C 
HETATM   23  C   UNL     1     -47.107  56.218 -60.427  1.00  0.00     0.034 C 
ENDBRANCH  21  22
ENDBRANCH  19  21
ENDBRANCH  15  19
ENDBRANCH   8  11
ENDBRANCH   1   7
BRANCH   3  24
HETATM   24  C   UNL     1     -42.259  54.378 -50.494  1.00  0.00     0.087 C 
BRANCH  24  25
HETATM   25  C   UNL     1     -40.831  54.170 -51.002  1.00  0.00     0.048 C 
BRANCH  25  26
HETATM   26  C   UNL     1     -40.455  52.724 -51.083  1.00  0.00    -0.030 A 
HETATM   27  C   UNL     1     -40.204  51.983 -52.284  1.00  0.00    -0.002 A 
HETATM   28  C   UNL     1     -39.875  50.680 -51.912  1.00  0.00     0.042 A 
HETATM   29  C   UNL     1     -40.223  52.308 -53.657  1.00  0.00     0.014 A 
HETATM   30  C   UNL     1     -39.565  49.682 -52.843  1.00  0.00     0.030 A 
HETATM   31  N   UNL     1     -39.924  50.630 -50.538  1.00  0.00    -0.365 N 
HETATM   32  C   UNL     1     -39.594  50.029 -54.198  1.00  0.00     0.002 A 
HETATM   33  C   UNL     1     -39.918  51.322 -54.602  1.00  0.00     0.001 A 
HETATM   34  H   UNL     1     -39.724  49.805 -49.990  1.00  0.00     0.165 HD
HETATM   35  C   UNL     1     -40.274  51.852 -50.028  1.00  0.00     0.096 A 
ENDBRANCH  25  26
ENDBRANCH  24  25
ENDBRANCH   3  24
TORSDOF 8
ENDMDL
MODEL 6
REMARK VINA RESULT:      -8.1      0.899      1.404
REMARK  8 active torsions:
REMARK  status: ('A' for Active; 'I' for Inactive)
REMARK    1  A    between atoms: C_2  and  O_3 
REMARK    2  A    between atoms: O_3  and  C_4 
REMARK    3  A    between atoms: C_4  and  C_5 
REMARK    4  A    between atoms: C_10  and  C_11 
REMARK       I    between atoms: C_11  and  N_12 
REMARK    5  A    between atoms: N_12  and  C_13 
REMARK    6  A    between atoms: C_15  and  C_16 
REMARK    7  A    between atoms: C_16  and  C_17 
REMARK    8  A    between atoms: C_17  and  C_18 
ROOT
HETATM    1  C   UNL     1     -42.874  56.419 -56.869  1.00  0.00     0.725 A 
HETATM    2  N   UNL     1     -41.903  56.640 -56.019  1.00  0.00    -0.046 NA
HETATM    3  C   UNL     1     -41.785  55.467 -55.328  1.00  0.00     0.166 A 
HETATM    4  N   UNL     1     -42.626  54.503 -55.720  1.00  0.00    -0.144 NA
HETATM    5  N   UNL     1     -43.299  55.129 -56.703  1.00  0.00    -0.106 N 
HETATM    6  H   UNL     1     -44.022  54.626 -57.201  1.00  0.00     0.208 HD
ENDROOT
BRANCH   1   7
HETATM    7  N   UNL     1     -43.415  57.270 -57.800  1.00  0.00    -0.152 N 
HETATM    8  C   UNL     1     -43.661  56.852 -59.093  1.00  0.00     0.272 C 
HETATM    9  O   UNL     1     -43.360  55.765 -59.571  1.00  0.00    -0.267 OA
HETATM   10  H   UNL     1     -43.594  58.231 -57.564  1.00  0.00     0.187 HD
BRANCH   8  11
HETATM   11  C   UNL     1     -44.313  57.873 -59.933  1.00  0.00     0.063 A 
HETATM   12  C   UNL     1     -43.710  58.916 -60.633  1.00  0.00     0.022 A 
HETATM   13  N   UNL     1     -44.711  59.657 -61.210  1.00  0.00    -0.354 N 
HETATM   14  C   UNL     1     -42.294  59.349 -60.771  1.00  0.00     0.069 C 
HETATM   15  C   UNL     1     -45.951  59.195 -60.835  1.00  0.00     0.115 A 
HETATM   16  H   UNL     1     -44.581  60.501 -61.756  1.00  0.00     0.166 HD
HETATM   17  C   UNL     1     -45.740  58.028 -60.108  1.00  0.00    -0.011 A 
HETATM   18  C   UNL     1     -46.782  57.114 -59.548  1.00  0.00     0.052 C 
BRANCH  15  19
HETATM   19  C   UNL     1     -47.145  59.932 -61.193  1.00  0.00     0.310 C 
HETATM   20  O   UNL     1     -47.699  59.846 -62.282  1.00  0.00    -0.258 OA
BRANCH  19  21
HETATM   21  O   UNL     1     -47.508  60.777 -60.193  1.00  0.00    -0.317 OA
BRANCH  21  22
HETATM   22  C   UNL     1     -48.747  60.484 -59.535  1.00  0.00     0.175 C 
HETATM   23  C   UNL     1     -48.500  60.249 -58.056  1.00  0.00     0.034 C 
ENDBRANCH  21  22
ENDBRANCH  19  21
ENDBRANCH  15  19
ENDBRANCH   8  11
ENDBRANCH   1   7
BRANCH   3  24
HETATM   24  C   UNL     1     -40.793  55.315 -54.235  1.00  0.00     0.087 C 
BRANCH  24  25
HETATM   25  C   UNL     1     -41.473  54.970 -52.909  1.00  0.00     0.048 C 
BRANCH  25  26
HETATM   26  C   UNL     1     -40.843  53.796 -52.228  1.00  0.00    -0.030 A 
HETATM   27  C   UNL     1     -40.490  52.552 -52.844  1.00  0.00    -0.002 A 
HETATM   28  C   UNL     1     -39.920  51.743 -51.861  1.00  0.00     0.042 A 
HETATM   29  C   UNL     1     -40.601  52.042 -54.156  1.00  0.00     0.014 A 
HETATM   30  C   UNL     1     -39.456  50.448 -52.121  1.00  0.00     0.030 A 
HETATM   31  N   UNL     1     -39.926  52.467 -50.692  1.00  0.00    -0.365 N 
HETATM   32  C   UNL     1     -39.580  49.966 -53.428  1.00  0.00     0.002 A 
HETATM   33  C   UNL     1     -40.144  50.749 -54.432  1.00  0.00     0.001 A 
HETATM   34  H   UNL     1     -39.566  52.131 -49.810  1.00  0.00     0.165 HD
HETATM   35  C   UNL     1     -40.481  53.703 -50.899  1.00  0.00     0.096 A 
ENDBRANCH  25  26
ENDBRANCH  24  25
ENDBRANCH   3  24
TORSDOF 8
ENDMDL
MODEL 7
REMARK VINA RESULT:      -7.9      1.845      2.337
REMARK  8 active torsions:
REMARK  status: ('A' for Active; 'I' for Inactive)
REMARK    1  A    between atoms: C_2  and  O_3 
REMARK    2  A    between atoms: O_3  and  C_4 
REMARK    3  A    between atoms: C_4  and  C_5 
REMARK    4  A    between atoms: C_10  and  C_11 
REMARK       I    between atoms: C_11  and  N_12 
REMARK    5  A    between atoms: N_12  and  C_13 
REMARK    6  A    between atoms: C_15  and  C_16 
REMARK    7  A    between atoms: C_16  and  C_17 
REMARK    8  A    between atoms: C_17  and  C_18 
ROOT
HETATM    1  C   UNL     1     -43.437  57.086 -55.116  1.00  0.00     0.725 A 
HETATM    2  N   UNL     1     -42.685  56.270 -54.423  1.00  0.00    -0.046 NA
HETATM    3  C   UNL     1     -42.307  57.001 -53.332  1.00  0.00     0.166 A 
HETATM    4  N   UNL     1     -42.808  58.242 -53.294  1.00  0.00    -0.144 NA
HETATM    5  N   UNL     1     -43.526  58.268 -54.431  1.00  0.00    -0.106 N 
HETATM    6  H   UNL     1     -44.035  59.108 -54.672  1.00  0.00     0.208 HD
ENDROOT
BRANCH   1   7
HETATM    7  N   UNL     1     -44.069  56.868 -56.315  1.00  0.00    -0.152 N 
HETATM    8  C   UNL     1     -44.050  57.819 -57.316  1.00  0.00     0.272 C 
HETATM    9  O   UNL     1     -43.578  58.947 -57.234  1.00  0.00    -0.267 OA
HETATM   10  H   UNL     1     -44.600  56.026 -56.461  1.00  0.00     0.187 HD
BRANCH   8  11
HETATM   11  C   UNL     1     -44.715  57.385 -58.559  1.00  0.00     0.063 A 
HETATM   12  C   UNL     1     -44.130  56.813 -59.686  1.00  0.00     0.022 A 
HETATM   13  N   UNL     1     -45.118  56.646 -60.623  1.00  0.00    -0.354 N 
HETATM   14  C   UNL     1     -42.723  56.465 -60.022  1.00  0.00     0.069 C 
HETATM   15  C   UNL     1     -46.311  57.176 -60.188  1.00  0.00     0.115 A 
HETATM   16  H   UNL     1     -44.989  56.282 -61.560  1.00  0.00     0.166 HD
HETATM   17  C   UNL     1     -46.116  57.567 -58.868  1.00  0.00    -0.011 A 
HETATM   18  C   UNL     1     -47.138  58.131 -57.934  1.00  0.00     0.052 C 
BRANCH  15  19
HETATM   19  C   UNL     1     -47.445  57.258 -61.084  1.00  0.00     0.310 C 
HETATM   20  O   UNL     1     -48.099  56.289 -61.447  1.00  0.00    -0.258 OA
BRANCH  19  21
HETATM   21  O   UNL     1     -47.624  58.533 -61.518  1.00  0.00    -0.317 OA
BRANCH  21  22
HETATM   22  C   UNL     1     -48.613  58.722 -62.539  1.00  0.00     0.175 C 
HETATM   23  C   UNL     1     -49.793  59.490 -61.975  1.00  0.00     0.034 C 
ENDBRANCH  21  22
ENDBRANCH  19  21
ENDBRANCH  15  19
ENDBRANCH   8  11
ENDBRANCH   1   7
BRANCH   3  24
HETATM   24  C   UNL     1     -41.411  56.431 -52.296  1.00  0.00     0.087 C 
BRANCH  24  25
HETATM   25  C   UNL     1     -42.132  55.377 -51.454  1.00  0.00     0.048 C 
BRANCH  25  26
HETATM   26  C   UNL     1     -41.302  54.152 -51.232  1.00  0.00    -0.030 A 
HETATM   27  C   UNL     1     -40.805  53.273 -52.248  1.00  0.00    -0.002 A 
HETATM   28  C   UNL     1     -40.072  52.270 -51.615  1.00  0.00     0.042 A 
HETATM   29  C   UNL     1     -40.912  53.244 -53.655  1.00  0.00     0.014 A 
HETATM   30  C   UNL     1     -39.439  51.237 -52.315  1.00  0.00     0.030 A 
HETATM   31  N   UNL     1     -40.120  52.530 -50.265  1.00  0.00    -0.365 N 
HETATM   32  C   UNL     1     -39.562  51.229 -53.709  1.00  0.00     0.002 A 
HETATM   33  C   UNL     1     -40.287  52.217 -54.372  1.00  0.00     0.001 A 
HETATM   34  H   UNL     1     -39.669  51.966 -49.559  1.00  0.00     0.165 HD
HETATM   35  C   UNL     1     -40.859  53.657 -50.021  1.00  0.00     0.096 A 
ENDBRANCH  25  26
ENDBRANCH  24  25
ENDBRANCH   3  24
TORSDOF 8
ENDMDL
MODEL 8
REMARK VINA RESULT:      -7.9      1.894      2.477
REMARK  8 active torsions:
REMARK  status: ('A' for Active; 'I' for Inactive)
REMARK    1  A    between atoms: C_2  and  O_3 
REMARK    2  A    between atoms: O_3  and  C_4 
REMARK    3  A    between atoms: C_4  and  C_5 
REMARK    4  A    between atoms: C_10  and  C_11 
REMARK       I    between atoms: C_11  and  N_12 
REMARK    5  A    between atoms: N_12  and  C_13 
REMARK    6  A    between atoms: C_15  and  C_16 
REMARK    7  A    between atoms: C_16  and  C_17 
REMARK    8  A    between atoms: C_17  and  C_18 
ROOT
HETATM    1  C   UNL     1     -43.751  56.474 -54.813  1.00  0.00     0.725 A 
HETATM    2  N   UNL     1     -43.363  55.356 -54.252  1.00  0.00    -0.046 NA
HETATM    3  C   UNL     1     -42.965  55.726 -52.999  1.00  0.00     0.166 A 
HETATM    4  N   UNL     1     -43.105  57.031 -52.733  1.00  0.00    -0.144 NA
HETATM    5  N   UNL     1     -43.612  57.480 -53.895  1.00  0.00    -0.106 N 
HETATM    6  H   UNL     1     -43.829  58.464 -53.990  1.00  0.00     0.208 HD
ENDROOT
BRANCH   1   7
HETATM    7  N   UNL     1     -44.234  56.680 -56.081  1.00  0.00    -0.152 N 
HETATM    8  C   UNL     1     -43.716  57.673 -56.890  1.00  0.00     0.272 C 
HETATM    9  O   UNL     1     -42.878  58.506 -56.566  1.00  0.00    -0.267 OA
HETATM   10  H   UNL     1     -45.010  56.139 -56.421  1.00  0.00     0.187 HD
BRANCH   8  11
HETATM   11  C   UNL     1     -44.302  57.701 -58.243  1.00  0.00     0.063 A 
HETATM   12  C   UNL     1     -43.670  57.425 -59.453  1.00  0.00     0.022 A 
HETATM   13  N   UNL     1     -44.582  57.652 -60.454  1.00  0.00    -0.354 N 
HETATM   14  C   UNL     1     -42.276  57.035 -59.795  1.00  0.00     0.069 C 
HETATM   15  C   UNL     1     -45.757  58.159 -59.951  1.00  0.00     0.115 A 
HETATM   16  H   UNL     1     -44.401  57.567 -61.447  1.00  0.00     0.166 HD
HETATM   17  C   UNL     1     -45.647  58.120 -58.565  1.00  0.00    -0.011 A 
HETATM   18  C   UNL     1     -46.696  58.495 -57.567  1.00  0.00     0.052 C 
BRANCH  15  19
HETATM   19  C   UNL     1     -46.794  58.628 -60.846  1.00  0.00     0.310 C 
HETATM   20  O   UNL     1     -46.720  59.667 -61.490  1.00  0.00    -0.258 OA
BRANCH  19  21
HETATM   21  O   UNL     1     -47.874  57.805 -60.806  1.00  0.00    -0.317 OA
BRANCH  21  22
HETATM   22  C   UNL     1     -47.789  56.611 -61.595  1.00  0.00     0.175 C 
HETATM   23  C   UNL     1     -48.561  56.795 -62.889  1.00  0.00     0.034 C 
ENDBRANCH  21  22
ENDBRANCH  19  21
ENDBRANCH  15  19
ENDBRANCH   8  11
ENDBRANCH   1   7
BRANCH   3  24
HETATM   24  C   UNL     1     -42.424  54.733 -52.038  1.00  0.00     0.087 C 
BRANCH  24  25
HETATM   25  C   UNL     1     -40.912  54.566 -52.201  1.00  0.00     0.048 C 
BRANCH  25  26
HETATM   26  C   UNL     1     -40.550  53.355 -53.001  1.00  0.00    -0.030 A 
HETATM   27  C   UNL     1     -40.186  52.073 -52.474  1.00  0.00    -0.002 A 
HETATM   28  C   UNL     1     -39.939  51.229 -53.556  1.00  0.00     0.042 A 
HETATM   29  C   UNL     1     -40.047  51.555 -51.169  1.00  0.00     0.014 A 
HETATM   30  C   UNL     1     -39.560  49.891 -53.401  1.00  0.00     0.030 A 
HETATM   31  N   UNL     1     -40.146  51.968 -54.697  1.00  0.00    -0.365 N 
HETATM   32  C   UNL     1     -39.427  49.402 -52.098  1.00  0.00     0.002 A 
HETATM   33  C   UNL     1     -39.666  50.219 -50.996  1.00  0.00     0.001 A 
HETATM   34  H   UNL     1     -40.045  51.609 -55.636  1.00  0.00     0.165 HD
HETATM   35  C   UNL     1     -40.511  53.249 -54.377  1.00  0.00     0.096 A 
ENDBRANCH  25  26
ENDBRANCH  24  25
ENDBRANCH   3  24
TORSDOF 8
ENDMDL
MODEL 9
REMARK VINA RESULT:      -7.8      2.629      4.112
REMARK  8 active torsions:
REMARK  status: ('A' for Active; 'I' for Inactive)
REMARK    1  A    between atoms: C_2  and  O_3 
REMARK    2  A    between atoms: O_3  and  C_4 
REMARK    3  A    between atoms: C_4  and  C_5 
REMARK    4  A    between atoms: C_10  and  C_11 
REMARK       I    between atoms: C_11  and  N_12 
REMARK    5  A    between atoms: N_12  and  C_13 
REMARK    6  A    between atoms: C_15  and  C_16 
REMARK    7  A    between atoms: C_16  and  C_17 
REMARK    8  A    between atoms: C_17  and  C_18 
ROOT
HETATM    1  C   UNL     1     -44.100  56.538 -53.538  1.00  0.00     0.725 A 
HETATM    2  N   UNL     1     -43.423  55.597 -52.930  1.00  0.00    -0.046 NA
HETATM    3  C   UNL     1     -43.613  55.849 -51.600  1.00  0.00     0.166 A 
HETATM    4  N   UNL     1     -44.402  56.899 -51.340  1.00  0.00    -0.144 NA
HETATM    5  N   UNL     1     -44.703  57.312 -52.584  1.00  0.00    -0.106 N 
HETATM    6  H   UNL     1     -45.308  58.115 -52.703  1.00  0.00     0.208 HD
ENDROOT
BRANCH   1   7
HETATM    7  N   UNL     1     -44.240  56.766 -54.884  1.00  0.00    -0.152 N 
HETATM    8  C   UNL     1     -44.777  57.947 -55.357  1.00  0.00     0.272 C 
HETATM    9  O   UNL     1     -45.255  58.847 -54.677  1.00  0.00    -0.267 OA
HETATM   10  H   UNL     1     -43.997  56.050 -55.547  1.00  0.00     0.187 HD
BRANCH   8  11
HETATM   11  C   UNL     1     -44.782  58.051 -56.828  1.00  0.00     0.063 A 
HETATM   12  C   UNL     1     -45.884  58.122 -57.676  1.00  0.00     0.022 A 
HETATM   13  N   UNL     1     -45.412  58.128 -58.965  1.00  0.00    -0.354 N 
HETATM   14  C   UNL     1     -47.351  58.113 -57.424  1.00  0.00     0.069 C 
HETATM   15  C   UNL     1     -44.047  57.967 -58.995  1.00  0.00     0.115 A 
HETATM   16  H   UNL     1     -45.983  58.141 -59.803  1.00  0.00     0.166 HD
HETATM   17  C   UNL     1     -43.611  58.003 -57.675  1.00  0.00    -0.011 A 
HETATM   18  C   UNL     1     -42.197  57.946 -57.190  1.00  0.00     0.052 C 
BRANCH  15  19
HETATM   19  C   UNL     1     -43.360  57.778 -60.256  1.00  0.00     0.310 C 
HETATM   20  O   UNL     1     -42.891  56.708 -60.622  1.00  0.00    -0.258 OA
BRANCH  19  21
HETATM   21  O   UNL     1     -43.244  58.955 -60.923  1.00  0.00    -0.317 OA
BRANCH  21  22
HETATM   22  C   UNL     1     -42.150  59.797 -60.538  1.00  0.00     0.175 C 
HETATM   23  C   UNL     1     -41.819  60.757 -61.666  1.00  0.00     0.034 C 
ENDBRANCH  21  22
ENDBRANCH  19  21
ENDBRANCH  15  19
ENDBRANCH   8  11
ENDBRANCH   1   7
BRANCH   3  24
HETATM   24  C   UNL     1     -42.977  55.006 -50.558  1.00  0.00     0.087 C 
BRANCH  24  25
HETATM   25  C   UNL     1     -41.451  55.046 -50.664  1.00  0.00     0.048 C 
BRANCH  25  26
HETATM   26  C   UNL     1     -40.855  53.691 -50.885  1.00  0.00    -0.030 A 
HETATM   27  C   UNL     1     -40.576  53.088 -52.154  1.00  0.00    -0.002 A 
HETATM   28  C   UNL     1     -40.016  51.834 -51.909  1.00  0.00     0.042 A 
HETATM   29  C   UNL     1     -40.749  53.499 -53.492  1.00  0.00     0.014 A 
HETATM   30  C   UNL     1     -39.619  50.969 -52.935  1.00  0.00     0.030 A 
HETATM   31  N   UNL     1     -39.955  51.682 -50.544  1.00  0.00    -0.365 N 
HETATM   32  C   UNL     1     -39.803  51.399 -54.253  1.00  0.00     0.002 A 
HETATM   33  C   UNL     1     -40.360  52.645 -54.531  1.00  0.00     0.001 A 
HETATM   34  H   UNL     1     -39.585  50.866 -50.076  1.00  0.00     0.165 HD
HETATM   35  C   UNL     1     -40.459  52.790 -49.916  1.00  0.00     0.096 A 
ENDBRANCH  25  26
ENDBRANCH  24  25
ENDBRANCH   3  24
TORSDOF 8
ENDMDL
MODEL 10
REMARK VINA RESULT:      -7.8      3.249      4.391
REMARK  8 active torsions:
REMARK  status: ('A' for Active; 'I' for Inactive)
REMARK    1  A    between atoms: C_2  and  O_3 
REMARK    2  A    between atoms: O_3  and  C_4 
REMARK    3  A    between atoms: C_4  and  C_5 
REMARK    4  A    between atoms: C_10  and  C_11 
REMARK       I    between atoms: C_11  and  N_12 
REMARK    5  A    between atoms: N_12  and  C_13 
REMARK    6  A    between atoms: C_15  and  C_16 
REMARK    7  A    between atoms: C_16  and  C_17 
REMARK    8  A    between atoms: C_17  and  C_18 
ROOT
HETATM    1  C   UNL     1     -42.406  56.170 -55.734  1.00  0.00     0.725 A 
HETATM    2  N   UNL     1     -42.012  56.046 -54.492  1.00  0.00    -0.046 NA
HETATM    3  C   UNL     1     -42.589  54.882 -54.069  1.00  0.00     0.166 A 
HETATM    4  N   UNL     1     -43.315  54.250 -55.000  1.00  0.00    -0.144 NA
HETATM    5  N   UNL     1     -43.177  55.083 -56.047  1.00  0.00    -0.106 N 
HETATM    6  H   UNL     1     -43.630  54.853 -56.922  1.00  0.00     0.208 HD
ENDROOT
BRANCH   1   7
HETATM    7  N   UNL     1     -42.130  57.173 -56.630  1.00  0.00    -0.152 N 
HETATM    8  C   UNL     1     -43.143  57.886 -57.240  1.00  0.00     0.272 C 
HETATM    9  O   UNL     1     -44.344  57.666 -57.139  1.00  0.00    -0.267 OA
HETATM   10  H   UNL     1     -41.178  57.369 -56.892  1.00  0.00     0.187 HD
BRANCH   8  11
HETATM   11  C   UNL     1     -42.661  58.973 -58.113  1.00  0.00     0.063 A 
HETATM   12  C   UNL     1     -42.189  58.874 -59.419  1.00  0.00     0.022 A 
HETATM   13  N   UNL     1     -41.781  60.126 -59.805  1.00  0.00    -0.354 N 
HETATM   14  C   UNL     1     -42.006  57.718 -60.339  1.00  0.00     0.069 C 
HETATM   15  C   UNL     1     -41.879  61.023 -58.767  1.00  0.00     0.115 A 
HETATM   16  H   UNL     1     -41.359  60.361 -60.696  1.00  0.00     0.166 HD
HETATM   17  C   UNL     1     -42.507  60.356 -57.721  1.00  0.00    -0.011 A 
HETATM   18  C   UNL     1     -42.908  60.928 -56.399  1.00  0.00     0.052 C 
BRANCH  15  19
HETATM   19  C   UNL     1     -41.344  62.361 -58.904  1.00  0.00     0.310 C 
HETATM   20  O   UNL     1     -42.031  63.350 -59.125  1.00  0.00    -0.258 OA
BRANCH  19  21
HETATM   21  O   UNL     1     -39.988  62.348 -58.833  1.00  0.00    -0.317 OA
BRANCH  21  22
HETATM   22  C   UNL     1     -39.296  63.182 -59.773  1.00  0.00     0.175 C 
HETATM   23  C   UNL     1     -39.805  62.905 -61.175  1.00  0.00     0.034 C 
ENDBRANCH  21  22
ENDBRANCH  19  21
ENDBRANCH  15  19
ENDBRANCH   8  11
ENDBRANCH   1   7
BRANCH   3  24
HETATM   24  C   UNL     1     -42.403  54.391 -52.681  1.00  0.00     0.087 C 
BRANCH  24  25
HETATM   25  C   UNL     1     -40.922  54.341 -52.301  1.00  0.00     0.048 C 
BRANCH  25  26
HETATM   26  C   UNL     1     -40.483  52.974 -51.881  1.00  0.00    -0.030 A 
HETATM   27  C   UNL     1     -40.194  51.875 -52.754  1.00  0.00    -0.002 A 
HETATM   28  C   UNL     1     -39.809  50.796 -51.957  1.00  0.00     0.042 A 
HETATM   29  C   UNL     1     -40.223  51.703 -54.154  1.00  0.00     0.014 A 
HETATM   30  C   UNL     1     -39.451  49.552 -52.490  1.00  0.00     0.030 A 
HETATM   31  N   UNL     1     -39.860  51.223 -50.651  1.00  0.00    -0.365 N 
HETATM   32  C   UNL     1     -39.491  49.406 -53.880  1.00  0.00     0.002 A 
HETATM   33  C   UNL     1     -39.871  50.464 -54.703  1.00  0.00     0.001 A 
HETATM   34  H   UNL     1     -39.626  50.649 -49.854  1.00  0.00     0.165 HD
HETATM   35  C   UNL     1     -40.267  52.530 -50.591  1.00  0.00     0.096 A 
ENDBRANCH  25  26
ENDBRANCH  24  25
ENDBRANCH   3  24
TORSDOF 8
ENDMDL
