MODEL 1
REMARK VINA RESULT:      -8.1      0.000      0.000
REMARK  6 active torsions:
REMARK  status: ('A' for Active; 'I' for Inactive)
REMARK    1  A    between atoms: C_2  and  C_3 
REMARK    2  A    between atoms: C_7  and  N_8 
REMARK    3  A    between atoms: N_8  and  C_9 
REMARK    4  A    between atoms: C_12  and  N_13 
REMARK       I    between atoms: N_13  and  C_14 
REMARK       I    between atoms: C_14  and  N_15 
REMARK    5  A    between atoms: N_15  and  C_16 
REMARK    6  A    between atoms: N_24  and  C_25 
ROOT
HETATM    1  C   UNL     1     -41.096  59.147 -51.285  1.00  0.00     0.130 A 
HETATM    2  N   UNL     1     -41.092  57.952 -51.899  1.00  0.00    -0.213 NA
HETATM    3  C   UNL     1     -41.959  57.885 -52.929  1.00  0.00     0.169 A 
HETATM    4  C   UNL     1     -42.781  58.919 -53.351  1.00  0.00     0.078 A 
HETATM    5  C   UNL     1     -42.673  60.154 -52.687  1.00  0.00     0.121 A 
HETATM    6  N   UNL     1     -41.820  60.227 -51.641  1.00  0.00    -0.221 NA
HETATM    7  N   UNL     1     -42.203  56.812 -53.784  1.00  0.00    -0.214 N 
HETATM    8  N   UNL     1     -43.198  57.107 -54.676  1.00  0.00    -0.170 NA
HETATM    9  C   UNL     1     -43.539  58.370 -54.411  1.00  0.00     0.069 A 
HETATM   10  C   UNL     1     -44.614  59.015 -55.207  1.00  0.00     0.073 C 
ENDROOT
BRANCH   5  11
HETATM   11  N   UNL     1     -43.409  61.274 -53.083  1.00  0.00    -0.272 NA
HETATM   12  H   UNL     1     -42.824  61.911 -53.608  1.00  0.00     0.129 HD
BRANCH  11  13
HETATM   13  C   UNL     1     -44.221  61.943 -52.056  1.00  0.00     0.062 C 
HETATM   14  C   UNL     1     -44.983  63.102 -52.715  1.00  0.00     0.022 C 
HETATM   15  C   UNL     1     -46.034  62.634 -53.722  1.00  0.00     0.027 C 
HETATM   16  C   UNL     1     -46.945  61.496 -53.243  1.00  0.00     0.086 C 
HETATM   17  C   UNL     1     -46.249  60.430 -52.390  1.00  0.00     0.027 C 
HETATM   18  C   UNL     1     -45.202  60.960 -51.411  1.00  0.00     0.022 C 
BRANCH  16  19
HETATM   19  N   UNL     1     -48.215  61.961 -52.689  1.00  0.00    -0.339 N 
HETATM   20  C   UNL     1     -49.343  62.283 -53.395  1.00  0.00     0.317 C 
HETATM   21  N   UNL     1     -50.366  62.595 -52.529  1.00  0.00    -0.335 N 
HETATM   22  O   UNL     1     -49.440  62.271 -54.610  1.00  0.00    -0.247 OA
HETATM   23  H   UNL     1     -50.273  62.124 -51.640  1.00  0.00     0.165 HD
HETATM   24  H   UNL     1     -48.153  62.429 -51.796  1.00  0.00     0.164 HD
BRANCH  21  25
HETATM   25  C   UNL     1     -51.748  62.874 -52.953  1.00  0.00     0.023 C 
HETATM   26  C   UNL     1     -52.302  61.717 -53.800  1.00  0.00     0.037 C 
HETATM   27  C   UNL     1     -52.608  63.008 -51.681  1.00  0.00     0.037 C 
HETATM   28  C   UNL     1     -51.842  64.195 -53.734  1.00  0.00     0.037 C 
ENDBRANCH  21  25
ENDBRANCH  16  19
ENDBRANCH  11  13
ENDBRANCH   5  11
BRANCH   1  29
HETATM   29  C   UNL     1     -40.168  59.311 -50.111  1.00  0.00     0.076 C 
HETATM   30  C   UNL     1     -38.736  59.539 -50.566  1.00  0.00     0.013 C 
ENDBRANCH   1  29
BRANCH   7  31
HETATM   31  C   UNL     1     -41.565  55.534 -53.851  1.00  0.00     0.060 A 
HETATM   32  C   UNL     1     -40.758  55.159 -54.930  1.00  0.00     0.032 A 
HETATM   33  C   UNL     1     -40.174  53.886 -54.969  1.00  0.00     0.009 A 
HETATM   34  C   UNL     1     -40.379  52.972 -53.930  1.00  0.00    -0.062 A 
HETATM   35  C   UNL     1     -39.788  51.595 -53.988  1.00  0.00     0.048 C 
HETATM   36  C   UNL     1     -41.189  53.342 -52.854  1.00  0.00     0.009 A 
HETATM   37  C   UNL     1     -41.773  54.612 -52.811  1.00  0.00     0.032 A 
ENDBRANCH   7  31
TORSDOF 6
ENDMDL
MODEL 2
REMARK VINA RESULT:      -8.0      3.719      5.066
REMARK  6 active torsions:
REMARK  status: ('A' for Active; 'I' for Inactive)
REMARK    1  A    between atoms: C_2  and  C_3 
REMARK    2  A    between atoms: C_7  and  N_8 
REMARK    3  A    between atoms: N_8  and  C_9 
REMARK    4  A    between atoms: C_12  and  N_13 
REMARK       I    between atoms: N_13  and  C_14 
REMARK       I    between atoms: C_14  and  N_15 
REMARK    5  A    between atoms: N_15  and  C_16 
REMARK    6  A    between atoms: N_24  and  C_25 
ROOT
HETATM    1  C   UNL     1     -42.527  58.763 -56.012  1.00  0.00     0.130 A 
HETATM    2  N   UNL     1     -42.049  57.623 -55.486  1.00  0.00    -0.213 NA
HETATM    3  C   UNL     1     -41.591  57.774 -54.227  1.00  0.00     0.169 A 
HETATM    4  C   UNL     1     -41.599  58.961 -53.511  1.00  0.00     0.078 A 
HETATM    5  C   UNL     1     -42.172  60.091 -54.120  1.00  0.00     0.121 A 
HETATM    6  N   UNL     1     -42.620  59.955 -55.389  1.00  0.00    -0.221 NA
HETATM    7  N   UNL     1     -41.045  56.807 -53.385  1.00  0.00    -0.214 N 
HETATM    8  N   UNL     1     -40.643  57.357 -52.198  1.00  0.00    -0.170 NA
HETATM    9  C   UNL     1     -40.976  58.647 -52.280  1.00  0.00     0.069 A 
HETATM   10  C   UNL     1     -40.671  59.550 -51.143  1.00  0.00     0.073 C 
ENDROOT
BRANCH   5  11
HETATM   11  N   UNL     1     -42.289  61.314 -53.454  1.00  0.00    -0.272 NA
HETATM   12  H   UNL     1     -41.734  61.306 -52.607  1.00  0.00     0.129 HD
BRANCH  11  13
HETATM   13  C   UNL     1     -43.644  61.847 -53.257  1.00  0.00     0.062 C 
HETATM   14  C   UNL     1     -44.426  60.874 -52.362  1.00  0.00     0.022 C 
HETATM   15  C   UNL     1     -43.883  60.801 -50.935  1.00  0.00     0.027 C 
HETATM   16  C   UNL     1     -43.600  62.154 -50.268  1.00  0.00     0.086 C 
HETATM   17  C   UNL     1     -43.019  63.223 -51.200  1.00  0.00     0.027 C 
HETATM   18  C   UNL     1     -43.595  63.237 -52.615  1.00  0.00     0.022 C 
BRANCH  16  19
HETATM   19  N   UNL     1     -44.700  62.633 -49.433  1.00  0.00    -0.339 N 
HETATM   20  C   UNL     1     -45.008  62.208 -48.168  1.00  0.00     0.317 C 
HETATM   21  N   UNL     1     -46.055  62.948 -47.667  1.00  0.00    -0.335 N 
HETATM   22  O   UNL     1     -44.426  61.325 -47.562  1.00  0.00    -0.247 OA
HETATM   23  H   UNL     1     -46.093  63.876 -48.063  1.00  0.00     0.165 HD
HETATM   24  H   UNL     1     -45.493  63.009 -49.934  1.00  0.00     0.164 HD
BRANCH  21  25
HETATM   25  C   UNL     1     -46.560  62.830 -46.289  1.00  0.00     0.023 C 
HETATM   26  C   UNL     1     -47.690  63.841 -46.035  1.00  0.00     0.037 C 
HETATM   27  C   UNL     1     -47.127  61.408 -46.121  1.00  0.00     0.037 C 
HETATM   28  C   UNL     1     -45.436  63.020 -45.258  1.00  0.00     0.037 C 
ENDBRANCH  21  25
ENDBRANCH  16  19
ENDBRANCH  11  13
ENDBRANCH   5  11
BRANCH   1  29
HETATM   29  C   UNL     1     -43.047  58.695 -57.423  1.00  0.00     0.076 C 
HETATM   30  C   UNL     1     -41.947  58.983 -58.432  1.00  0.00     0.013 C 
ENDBRANCH   1  29
BRANCH   7  31
HETATM   31  C   UNL     1     -40.888  55.400 -53.590  1.00  0.00     0.060 A 
HETATM   32  C   UNL     1     -41.179  54.465 -52.592  1.00  0.00     0.032 A 
HETATM   33  C   UNL     1     -40.984  53.097 -52.825  1.00  0.00     0.009 A 
HETATM   34  C   UNL     1     -40.506  52.642 -54.058  1.00  0.00    -0.062 A 
HETATM   35  C   UNL     1     -40.259  51.182 -54.298  1.00  0.00     0.048 C 
HETATM   36  C   UNL     1     -40.210  53.575 -55.055  1.00  0.00     0.009 A 
HETATM   37  C   UNL     1     -40.403  54.941 -54.826  1.00  0.00     0.032 A 
ENDBRANCH   7  31
TORSDOF 6
ENDMDL
MODEL 3
REMARK VINA RESULT:      -8.0      3.743      5.916
REMARK  6 active torsions:
REMARK  status: ('A' for Active; 'I' for Inactive)
REMARK    1  A    between atoms: C_2  and  C_3 
REMARK    2  A    between atoms: C_7  and  N_8 
REMARK    3  A    between atoms: N_8  and  C_9 
REMARK    4  A    between atoms: C_12  and  N_13 
REMARK       I    between atoms: N_13  and  C_14 
REMARK       I    between atoms: C_14  and  N_15 
REMARK    5  A    between atoms: N_15  and  C_16 
REMARK    6  A    between atoms: N_24  and  C_25 
ROOT
HETATM    1  C   UNL     1     -41.653  55.054 -54.196  1.00  0.00     0.130 A 
HETATM    2  N   UNL     1     -42.298  55.391 -55.325  1.00  0.00    -0.213 NA
HETATM    3  C   UNL     1     -42.443  56.723 -55.472  1.00  0.00     0.169 A 
HETATM    4  C   UNL     1     -41.986  57.681 -54.579  1.00  0.00     0.078 A 
HETATM    5  C   UNL     1     -41.270  57.239 -53.454  1.00  0.00     0.121 A 
HETATM    6  N   UNL     1     -41.132  55.904 -53.287  1.00  0.00    -0.221 NA
HETATM    7  N   UNL     1     -43.046  57.416 -56.521  1.00  0.00    -0.214 N 
HETATM    8  N   UNL     1     -43.049  58.764 -56.285  1.00  0.00    -0.170 NA
HETATM    9  C   UNL     1     -42.414  58.916 -55.121  1.00  0.00     0.069 A 
HETATM   10  C   UNL     1     -42.243  60.279 -54.558  1.00  0.00     0.073 C 
ENDROOT
BRANCH   5  11
HETATM   11  N   UNL     1     -40.710  58.129 -52.534  1.00  0.00    -0.272 NA
HETATM   12  H   UNL     1     -39.717  58.231 -52.703  1.00  0.00     0.129 HD
BRANCH  11  13
HETATM   13  C   UNL     1     -41.041  57.929 -51.116  1.00  0.00     0.062 C 
HETATM   14  C   UNL     1     -40.781  59.242 -50.364  1.00  0.00     0.022 C 
HETATM   15  C   UNL     1     -41.730  60.368 -50.774  1.00  0.00     0.027 C 
HETATM   16  C   UNL     1     -43.215  59.986 -50.844  1.00  0.00     0.086 C 
HETATM   17  C   UNL     1     -43.493  58.581 -51.391  1.00  0.00     0.027 C 
HETATM   18  C   UNL     1     -42.503  57.503 -50.952  1.00  0.00     0.022 C 
BRANCH  16  19
HETATM   19  N   UNL     1     -43.955  60.303 -49.624  1.00  0.00    -0.339 N 
HETATM   20  C   UNL     1     -44.521  61.508 -49.305  1.00  0.00     0.317 C 
HETATM   21  N   UNL     1     -45.210  61.403 -48.118  1.00  0.00    -0.335 N 
HETATM   22  O   UNL     1     -44.453  62.519 -49.982  1.00  0.00    -0.247 OA
HETATM   23  H   UNL     1     -45.549  60.467 -47.952  1.00  0.00     0.165 HD
HETATM   24  H   UNL     1     -43.721  59.744 -48.817  1.00  0.00     0.164 HD
BRANCH  21  25
HETATM   25  C   UNL     1     -46.032  62.482 -47.545  1.00  0.00     0.023 C 
HETATM   26  C   UNL     1     -47.122  62.921 -48.536  1.00  0.00     0.037 C 
HETATM   27  C   UNL     1     -46.713  61.927 -46.280  1.00  0.00     0.037 C 
HETATM   28  C   UNL     1     -45.172  63.688 -47.134  1.00  0.00     0.037 C 
ENDBRANCH  21  25
ENDBRANCH  16  19
ENDBRANCH  11  13
ENDBRANCH   5  11
BRANCH   1  29
HETATM   29  C   UNL     1     -41.456  53.584 -53.938  1.00  0.00     0.076 C 
HETATM   30  C   UNL     1     -40.217  53.061 -54.646  1.00  0.00     0.013 C 
ENDBRANCH   1  29
BRANCH   7  31
HETATM   31  C   UNL     1     -43.601  56.921 -57.743  1.00  0.00     0.060 A 
HETATM   32  C   UNL     1     -44.827  57.372 -58.241  1.00  0.00     0.032 A 
HETATM   33  C   UNL     1     -45.348  56.840 -59.427  1.00  0.00     0.009 A 
HETATM   34  C   UNL     1     -44.650  55.859 -60.139  1.00  0.00    -0.062 A 
HETATM   35  C   UNL     1     -45.224  55.258 -61.388  1.00  0.00     0.048 C 
HETATM   36  C   UNL     1     -43.427  55.403 -59.640  1.00  0.00     0.009 A 
HETATM   37  C   UNL     1     -42.904  55.932 -58.457  1.00  0.00     0.032 A 
ENDBRANCH   7  31
TORSDOF 6
ENDMDL
MODEL 4
REMARK VINA RESULT:      -7.9      1.649      3.387
REMARK  6 active torsions:
REMARK  status: ('A' for Active; 'I' for Inactive)
REMARK    1  A    between atoms: C_2  and  C_3 
REMARK    2  A    between atoms: C_7  and  N_8 
REMARK    3  A    between atoms: N_8  and  C_9 
REMARK    4  A    between atoms: C_12  and  N_13 
REMARK       I    between atoms: N_13  and  C_14 
REMARK       I    between atoms: C_14  and  N_15 
REMARK    5  A    between atoms: N_15  and  C_16 
REMARK    6  A    between atoms: N_24  and  C_25 
ROOT
HETATM    1  C   UNL     1     -42.250  56.977 -55.293  1.00  0.00     0.130 A 
HETATM    2  N   UNL     1     -41.719  55.851 -54.787  1.00  0.00    -0.213 NA
HETATM    3  C   UNL     1     -41.485  55.927 -53.462  1.00  0.00     0.169 A 
HETATM    4  C   UNL     1     -41.755  57.029 -52.665  1.00  0.00     0.078 A 
HETATM    5  C   UNL     1     -42.365  58.142 -53.269  1.00  0.00     0.121 A 
HETATM    6  N   UNL     1     -42.590  58.083 -54.601  1.00  0.00    -0.221 NA
HETATM    7  N   UNL     1     -40.958  54.949 -52.621  1.00  0.00    -0.214 N 
HETATM    8  N   UNL     1     -40.818  55.420 -51.344  1.00  0.00    -0.170 NA
HETATM    9  C   UNL     1     -41.296  56.666 -51.377  1.00  0.00     0.069 A 
HETATM   10  C   UNL     1     -41.288  57.481 -50.136  1.00  0.00     0.073 C 
ENDROOT
BRANCH   5  11
HETATM   11  N   UNL     1     -42.738  59.272 -52.536  1.00  0.00    -0.272 NA
HETATM   12  H   UNL     1     -41.937  59.654 -52.049  1.00  0.00     0.129 HD
BRANCH  11  13
HETATM   13  C   UNL     1     -43.935  59.161 -51.689  1.00  0.00     0.062 C 
HETATM   14  C   UNL     1     -44.113  60.479 -50.921  1.00  0.00     0.022 C 
HETATM   15  C   UNL     1     -44.452  61.661 -51.829  1.00  0.00     0.027 C 
HETATM   16  C   UNL     1     -45.554  61.402 -52.865  1.00  0.00     0.086 C 
HETATM   17  C   UNL     1     -45.532  60.003 -53.492  1.00  0.00     0.027 C 
HETATM   18  C   UNL     1     -45.176  58.866 -52.535  1.00  0.00     0.022 C 
BRANCH  16  19
HETATM   19  N   UNL     1     -46.880  61.832 -52.425  1.00  0.00    -0.339 N 
HETATM   20  C   UNL     1     -47.877  62.335 -53.217  1.00  0.00     0.317 C 
HETATM   21  N   UNL     1     -49.011  62.546 -52.466  1.00  0.00    -0.335 N 
HETATM   22  O   UNL     1     -47.788  62.541 -54.415  1.00  0.00    -0.247 OA
HETATM   23  H   UNL     1     -49.069  61.922 -51.674  1.00  0.00     0.165 HD
HETATM   24  H   UNL     1     -46.942  62.132 -51.463  1.00  0.00     0.164 HD
BRANCH  21  25
HETATM   25  C   UNL     1     -50.303  62.972 -53.028  1.00  0.00     0.023 C 
HETATM   26  C   UNL     1     -50.802  61.961 -54.074  1.00  0.00     0.037 C 
HETATM   27  C   UNL     1     -51.320  63.024 -51.872  1.00  0.00     0.037 C 
HETATM   28  C   UNL     1     -50.214  64.375 -53.649  1.00  0.00     0.037 C 
ENDBRANCH  21  25
ENDBRANCH  16  19
ENDBRANCH  11  13
ENDBRANCH   5  11
BRANCH   1  29
HETATM   29  C   UNL     1     -42.533  56.991 -56.772  1.00  0.00     0.076 C 
HETATM   30  C   UNL     1     -42.975  55.622 -57.262  1.00  0.00     0.013 C 
ENDBRANCH   1  29
BRANCH   7  31
HETATM   31  C   UNL     1     -40.594  53.596 -52.908  1.00  0.00     0.060 A 
HETATM   32  C   UNL     1     -39.929  52.790 -51.980  1.00  0.00     0.032 A 
HETATM   33  C   UNL     1     -39.565  51.478 -52.313  1.00  0.00     0.009 A 
HETATM   34  C   UNL     1     -39.867  50.950 -53.571  1.00  0.00    -0.062 A 
HETATM   35  C   UNL     1     -39.444  49.560 -53.945  1.00  0.00     0.048 C 
HETATM   36  C   UNL     1     -40.528  51.755 -54.503  1.00  0.00     0.009 A 
HETATM   37  C   UNL     1     -40.892  53.064 -54.174  1.00  0.00     0.032 A 
ENDBRANCH   7  31
TORSDOF 6
ENDMDL
MODEL 5
REMARK VINA RESULT:      -7.8      3.437      4.961
REMARK  6 active torsions:
REMARK  status: ('A' for Active; 'I' for Inactive)
REMARK    1  A    between atoms: C_2  and  C_3 
REMARK    2  A    between atoms: C_7  and  N_8 
REMARK    3  A    between atoms: N_8  and  C_9 
REMARK    4  A    between atoms: C_12  and  N_13 
REMARK       I    between atoms: N_13  and  C_14 
REMARK       I    between atoms: C_14  and  N_15 
REMARK    5  A    between atoms: N_15  and  C_16 
REMARK    6  A    between atoms: N_24  and  C_25 
ROOT
HETATM    1  C   UNL     1     -42.631  56.333 -56.033  1.00  0.00     0.130 A 
HETATM    2  N   UNL     1     -41.998  55.360 -55.357  1.00  0.00    -0.213 NA
HETATM    3  C   UNL     1     -41.646  55.728 -54.108  1.00  0.00     0.169 A 
HETATM    4  C   UNL     1     -41.897  56.967 -53.540  1.00  0.00     0.078 A 
HETATM    5  C   UNL     1     -42.618  57.904 -54.301  1.00  0.00     0.121 A 
HETATM    6  N   UNL     1     -42.961  57.552 -55.560  1.00  0.00    -0.221 NA
HETATM    7  N   UNL     1     -40.993  54.972 -53.137  1.00  0.00    -0.214 N 
HETATM    8  N   UNL     1     -40.759  55.712 -52.010  1.00  0.00    -0.170 NA
HETATM    9  C   UNL     1     -41.302  56.906 -52.258  1.00  0.00     0.069 A 
HETATM   10  C   UNL     1     -41.222  57.969 -51.225  1.00  0.00     0.073 C 
ENDROOT
BRANCH   5  11
HETATM   11  N   UNL     1     -42.979  59.154 -53.790  1.00  0.00    -0.272 NA
HETATM   12  H   UNL     1     -42.400  59.388 -52.994  1.00  0.00     0.129 HD
BRANCH  11  13
HETATM   13  C   UNL     1     -44.410  59.400 -53.561  1.00  0.00     0.062 C 
HETATM   14  C   UNL     1     -44.780  58.870 -52.168  1.00  0.00     0.022 C 
HETATM   15  C   UNL     1     -44.118  59.653 -51.034  1.00  0.00     0.027 C 
HETATM   16  C   UNL     1     -44.202  61.181 -51.150  1.00  0.00     0.086 C 
HETATM   17  C   UNL     1     -44.055  61.727 -52.575  1.00  0.00     0.027 C 
HETATM   18  C   UNL     1     -44.729  60.894 -53.664  1.00  0.00     0.022 C 
BRANCH  16  19
HETATM   19  N   UNL     1     -45.319  61.762 -50.407  1.00  0.00    -0.339 N 
HETATM   20  C   UNL     1     -45.354  62.028 -49.065  1.00  0.00     0.317 C 
HETATM   21  N   UNL     1     -46.537  62.652 -48.740  1.00  0.00    -0.335 N 
HETATM   22  O   UNL     1     -44.460  61.776 -48.275  1.00  0.00    -0.247 OA
HETATM   23  H   UNL     1     -46.916  63.180 -49.513  1.00  0.00     0.165 HD
HETATM   24  H   UNL     1     -46.233  61.610 -50.809  1.00  0.00     0.164 HD
BRANCH  21  25
HETATM   25  C   UNL     1     -46.848  63.181 -47.403  1.00  0.00     0.023 C 
HETATM   26  C   UNL     1     -48.108  64.061 -47.445  1.00  0.00     0.037 C 
HETATM   27  C   UNL     1     -47.119  61.980 -46.477  1.00  0.00     0.037 C 
HETATM   28  C   UNL     1     -45.667  63.975 -46.821  1.00  0.00     0.037 C 
ENDBRANCH  21  25
ENDBRANCH  16  19
ENDBRANCH  11  13
ENDBRANCH   5  11
BRANCH   1  29
HETATM   29  C   UNL     1     -43.049  56.018 -57.444  1.00  0.00     0.076 C 
HETATM   30  C   UNL     1     -43.931  57.116 -58.017  1.00  0.00     0.013 C 
ENDBRANCH   1  29
BRANCH   7  31
HETATM   31  C   UNL     1     -40.588  53.601 -53.166  1.00  0.00     0.060 A 
HETATM   32  C   UNL     1     -40.616  52.840 -54.339  1.00  0.00     0.032 A 
HETATM   33  C   UNL     1     -40.237  51.491 -54.318  1.00  0.00     0.009 A 
HETATM   34  C   UNL     1     -39.817  50.884 -53.130  1.00  0.00    -0.062 A 
HETATM   35  C   UNL     1     -39.449  49.431 -53.095  1.00  0.00     0.048 C 
HETATM   36  C   UNL     1     -39.792  51.641 -51.955  1.00  0.00     0.009 A 
HETATM   37  C   UNL     1     -40.170  52.987 -51.973  1.00  0.00     0.032 A 
ENDBRANCH   7  31
TORSDOF 6
ENDMDL
MODEL 6
REMARK VINA RESULT:      -7.7      2.283      2.641
REMARK  6 active torsions:
REMARK  status: ('A' for Active; 'I' for Inactive)
REMARK    1  A    between atoms: C_2  and  C_3 
REMARK    2  A    between atoms: C_7  and  N_8 
REMARK    3  A    between atoms: N_8  and  C_9 
REMARK    4  A    between atoms: C_12  and  N_13 
REMARK       I    between atoms: N_13  and  C_14 
REMARK       I    between atoms: C_14  and  N_15 
REMARK    5  A    between atoms: N_15  and  C_16 
REMARK    6  A    between atoms: N_24  and  C_25 
ROOT
HETATM    1  C   UNL     1     -40.876  58.847 -51.921  1.00  0.00     0.130 A 
HETATM    2  N   UNL     1     -40.854  57.562 -52.311  1.00  0.00    -0.213 NA
HETATM    3  C   UNL     1     -41.352  57.378 -53.550  1.00  0.00     0.169 A 
HETATM    4  C   UNL     1     -41.840  58.382 -54.372  1.00  0.00     0.078 A 
HETATM    5  C   UNL     1     -41.770  59.705 -53.904  1.00  0.00     0.121 A 
HETATM    6  N   UNL     1     -41.287  59.900 -52.656  1.00  0.00    -0.221 NA
HETATM    7  N   UNL     1     -41.468  56.188 -54.267  1.00  0.00    -0.214 N 
HETATM    8  N   UNL     1     -42.077  56.396 -55.474  1.00  0.00    -0.170 NA
HETATM    9  C   UNL     1     -42.298  57.712 -55.531  1.00  0.00     0.069 A 
HETATM   10  C   UNL     1     -42.963  58.286 -56.727  1.00  0.00     0.073 C 
ENDROOT
BRANCH   5  11
HETATM   11  N   UNL     1     -42.173  60.791 -54.686  1.00  0.00    -0.272 NA
HETATM   12  H   UNL     1     -41.365  61.278 -55.054  1.00  0.00     0.129 HD
BRANCH  11  13
HETATM   13  C   UNL     1     -43.186  61.692 -54.116  1.00  0.00     0.062 C 
HETATM   14  C   UNL     1     -43.710  62.605 -55.234  1.00  0.00     0.022 C 
HETATM   15  C   UNL     1     -44.496  61.851 -56.306  1.00  0.00     0.027 C 
HETATM   16  C   UNL     1     -45.545  60.861 -55.782  1.00  0.00     0.086 C 
HETATM   17  C   UNL     1     -45.129  60.089 -54.525  1.00  0.00     0.027 C 
HETATM   18  C   UNL     1     -44.337  60.895 -53.496  1.00  0.00     0.022 C 
BRANCH  16  19
HETATM   19  N   UNL     1     -46.893  61.424 -55.710  1.00  0.00    -0.339 N 
HETATM   20  C   UNL     1     -47.820  61.447 -56.717  1.00  0.00     0.317 C 
HETATM   21  N   UNL     1     -49.002  61.978 -56.254  1.00  0.00    -0.335 N 
HETATM   22  O   UNL     1     -47.639  61.034 -57.850  1.00  0.00    -0.247 OA
HETATM   23  H   UNL     1     -49.129  61.827 -55.264  1.00  0.00     0.165 HD
HETATM   24  H   UNL     1     -47.020  62.160 -55.031  1.00  0.00     0.164 HD
BRANCH  21  25
HETATM   25  C   UNL     1     -50.242  62.040 -57.045  1.00  0.00     0.023 C 
HETATM   26  C   UNL     1     -50.676  60.634 -57.490  1.00  0.00     0.037 C 
HETATM   27  C   UNL     1     -51.342  62.631 -56.143  1.00  0.00     0.037 C 
HETATM   28  C   UNL     1     -50.085  62.958 -58.269  1.00  0.00     0.037 C 
ENDBRANCH  21  25
ENDBRANCH  16  19
ENDBRANCH  11  13
ENDBRANCH   5  11
BRANCH   1  29
HETATM   29  C   UNL     1     -40.352  59.148 -50.542  1.00  0.00     0.076 C 
HETATM   30  C   UNL     1     -38.884  59.540 -50.583  1.00  0.00     0.013 C 
ENDBRANCH   1  29
BRANCH   7  31
HETATM   31  C   UNL     1     -41.033  54.870 -53.924  1.00  0.00     0.060 A 
HETATM   32  C   UNL     1     -41.104  54.377 -52.617  1.00  0.00     0.032 A 
HETATM   33  C   UNL     1     -40.640  53.089 -52.319  1.00  0.00     0.009 A 
HETATM   34  C   UNL     1     -40.109  52.271 -53.321  1.00  0.00    -0.062 A 
HETATM   35  C   UNL     1     -39.575  50.906 -52.998  1.00  0.00     0.048 C 
HETATM   36  C   UNL     1     -40.032  52.762 -54.627  1.00  0.00     0.009 A 
HETATM   37  C   UNL     1     -40.494  54.047 -54.928  1.00  0.00     0.032 A 
ENDBRANCH   7  31
TORSDOF 6
ENDMDL
MODEL 7
REMARK VINA RESULT:      -7.4      5.234      9.544
REMARK  6 active torsions:
REMARK  status: ('A' for Active; 'I' for Inactive)
REMARK    1  A    between atoms: C_2  and  C_3 
REMARK    2  A    between atoms: C_7  and  N_8 
REMARK    3  A    between atoms: N_8  and  C_9 
REMARK    4  A    between atoms: C_12  and  N_13 
REMARK       I    between atoms: N_13  and  C_14 
REMARK       I    between atoms: C_14  and  N_15 
REMARK    5  A    between atoms: N_15  and  C_16 
REMARK    6  A    between atoms: N_24  and  C_25 
ROOT
HETATM    1  C   UNL     1     -42.483  57.587 -58.897  1.00  0.00     0.130 A 
HETATM    2  N   UNL     1     -42.006  58.792 -59.250  1.00  0.00    -0.213 NA
HETATM    3  C   UNL     1     -42.068  59.697 -58.253  1.00  0.00     0.169 A 
HETATM    4  C   UNL     1     -42.558  59.451 -56.979  1.00  0.00     0.078 A 
HETATM    5  C   UNL     1     -42.981  58.144 -56.681  1.00  0.00     0.121 A 
HETATM    6  N   UNL     1     -42.940  57.232 -57.678  1.00  0.00    -0.221 NA
HETATM    7  N   UNL     1     -41.653  61.027 -58.267  1.00  0.00    -0.214 N 
HETATM    8  N   UNL     1     -41.932  61.644 -57.078  1.00  0.00    -0.170 NA
HETATM    9  C   UNL     1     -42.474  60.695 -56.311  1.00  0.00     0.069 A 
HETATM   10  C   UNL     1     -42.905  61.033 -54.932  1.00  0.00     0.073 C 
ENDROOT
BRANCH   5  11
HETATM   11  N   UNL     1     -43.426  57.782 -55.407  1.00  0.00    -0.272 NA
HETATM   12  H   UNL     1     -43.476  58.596 -54.807  1.00  0.00     0.129 HD
BRANCH  11  13
HETATM   13  C   UNL     1     -42.775  56.628 -54.768  1.00  0.00     0.062 C 
HETATM   14  C   UNL     1     -41.517  57.121 -54.039  1.00  0.00     0.022 C 
HETATM   15  C   UNL     1     -41.830  58.031 -52.850  1.00  0.00     0.027 C 
HETATM   16  C   UNL     1     -42.928  57.526 -51.905  1.00  0.00     0.086 C 
HETATM   17  C   UNL     1     -44.103  56.827 -52.598  1.00  0.00     0.027 C 
HETATM   18  C   UNL     1     -43.726  55.941 -53.784  1.00  0.00     0.022 C 
BRANCH  16  19
HETATM   19  N   UNL     1     -42.411  56.802 -50.745  1.00  0.00    -0.339 N 
HETATM   20  C   UNL     1     -41.693  55.637 -50.766  1.00  0.00     0.317 C 
HETATM   21  N   UNL     1     -41.305  55.301 -49.489  1.00  0.00    -0.335 N 
HETATM   22  O   UNL     1     -41.413  55.001 -51.768  1.00  0.00    -0.247 OA
HETATM   23  H   UNL     1     -41.204  56.111 -48.894  1.00  0.00     0.165 HD
HETATM   24  H   UNL     1     -42.918  56.945 -49.883  1.00  0.00     0.164 HD
BRANCH  21  25
HETATM   25  C   UNL     1     -40.420  54.169 -49.168  1.00  0.00     0.023 C 
HETATM   26  C   UNL     1     -40.302  53.985 -47.646  1.00  0.00     0.037 C 
HETATM   27  C   UNL     1     -41.051  52.899 -49.769  1.00  0.00     0.037 C 
HETATM   28  C   UNL     1     -39.026  54.350 -49.790  1.00  0.00     0.037 C 
ENDBRANCH  21  25
ENDBRANCH  16  19
ENDBRANCH  11  13
ENDBRANCH   5  11
BRANCH   1  29
HETATM   29  C   UNL     1     -42.469  56.514 -59.953  1.00  0.00     0.076 C 
HETATM   30  C   UNL     1     -43.525  55.456 -59.679  1.00  0.00     0.013 C 
ENDBRANCH   1  29
BRANCH   7  31
HETATM   31  C   UNL     1     -40.993  61.768 -59.297  1.00  0.00     0.060 A 
HETATM   32  C   UNL     1     -41.404  61.715 -60.633  1.00  0.00     0.032 A 
HETATM   33  C   UNL     1     -40.712  62.434 -61.616  1.00  0.00     0.009 A 
HETATM   34  C   UNL     1     -39.606  63.222 -61.281  1.00  0.00    -0.062 A 
HETATM   35  C   UNL     1     -38.838  63.961 -62.336  1.00  0.00     0.048 C 
HETATM   36  C   UNL     1     -39.190  63.272 -59.948  1.00  0.00     0.009 A 
HETATM   37  C   UNL     1     -39.879  62.556 -58.964  1.00  0.00     0.032 A 
ENDBRANCH   7  31
TORSDOF 6
ENDMDL
MODEL 8
REMARK VINA RESULT:      -7.3      4.373      5.176
REMARK  6 active torsions:
REMARK  status: ('A' for Active; 'I' for Inactive)
REMARK    1  A    between atoms: C_2  and  C_3 
REMARK    2  A    between atoms: C_7  and  N_8 
REMARK    3  A    between atoms: N_8  and  C_9 
REMARK    4  A    between atoms: C_12  and  N_13 
REMARK       I    between atoms: N_13  and  C_14 
REMARK       I    between atoms: C_14  and  N_15 
REMARK    5  A    between atoms: N_15  and  C_16 
REMARK    6  A    between atoms: N_24  and  C_25 
ROOT
HETATM    1  C   UNL     1     -41.173  57.971 -53.065  1.00  0.00     0.130 A 
HETATM    2  N   UNL     1     -41.032  56.637 -52.987  1.00  0.00    -0.213 NA
HETATM    3  C   UNL     1     -41.459  55.996 -54.093  1.00  0.00     0.169 A 
HETATM    4  C   UNL     1     -41.989  56.609 -55.219  1.00  0.00     0.078 A 
HETATM    5  C   UNL     1     -42.043  58.014 -55.235  1.00  0.00     0.121 A 
HETATM    6  N   UNL     1     -41.633  58.667 -54.125  1.00  0.00    -0.221 NA
HETATM    7  N   UNL     1     -41.449  54.628 -54.357  1.00  0.00    -0.214 N 
HETATM    8  N   UNL     1     -42.019  54.354 -55.570  1.00  0.00    -0.170 NA
HETATM    9  C   UNL     1     -42.341  55.545 -56.081  1.00  0.00     0.069 A 
HETATM   10  C   UNL     1     -42.995  55.612 -57.412  1.00  0.00     0.073 C 
ENDROOT
BRANCH   5  11
HETATM   11  N   UNL     1     -42.496  58.725 -56.350  1.00  0.00    -0.272 NA
HETATM   12  H   UNL     1     -41.712  59.102 -56.868  1.00  0.00     0.129 HD
BRANCH  11  13
HETATM   13  C   UNL     1     -43.574  59.701 -56.133  1.00  0.00     0.062 C 
HETATM   14  C   UNL     1     -43.668  60.607 -57.370  1.00  0.00     0.022 C 
HETATM   15  C   UNL     1     -44.133  59.866 -58.623  1.00  0.00     0.027 C 
HETATM   16  C   UNL     1     -45.355  58.956 -58.437  1.00  0.00     0.086 C 
HETATM   17  C   UNL     1     -45.397  58.201 -57.103  1.00  0.00     0.027 C 
HETATM   18  C   UNL     1     -44.910  58.993 -55.890  1.00  0.00     0.022 C 
BRANCH  16  19
HETATM   19  N   UNL     1     -46.619  59.598 -58.793  1.00  0.00    -0.339 N 
HETATM   20  C   UNL     1     -47.102  59.798 -60.058  1.00  0.00     0.317 C 
HETATM   21  N   UNL     1     -48.360  60.353 -59.998  1.00  0.00    -0.335 N 
HETATM   22  O   UNL     1     -46.520  59.504 -61.088  1.00  0.00    -0.247 OA
HETATM   23  H   UNL     1     -48.850  60.101 -59.152  1.00  0.00     0.165 HD
HETATM   24  H   UNL     1     -46.974  60.260 -58.119  1.00  0.00     0.164 HD
BRANCH  21  25
HETATM   25  C   UNL     1     -49.213  60.590 -61.174  1.00  0.00     0.023 C 
HETATM   26  C   UNL     1     -49.492  59.273 -61.917  1.00  0.00     0.037 C 
HETATM   27  C   UNL     1     -50.551  61.164 -60.671  1.00  0.00     0.037 C 
HETATM   28  C   UNL     1     -48.583  61.615 -62.130  1.00  0.00     0.037 C 
ENDBRANCH  21  25
ENDBRANCH  16  19
ENDBRANCH  11  13
ENDBRANCH   5  11
BRANCH   1  29
HETATM   29  C   UNL     1     -40.736  58.772 -51.868  1.00  0.00     0.076 C 
HETATM   30  C   UNL     1     -40.994  58.016 -50.574  1.00  0.00     0.013 C 
ENDBRANCH   1  29
BRANCH   7  31
HETATM   31  C   UNL     1     -40.928  53.551 -53.573  1.00  0.00     0.060 A 
HETATM   32  C   UNL     1     -40.876  53.601 -52.177  1.00  0.00     0.032 A 
HETATM   33  C   UNL     1     -40.330  52.536 -51.449  1.00  0.00     0.009 A 
HETATM   34  C   UNL     1     -39.837  51.401 -52.102  1.00  0.00    -0.062 A 
HETATM   35  C   UNL     1     -39.216  50.276 -51.329  1.00  0.00     0.048 C 
HETATM   36  C   UNL     1     -39.883  51.350 -53.498  1.00  0.00     0.009 A 
HETATM   37  C   UNL     1     -40.427  52.412 -54.227  1.00  0.00     0.032 A 
ENDBRANCH   7  31
TORSDOF 6
ENDMDL
MODEL 9
REMARK VINA RESULT:      -7.2      2.212      4.224
REMARK  6 active torsions:
REMARK  status: ('A' for Active; 'I' for Inactive)
REMARK    1  A    between atoms: C_2  and  C_3 
REMARK    2  A    between atoms: C_7  and  N_8 
REMARK    3  A    between atoms: N_8  and  C_9 
REMARK    4  A    between atoms: C_12  and  N_13 
REMARK       I    between atoms: N_13  and  C_14 
REMARK       I    between atoms: C_14  and  N_15 
REMARK    5  A    between atoms: N_15  and  C_16 
REMARK    6  A    between atoms: N_24  and  C_25 
ROOT
HETATM    1  C   UNL     1     -42.899  56.035 -57.382  1.00  0.00     0.130 A 
HETATM    2  N   UNL     1     -42.240  55.368 -56.419  1.00  0.00    -0.213 NA
HETATM    3  C   UNL     1     -41.833  56.163 -55.410  1.00  0.00     0.169 A 
HETATM    4  C   UNL     1     -42.056  57.529 -55.329  1.00  0.00     0.078 A 
HETATM    5  C   UNL     1     -42.806  58.133 -56.353  1.00  0.00     0.121 A 
HETATM    6  N   UNL     1     -43.205  57.348 -57.379  1.00  0.00    -0.221 NA
HETATM    7  N   UNL     1     -41.140  55.806 -54.255  1.00  0.00    -0.214 N 
HETATM    8  N   UNL     1     -40.856  56.905 -53.490  1.00  0.00    -0.170 NA
HETATM    9  C   UNL     1     -41.406  57.933 -54.140  1.00  0.00     0.069 A 
HETATM   10  C   UNL     1     -41.277  59.301 -53.577  1.00  0.00     0.073 C 
ENDROOT
BRANCH   5  11
HETATM   11  N   UNL     1     -43.141  59.489 -56.326  1.00  0.00    -0.272 NA
HETATM   12  H   UNL     1     -42.992  59.869 -55.399  1.00  0.00     0.129 HD
BRANCH  11  13
HETATM   13  C   UNL     1     -44.432  59.876 -56.913  1.00  0.00     0.062 C 
HETATM   14  C   UNL     1     -45.556  59.352 -56.007  1.00  0.00     0.022 C 
HETATM   15  C   UNL     1     -45.591  60.033 -54.639  1.00  0.00     0.027 C 
HETATM   16  C   UNL     1     -45.486  61.564 -54.660  1.00  0.00     0.086 C 
HETATM   17  C   UNL     1     -44.527  62.128 -55.715  1.00  0.00     0.027 C 
HETATM   18  C   UNL     1     -44.531  61.398 -57.057  1.00  0.00     0.022 C 
BRANCH  16  19
HETATM   19  N   UNL     1     -46.783  62.237 -54.621  1.00  0.00    -0.339 N 
HETATM   20  C   UNL     1     -47.686  62.206 -53.592  1.00  0.00     0.317 C 
HETATM   21  N   UNL     1     -48.751  63.029 -53.878  1.00  0.00    -0.335 N 
HETATM   22  O   UNL     1     -47.556  61.569 -52.561  1.00  0.00    -0.247 OA
HETATM   23  H   UNL     1     -48.495  63.791 -54.488  1.00  0.00     0.165 HD
HETATM   24  H   UNL     1     -47.206  62.417 -55.520  1.00  0.00     0.164 HD
BRANCH  21  25
HETATM   25  C   UNL     1     -49.844  63.318 -52.935  1.00  0.00     0.023 C 
HETATM   26  C   UNL     1     -49.286  63.690 -51.551  1.00  0.00     0.037 C 
HETATM   27  C   UNL     1     -50.631  64.522 -53.487  1.00  0.00     0.037 C 
HETATM   28  C   UNL     1     -50.813  62.130 -52.814  1.00  0.00     0.037 C 
ENDBRANCH  21  25
ENDBRANCH  16  19
ENDBRANCH  11  13
ENDBRANCH   5  11
BRANCH   1  29
HETATM   29  C   UNL     1     -43.380  55.230 -58.559  1.00  0.00     0.076 C 
HETATM   30  C   UNL     1     -43.889  56.131 -59.673  1.00  0.00     0.013 C 
ENDBRANCH   1  29
BRANCH   7  31
HETATM   31  C   UNL     1     -40.741  54.513 -53.792  1.00  0.00     0.060 A 
HETATM   32  C   UNL     1     -40.340  53.499 -54.667  1.00  0.00     0.032 A 
HETATM   33  C   UNL     1     -39.983  52.237 -54.174  1.00  0.00     0.009 A 
HETATM   34  C   UNL     1     -40.012  51.971 -52.802  1.00  0.00    -0.062 A 
HETATM   35  C   UNL     1     -39.670  50.610 -52.273  1.00  0.00     0.048 C 
HETATM   36  C   UNL     1     -40.417  52.981 -51.925  1.00  0.00     0.009 A 
HETATM   37  C   UNL     1     -40.774  54.241 -52.413  1.00  0.00     0.032 A 
ENDBRANCH   7  31
TORSDOF 6
ENDMDL
MODEL 10
REMARK VINA RESULT:      -7.1      2.611      4.367
REMARK  6 active torsions:
REMARK  status: ('A' for Active; 'I' for Inactive)
REMARK    1  A    between atoms: C_2  and  C_3 
REMARK    2  A    between atoms: C_7  and  N_8 
REMARK    3  A    between atoms: N_8  and  C_9 
REMARK    4  A    between atoms: C_12  and  N_13 
REMARK       I    between atoms: N_13  and  C_14 
REMARK       I    between atoms: C_14  and  N_15 
REMARK    5  A    between atoms: N_15  and  C_16 
REMARK    6  A    between atoms: N_24  and  C_25 
ROOT
HETATM    1  C   UNL     1     -42.828  56.115 -57.104  1.00  0.00     0.130 A 
HETATM    2  N   UNL     1     -42.182  55.362 -56.198  1.00  0.00    -0.213 NA
HETATM    3  C   UNL     1     -41.723  56.075 -55.150  1.00  0.00     0.169 A 
HETATM    4  C   UNL     1     -41.885  57.441 -54.980  1.00  0.00     0.078 A 
HETATM    5  C   UNL     1     -42.627  58.139 -55.950  1.00  0.00     0.121 A 
HETATM    6  N   UNL     1     -43.077  57.437 -57.014  1.00  0.00    -0.221 NA
HETATM    7  N   UNL     1     -41.027  55.617 -54.032  1.00  0.00    -0.214 N 
HETATM    8  N   UNL     1     -40.682  56.653 -53.207  1.00  0.00    -0.170 NA
HETATM    9  C   UNL     1     -41.198  57.742 -53.781  1.00  0.00     0.069 A 
HETATM   10  C   UNL     1     -41.001  59.065 -53.137  1.00  0.00     0.073 C 
ENDROOT
BRANCH   5  11
HETATM   11  N   UNL     1     -42.902  59.504 -55.832  1.00  0.00    -0.272 NA
HETATM   12  H   UNL     1     -42.041  60.031 -55.768  1.00  0.00     0.129 HD
BRANCH  11  13
HETATM   13  C   UNL     1     -43.906  59.905 -54.835  1.00  0.00     0.062 C 
HETATM   14  C   UNL     1     -44.187  61.405 -55.002  1.00  0.00     0.022 C 
HETATM   15  C   UNL     1     -44.874  61.744 -56.326  1.00  0.00     0.027 C 
HETATM   16  C   UNL     1     -46.066  60.852 -56.697  1.00  0.00     0.086 C 
HETATM   17  C   UNL     1     -45.900  59.371 -56.336  1.00  0.00     0.027 C 
HETATM   18  C   UNL     1     -45.197  59.099 -55.007  1.00  0.00     0.022 C 
BRANCH  16  19
HETATM   19  N   UNL     1     -47.358  61.414 -56.305  1.00  0.00    -0.339 N 
HETATM   20  C   UNL     1     -48.553  61.234 -56.949  1.00  0.00     0.317 C 
HETATM   21  N   UNL     1     -49.563  61.843 -56.240  1.00  0.00    -0.335 N 
HETATM   22  O   UNL     1     -48.708  60.606 -57.981  1.00  0.00    -0.247 OA
HETATM   23  H   UNL     1     -49.364  61.891 -55.251  1.00  0.00     0.165 HD
HETATM   24  H   UNL     1     -47.315  62.269 -55.771  1.00  0.00     0.164 HD
BRANCH  21  25
HETATM   25  C   UNL     1     -50.990  61.744 -56.591  1.00  0.00     0.023 C 
HETATM   26  C   UNL     1     -51.859  62.452 -55.539  1.00  0.00     0.037 C 
HETATM   27  C   UNL     1     -51.187  62.449 -57.946  1.00  0.00     0.037 C 
HETATM   28  C   UNL     1     -51.432  60.280 -56.745  1.00  0.00     0.037 C 
ENDBRANCH  21  25
ENDBRANCH  16  19
ENDBRANCH  11  13
ENDBRANCH   5  11
BRANCH   1  29
HETATM   29  C   UNL     1     -43.363  55.406 -58.319  1.00  0.00     0.076 C 
HETATM   30  C   UNL     1     -42.892  56.075 -59.600  1.00  0.00     0.013 C 
ENDBRANCH   1  29
BRANCH   7  31
HETATM   31  C   UNL     1     -40.676  54.282 -53.659  1.00  0.00     0.060 A 
HETATM   32  C   UNL     1     -40.613  53.874 -52.323  1.00  0.00     0.032 A 
HETATM   33  C   UNL     1     -40.237  52.564 -51.999  1.00  0.00     0.009 A 
HETATM   34  C   UNL     1     -39.927  51.640 -53.002  1.00  0.00    -0.062 A 
HETATM   35  C   UNL     1     -39.484  50.249 -52.658  1.00  0.00     0.048 C 
HETATM   36  C   UNL     1     -39.983  52.047 -54.338  1.00  0.00     0.009 A 
HETATM   37  C   UNL     1     -40.359  53.353 -54.664  1.00  0.00     0.032 A 
ENDBRANCH   7  31
TORSDOF 6
ENDMDL
