MODEL 1
REMARK VINA RESULT:      -7.9      0.000      0.000
REMARK  4 active torsions:
REMARK  status: ('A' for Active; 'I' for Inactive)
REMARK    1  A    between atoms: O_2  and  C_3 
REMARK    2  A    between atoms: C_4  and  O_5 
REMARK    3  A    between atoms: C_6  and  C_7 
REMARK    4  A    between atoms: C_7  and  N_8 
ROOT
HETATM    1  N   UNL     1     -42.207  54.807 -54.814  1.00  0.00    -0.066 N 
HETATM    2  H   UNL     1     -42.230  53.856 -55.226  1.00  0.00     0.280 HD
HETATM    3  C   UNL     1     -43.278  54.769 -53.745  1.00  0.00     0.246 C 
HETATM    4  C   UNL     1     -43.812  56.162 -53.361  1.00  0.00     0.062 C 
HETATM    5  C   UNL     1     -44.295  56.886 -54.611  1.00  0.00     0.020 C 
HETATM    6  C   UNL     1     -43.088  57.094 -55.514  1.00  0.00     0.031 C 
HETATM    7  C   UNL     1     -42.087  58.014 -54.810  1.00  0.00     0.138 C 
HETATM    8  N   UNL     1     -41.905  57.796 -53.374  1.00  0.00    -0.317 N 
HETATM    9  C   UNL     1     -42.762  56.977 -52.634  1.00  0.00     0.020 A 
HETATM   10  C   UNL     1     -42.631  56.906 -51.297  1.00  0.00     0.026 A 
HETATM   11  C   UNL     1     -40.889  58.552 -52.769  1.00  0.00     0.247 A 
HETATM   12  O   UNL     1     -40.099  59.252 -53.393  1.00  0.00    -0.268 OA
HETATM   13  C   UNL     1     -40.770  58.441 -51.296  1.00  0.00     0.074 A 
HETATM   14  C   UNL     1     -41.610  57.656 -50.614  1.00  0.00     0.007 A 
HETATM   15  C   UNL     1     -42.492  55.749 -55.951  1.00  0.00     0.241 C 
ENDROOT
BRANCH   1  16
HETATM   16  C   UNL     1     -40.769  54.833 -54.327  1.00  0.00     0.276 C 
BRANCH  16  17
HETATM   17  C   UNL     1     -40.480  53.880 -53.199  1.00  0.00     0.005 A 
HETATM   18  C   UNL     1     -40.212  52.529 -53.439  1.00  0.00     0.107 A 
HETATM   19  C   UNL     1     -39.909  51.631 -52.405  1.00  0.00     0.103 A 
HETATM   20  C   UNL     1     -39.877  52.099 -51.094  1.00  0.00     0.058 A 
HETATM   21  C   UNL     1     -40.141  53.447 -50.838  1.00  0.00     0.014 A 
HETATM   22  C   UNL     1     -40.435  54.336 -51.876  1.00  0.00     0.030 A 
HETATM   23 BR   UNL     1     -40.105  54.085 -49.058  1.00  0.00    -0.051 Br
BRANCH  18  24
HETATM   24  O   UNL     1     -40.274  52.068 -54.735  1.00  0.00    -0.357 OA
HETATM   25  H   UNL     1     -40.650  51.160 -54.648  1.00  0.00     0.218 HD
ENDBRANCH  18  24
BRANCH  19  26
HETATM   26  O   UNL     1     -39.680  50.346 -52.817  1.00  0.00    -0.353 OA
HETATM   27  C   UNL     1     -39.613  49.351 -51.796  1.00  0.00     0.210 C 
ENDBRANCH  19  26
ENDBRANCH  16  17
ENDBRANCH   1  16
TORSDOF 4
ENDMDL
MODEL 2
REMARK VINA RESULT:      -7.4      1.976      2.283
REMARK  4 active torsions:
REMARK  status: ('A' for Active; 'I' for Inactive)
REMARK    1  A    between atoms: O_2  and  C_3 
REMARK    2  A    between atoms: C_4  and  O_5 
REMARK    3  A    between atoms: C_6  and  C_7 
REMARK    4  A    between atoms: C_7  and  N_8 
ROOT
HETATM    1  N   UNL     1     -42.392  55.020 -55.087  1.00  0.00    -0.066 N 
HETATM    2  H   UNL     1     -42.332  54.038 -55.415  1.00  0.00     0.280 HD
HETATM    3  C   UNL     1     -43.591  55.023 -54.162  1.00  0.00     0.246 C 
HETATM    4  C   UNL     1     -44.214  56.418 -53.968  1.00  0.00     0.062 C 
HETATM    5  C   UNL     1     -44.554  57.017 -55.327  1.00  0.00     0.020 C 
HETATM    6  C   UNL     1     -43.248  57.203 -56.086  1.00  0.00     0.031 C 
HETATM    7  C   UNL     1     -42.376  58.218 -55.342  1.00  0.00     0.138 C 
HETATM    8  N   UNL     1     -42.374  58.125 -53.881  1.00  0.00    -0.317 N 
HETATM    9  C   UNL     1     -43.293  57.333 -53.188  1.00  0.00     0.020 A 
HETATM   10  C   UNL     1     -43.334  57.376 -51.844  1.00  0.00     0.026 A 
HETATM   11  C   UNL     1     -41.469  58.970 -53.220  1.00  0.00     0.247 A 
HETATM   12  O   UNL     1     -40.628  59.650 -53.797  1.00  0.00    -0.268 OA
HETATM   13  C   UNL     1     -41.538  58.984 -51.739  1.00  0.00     0.074 A 
HETATM   14  C   UNL     1     -42.434  58.221 -51.104  1.00  0.00     0.007 A 
HETATM   15  C   UNL     1     -42.558  55.853 -56.327  1.00  0.00     0.241 C 
ENDROOT
BRANCH   1  16
HETATM   16  C   UNL     1     -41.031  55.146 -54.426  1.00  0.00     0.276 C 
BRANCH  16  17
HETATM   17  C   UNL     1     -40.609  53.933 -53.642  1.00  0.00     0.005 A 
HETATM   18  C   UNL     1     -40.495  53.971 -52.249  1.00  0.00     0.107 A 
HETATM   19  C   UNL     1     -40.135  52.843 -51.497  1.00  0.00     0.103 A 
HETATM   20  C   UNL     1     -39.878  51.646 -52.159  1.00  0.00     0.058 A 
HETATM   21  C   UNL     1     -39.990  51.591 -53.551  1.00  0.00     0.014 A 
HETATM   22  C   UNL     1     -40.357  52.718 -54.291  1.00  0.00     0.030 A 
HETATM   23 BR   UNL     1     -39.636  49.968 -54.454  1.00  0.00    -0.051 Br
BRANCH  18  24
HETATM   24  O   UNL     1     -40.721  55.166 -51.604  1.00  0.00    -0.357 OA
HETATM   25  H   UNL     1     -39.847  55.394 -51.208  1.00  0.00     0.218 HD
ENDBRANCH  18  24
BRANCH  19  26
HETATM   26  O   UNL     1     -40.062  53.059 -50.147  1.00  0.00    -0.353 OA
HETATM   27  C   UNL     1     -40.571  52.024 -49.307  1.00  0.00     0.210 C 
ENDBRANCH  19  26
ENDBRANCH  16  17
ENDBRANCH   1  16
TORSDOF 4
ENDMDL
MODEL 3
REMARK VINA RESULT:      -7.0      1.786      2.154
REMARK  4 active torsions:
REMARK  status: ('A' for Active; 'I' for Inactive)
REMARK    1  A    between atoms: O_2  and  C_3 
REMARK    2  A    between atoms: C_4  and  O_5 
REMARK    3  A    between atoms: C_6  and  C_7 
REMARK    4  A    between atoms: C_7  and  N_8 
ROOT
HETATM    1  N   UNL     1     -42.477  56.620 -55.612  1.00  0.00    -0.066 N 
HETATM    2  H   UNL     1     -42.074  55.832 -56.154  1.00  0.00     0.280 HD
HETATM    3  C   UNL     1     -43.775  56.063 -55.066  1.00  0.00     0.246 C 
HETATM    4  C   UNL     1     -44.800  57.150 -54.692  1.00  0.00     0.062 C 
HETATM    5  C   UNL     1     -45.041  58.058 -55.892  1.00  0.00     0.020 C 
HETATM    6  C   UNL     1     -43.728  58.759 -56.206  1.00  0.00     0.031 C 
HETATM    7  C   UNL     1     -43.341  59.654 -55.024  1.00  0.00     0.138 C 
HETATM    8  N   UNL     1     -43.584  59.104 -53.689  1.00  0.00    -0.317 N 
HETATM    9  C   UNL     1     -44.346  57.950 -53.489  1.00  0.00     0.020 A 
HETATM   10  C   UNL     1     -44.645  57.554 -52.239  1.00  0.00     0.026 A 
HETATM   11  C   UNL     1     -43.101  59.875 -52.619  1.00  0.00     0.247 A 
HETATM   12  O   UNL     1     -42.401  60.872 -52.760  1.00  0.00    -0.268 OA
HETATM   13  C   UNL     1     -43.445  59.402 -51.256  1.00  0.00     0.074 A 
HETATM   14  C   UNL     1     -44.183  58.299 -51.097  1.00  0.00     0.007 A 
HETATM   15  C   UNL     1     -42.644  57.745 -56.595  1.00  0.00     0.241 C 
ENDROOT
BRANCH   1  16
HETATM   16  C   UNL     1     -41.357  56.829 -54.607  1.00  0.00     0.276 C 
BRANCH  16  17
HETATM   17  C   UNL     1     -41.120  55.658 -53.692  1.00  0.00     0.005 A 
HETATM   18  C   UNL     1     -40.638  54.440 -54.179  1.00  0.00     0.107 A 
HETATM   19  C   UNL     1     -40.380  53.347 -53.339  1.00  0.00     0.103 A 
HETATM   20  C   UNL     1     -40.615  53.478 -51.973  1.00  0.00     0.058 A 
HETATM   21  C   UNL     1     -41.095  54.689 -51.470  1.00  0.00     0.014 A 
HETATM   22  C   UNL     1     -41.342  55.776 -52.315  1.00  0.00     0.030 A 
HETATM   23 BR   UNL     1     -41.421  54.868 -49.616  1.00  0.00    -0.051 Br
BRANCH  18  24
HETATM   24  O   UNL     1     -40.437  54.309 -55.535  1.00  0.00    -0.357 OA
HETATM   25  H   UNL     1     -40.381  53.335 -55.677  1.00  0.00     0.218 HD
ENDBRANCH  18  24
BRANCH  19  26
HETATM   26  O   UNL     1     -39.919  52.231 -53.983  1.00  0.00    -0.353 OA
HETATM   27  C   UNL     1     -39.570  51.118 -53.161  1.00  0.00     0.210 C 
ENDBRANCH  19  26
ENDBRANCH  16  17
ENDBRANCH   1  16
TORSDOF 4
ENDMDL
MODEL 4
REMARK VINA RESULT:      -6.9      3.006      6.757
REMARK  4 active torsions:
REMARK  status: ('A' for Active; 'I' for Inactive)
REMARK    1  A    between atoms: O_2  and  C_3 
REMARK    2  A    between atoms: C_4  and  O_5 
REMARK    3  A    between atoms: C_6  and  C_7 
REMARK    4  A    between atoms: C_7  and  N_8 
ROOT
HETATM    1  N   UNL     1     -41.627  56.575 -50.609  1.00  0.00    -0.066 N 
HETATM    2  H   UNL     1     -41.616  57.164 -49.755  1.00  0.00     0.280 HD
HETATM    3  C   UNL     1     -43.100  56.399 -50.912  1.00  0.00     0.246 C 
HETATM    4  C   UNL     1     -43.405  55.163 -51.779  1.00  0.00     0.062 C 
HETATM    5  C   UNL     1     -42.817  53.921 -51.121  1.00  0.00     0.020 C 
HETATM    6  C   UNL     1     -41.305  54.093 -51.088  1.00  0.00     0.031 C 
HETATM    7  C   UNL     1     -40.775  54.145 -52.523  1.00  0.00     0.138 C 
HETATM    8  N   UNL     1     -41.583  54.897 -53.486  1.00  0.00    -0.317 N 
HETATM    9  C   UNL     1     -42.878  55.331 -53.189  1.00  0.00     0.020 A 
HETATM   10  C   UNL     1     -43.627  55.907 -54.146  1.00  0.00     0.026 A 
HETATM   11  C   UNL     1     -41.018  55.052 -54.762  1.00  0.00     0.247 A 
HETATM   12  O   UNL     1     -39.874  54.715 -55.045  1.00  0.00    -0.268 OA
HETATM   13  C   UNL     1     -41.871  55.699 -55.788  1.00  0.00     0.074 A 
HETATM   14  C   UNL     1     -43.109  56.096 -55.476  1.00  0.00     0.007 A 
HETATM   15  C   UNL     1     -40.910  55.307 -50.237  1.00  0.00     0.241 C 
ENDROOT
BRANCH   1  16
HETATM   16  C   UNL     1     -40.849  57.482 -51.547  1.00  0.00     0.276 C 
BRANCH  16  17
HETATM   17  C   UNL     1     -41.574  58.743 -51.931  1.00  0.00     0.005 A 
HETATM   18  C   UNL     1     -41.903  59.712 -50.979  1.00  0.00     0.107 A 
HETATM   19  C   UNL     1     -42.549  60.908 -51.322  1.00  0.00     0.103 A 
HETATM   20  C   UNL     1     -42.878  61.138 -52.655  1.00  0.00     0.058 A 
HETATM   21  C   UNL     1     -42.555  60.180 -53.619  1.00  0.00     0.014 A 
HETATM   22  C   UNL     1     -41.903  58.994 -53.269  1.00  0.00     0.030 A 
HETATM   23 BR   UNL     1     -43.006  60.487 -55.430  1.00  0.00    -0.051 Br
BRANCH  18  24
HETATM   24  O   UNL     1     -41.601  59.464 -49.659  1.00  0.00    -0.357 OA
HETATM   25  H   UNL     1     -40.627  59.604 -49.605  1.00  0.00     0.218 HD
ENDBRANCH  18  24
BRANCH  19  26
HETATM   26  O   UNL     1     -42.803  61.741 -50.265  1.00  0.00    -0.353 OA
HETATM   27  C   UNL     1     -44.174  61.953 -49.934  1.00  0.00     0.210 C 
ENDBRANCH  19  26
ENDBRANCH  16  17
ENDBRANCH   1  16
TORSDOF 4
ENDMDL
MODEL 5
REMARK VINA RESULT:      -6.7      3.650      5.919
REMARK  4 active torsions:
REMARK  status: ('A' for Active; 'I' for Inactive)
REMARK    1  A    between atoms: O_2  and  C_3 
REMARK    2  A    between atoms: C_4  and  O_5 
REMARK    3  A    between atoms: C_6  and  C_7 
REMARK    4  A    between atoms: C_7  and  N_8 
ROOT
HETATM    1  N   UNL     1     -42.255  55.310 -54.146  1.00  0.00    -0.066 N 
HETATM    2  H   UNL     1     -41.958  54.844 -55.024  1.00  0.00     0.280 HD
HETATM    3  C   UNL     1     -40.984  55.946 -53.622  1.00  0.00     0.246 C 
HETATM    4  C   UNL     1     -41.020  56.231 -52.109  1.00  0.00     0.062 C 
HETATM    5  C   UNL     1     -41.355  54.949 -51.356  1.00  0.00     0.020 C 
HETATM    6  C   UNL     1     -42.756  54.527 -51.773  1.00  0.00     0.031 C 
HETATM    7  C   UNL     1     -43.757  55.596 -51.325  1.00  0.00     0.138 C 
HETATM    8  N   UNL     1     -43.329  56.989 -51.477  1.00  0.00    -0.317 N 
HETATM    9  C   UNL     1     -42.007  57.330 -51.774  1.00  0.00     0.020 A 
HETATM   10  C   UNL     1     -41.635  58.623 -51.781  1.00  0.00     0.026 A 
HETATM   11  C   UNL     1     -44.304  57.957 -51.192  1.00  0.00     0.247 A 
HETATM   12  O   UNL     1     -45.479  57.693 -50.962  1.00  0.00    -0.268 OA
HETATM   13  C   UNL     1     -43.858  59.371 -51.217  1.00  0.00     0.074 A 
HETATM   14  C   UNL     1     -42.584  59.666 -51.496  1.00  0.00     0.007 A 
HETATM   15  C   UNL     1     -42.812  54.219 -53.276  1.00  0.00     0.241 C 
ENDROOT
BRANCH   1  16
HETATM   16  C   UNL     1     -43.300  56.256 -54.709  1.00  0.00     0.276 C 
BRANCH  16  17
HETATM   17  C   UNL     1     -43.012  56.739 -56.104  1.00  0.00     0.005 A 
HETATM   18  C   UNL     1     -43.203  55.912 -57.215  1.00  0.00     0.107 A 
HETATM   19  C   UNL     1     -42.971  56.354 -58.525  1.00  0.00     0.103 A 
HETATM   20  C   UNL     1     -42.532  57.659 -58.728  1.00  0.00     0.058 A 
HETATM   21  C   UNL     1     -42.338  58.499 -57.629  1.00  0.00     0.014 A 
HETATM   22  C   UNL     1     -42.579  58.052 -56.327  1.00  0.00     0.030 A 
HETATM   23 BR   UNL     1     -41.735  60.270 -57.902  1.00  0.00    -0.051 Br
BRANCH  18  24
HETATM   24  O   UNL     1     -43.609  54.614 -57.003  1.00  0.00    -0.357 OA
HETATM   25  H   UNL     1     -42.782  54.086 -57.095  1.00  0.00     0.218 HD
ENDBRANCH  18  24
BRANCH  19  26
HETATM   26  O   UNL     1     -43.201  55.411 -59.491  1.00  0.00    -0.353 OA
HETATM   27  C   UNL     1     -44.336  55.622 -60.330  1.00  0.00     0.210 C 
ENDBRANCH  19  26
ENDBRANCH  16  17
ENDBRANCH   1  16
TORSDOF 4
ENDMDL
MODEL 6
REMARK VINA RESULT:      -6.7      2.866      6.421
REMARK  4 active torsions:
REMARK  status: ('A' for Active; 'I' for Inactive)
REMARK    1  A    between atoms: O_2  and  C_3 
REMARK    2  A    between atoms: C_4  and  O_5 
REMARK    3  A    between atoms: C_6  and  C_7 
REMARK    4  A    between atoms: C_7  and  N_8 
ROOT
HETATM    1  N   UNL     1     -41.367  56.590 -54.360  1.00  0.00    -0.066 N 
HETATM    2  H   UNL     1     -41.035  57.343 -54.991  1.00  0.00     0.280 HD
HETATM    3  C   UNL     1     -40.413  55.444 -54.624  1.00  0.00     0.246 C 
HETATM    4  C   UNL     1     -40.985  54.068 -54.236  1.00  0.00     0.062 C 
HETATM    5  C   UNL     1     -42.321  53.855 -54.936  1.00  0.00     0.020 C 
HETATM    6  C   UNL     1     -43.284  54.912 -54.414  1.00  0.00     0.031 C 
HETATM    7  C   UNL     1     -43.511  54.689 -52.916  1.00  0.00     0.138 C 
HETATM    8  N   UNL     1     -42.333  54.310 -52.132  1.00  0.00    -0.317 N 
HETATM    9  C   UNL     1     -41.131  53.931 -52.735  1.00  0.00     0.020 A 
HETATM   10  C   UNL     1     -40.118  53.473 -51.978  1.00  0.00     0.026 A 
HETATM   11  C   UNL     1     -42.526  54.242 -50.743  1.00  0.00     0.247 A 
HETATM   12  O   UNL     1     -43.555  54.600 -50.181  1.00  0.00    -0.268 OA
HETATM   13  C   UNL     1     -41.385  53.740 -49.941  1.00  0.00     0.074 A 
HETATM   14  C   UNL     1     -40.250  53.376 -50.548  1.00  0.00     0.007 A 
HETATM   15  C   UNL     1     -42.791  56.323 -54.762  1.00  0.00     0.241 C 
ENDROOT
BRANCH   1  16
HETATM   16  C   UNL     1     -41.217  57.299 -53.026  1.00  0.00     0.276 C 
BRANCH  16  17
HETATM   17  C   UNL     1     -42.185  58.430 -52.813  1.00  0.00     0.005 A 
HETATM   18  C   UNL     1     -42.055  59.639 -53.503  1.00  0.00     0.107 A 
HETATM   19  C   UNL     1     -42.966  60.693 -53.344  1.00  0.00     0.103 A 
HETATM   20  C   UNL     1     -44.034  60.534 -52.465  1.00  0.00     0.058 A 
HETATM   21  C   UNL     1     -44.179  59.332 -51.769  1.00  0.00     0.014 A 
HETATM   22  C   UNL     1     -43.270  58.283 -51.940  1.00  0.00     0.030 A 
HETATM   23 BR   UNL     1     -45.625  59.114 -50.570  1.00  0.00    -0.051 Br
BRANCH  18  24
HETATM   24  O   UNL     1     -40.980  59.800 -54.348  1.00  0.00    -0.357 OA
HETATM   25  H   UNL     1     -41.118  59.117 -55.045  1.00  0.00     0.218 HD
ENDBRANCH  18  24
BRANCH  19  26
HETATM   26  O   UNL     1     -42.684  61.806 -54.090  1.00  0.00    -0.353 OA
HETATM   27  C   UNL     1     -43.287  63.028 -53.667  1.00  0.00     0.210 C 
ENDBRANCH  19  26
ENDBRANCH  16  17
ENDBRANCH   1  16
TORSDOF 4
ENDMDL
MODEL 7
REMARK VINA RESULT:      -6.7      4.595      7.620
REMARK  4 active torsions:
REMARK  status: ('A' for Active; 'I' for Inactive)
REMARK    1  A    between atoms: O_2  and  C_3 
REMARK    2  A    between atoms: C_4  and  O_5 
REMARK    3  A    between atoms: C_6  and  C_7 
REMARK    4  A    between atoms: C_7  and  N_8 
ROOT
HETATM    1  N   UNL     1     -42.898  60.281 -58.248  1.00  0.00    -0.066 N 
HETATM    2  H   UNL     1     -42.456  60.943 -57.583  1.00  0.00     0.280 HD
HETATM    3  C   UNL     1     -41.730  59.524 -58.842  1.00  0.00     0.246 C 
HETATM    4  C   UNL     1     -42.045  58.882 -60.206  1.00  0.00     0.062 C 
HETATM    5  C   UNL     1     -42.566  59.948 -61.163  1.00  0.00     0.020 C 
HETATM    6  C   UNL     1     -43.876  60.472 -60.593  1.00  0.00     0.031 C 
HETATM    7  C   UNL     1     -44.903  59.337 -60.568  1.00  0.00     0.138 C 
HETATM    8  N   UNL     1     -44.402  58.018 -60.174  1.00  0.00    -0.317 N 
HETATM    9  C   UNL     1     -43.036  57.745 -60.069  1.00  0.00     0.020 A 
HETATM   10  C   UNL     1     -42.621  56.489 -59.827  1.00  0.00     0.026 A 
HETATM   11  C   UNL     1     -45.377  57.020 -60.024  1.00  0.00     0.247 A 
HETATM   12  O   UNL     1     -46.583  57.233 -60.075  1.00  0.00    -0.268 OA
HETATM   13  C   UNL     1     -44.882  55.649 -59.749  1.00  0.00     0.074 A 
HETATM   14  C   UNL     1     -43.568  55.417 -59.663  1.00  0.00     0.007 A 
HETATM   15  C   UNL     1     -43.653  61.136 -59.228  1.00  0.00     0.241 C 
ENDROOT
BRANCH   1  16
HETATM   16  C   UNL     1     -43.780  59.510 -57.282  1.00  0.00     0.276 C 
BRANCH  16  17
HETATM   17  C   UNL     1     -43.024  58.694 -56.270  1.00  0.00     0.005 A 
HETATM   18  C   UNL     1     -42.132  59.290 -55.373  1.00  0.00     0.107 A 
HETATM   19  C   UNL     1     -41.442  58.551 -54.402  1.00  0.00     0.103 A 
HETATM   20  C   UNL     1     -41.648  57.176 -54.328  1.00  0.00     0.058 A 
HETATM   21  C   UNL     1     -42.537  56.565 -55.215  1.00  0.00     0.014 A 
HETATM   22  C   UNL     1     -43.227  57.311 -56.176  1.00  0.00     0.030 A 
HETATM   23 BR   UNL     1     -42.815  54.697 -55.122  1.00  0.00    -0.051 Br
BRANCH  18  24
HETATM   24  O   UNL     1     -41.911  60.645 -55.472  1.00  0.00    -0.357 OA
HETATM   25  H   UNL     1     -42.176  60.997 -54.590  1.00  0.00     0.218 HD
ENDBRANCH  18  24
BRANCH  19  26
HETATM   26  O   UNL     1     -40.603  59.293 -53.613  1.00  0.00    -0.353 OA
HETATM   27  C   UNL     1     -40.472  58.878 -52.254  1.00  0.00     0.210 C 
ENDBRANCH  19  26
ENDBRANCH  16  17
ENDBRANCH   1  16
TORSDOF 4
ENDMDL
MODEL 8
REMARK VINA RESULT:      -6.6      3.219      6.188
REMARK  4 active torsions:
REMARK  status: ('A' for Active; 'I' for Inactive)
REMARK    1  A    between atoms: O_2  and  C_3 
REMARK    2  A    between atoms: C_4  and  O_5 
REMARK    3  A    between atoms: C_6  and  C_7 
REMARK    4  A    between atoms: C_7  and  N_8 
ROOT
HETATM    1  N   UNL     1     -41.157  55.959 -54.608  1.00  0.00    -0.066 N 
HETATM    2  H   UNL     1     -40.830  56.589 -55.365  1.00  0.00     0.280 HD
HETATM    3  C   UNL     1     -40.224  54.769 -54.694  1.00  0.00     0.246 C 
HETATM    4  C   UNL     1     -40.804  53.488 -54.067  1.00  0.00     0.062 C 
HETATM    5  C   UNL     1     -42.159  53.182 -54.692  1.00  0.00     0.020 C 
HETATM    6  C   UNL     1     -43.096  54.328 -54.336  1.00  0.00     0.031 C 
HETATM    7  C   UNL     1     -43.289  54.365 -52.818  1.00  0.00     0.138 C 
HETATM    8  N   UNL     1     -42.098  54.105 -52.006  1.00  0.00    -0.317 N 
HETATM    9  C   UNL     1     -40.916  53.609 -52.562  1.00  0.00     0.020 A 
HETATM   10  C   UNL     1     -39.891  53.269 -51.760  1.00  0.00     0.026 A 
HETATM   11  C   UNL     1     -42.259  54.275 -50.622  1.00  0.00     0.247 A 
HETATM   12  O   UNL     1     -43.269  54.740 -50.106  1.00  0.00    -0.268 OA
HETATM   13  C   UNL     1     -41.105  53.897 -49.771  1.00  0.00     0.074 A 
HETATM   14  C   UNL     1     -39.989  53.417 -50.331  1.00  0.00     0.007 A 
HETATM   15  C   UNL     1     -42.593  55.651 -54.928  1.00  0.00     0.241 C 
ENDROOT
BRANCH   1  16
HETATM   16  C   UNL     1     -40.965  56.881 -53.416  1.00  0.00     0.276 C 
BRANCH  16  17
HETATM   17  C   UNL     1     -41.890  58.067 -53.396  1.00  0.00     0.005 A 
HETATM   18  C   UNL     1     -42.672  58.361 -52.276  1.00  0.00     0.107 A 
HETATM   19  C   UNL     1     -43.516  59.479 -52.225  1.00  0.00     0.103 A 
HETATM   20  C   UNL     1     -43.581  60.325 -53.329  1.00  0.00     0.058 A 
HETATM   21  C   UNL     1     -42.804  60.046 -54.456  1.00  0.00     0.014 A 
HETATM   22  C   UNL     1     -41.960  58.933 -54.494  1.00  0.00     0.030 A 
HETATM   23 BR   UNL     1     -42.895  61.190 -55.959  1.00  0.00    -0.051 Br
BRANCH  18  24
HETATM   24  O   UNL     1     -42.625  57.503 -51.199  1.00  0.00    -0.357 OA
HETATM   25  H   UNL     1     -41.992  57.932 -50.578  1.00  0.00     0.218 HD
ENDBRANCH  18  24
BRANCH  19  26
HETATM   26  O   UNL     1     -44.216  59.611 -51.055  1.00  0.00    -0.353 OA
HETATM   27  C   UNL     1     -45.609  59.310 -51.107  1.00  0.00     0.210 C 
ENDBRANCH  19  26
ENDBRANCH  16  17
ENDBRANCH   1  16
TORSDOF 4
ENDMDL
MODEL 9
REMARK VINA RESULT:      -6.6     14.764     16.590
REMARK  4 active torsions:
REMARK  status: ('A' for Active; 'I' for Inactive)
REMARK    1  A    between atoms: O_2  and  C_3 
REMARK    2  A    between atoms: C_4  and  O_5 
REMARK    3  A    between atoms: C_6  and  C_7 
REMARK    4  A    between atoms: C_7  and  N_8 
ROOT
HETATM    1  N   UNL     1     -37.335  41.098 -55.003  1.00  0.00    -0.066 N 
HETATM    2  H   UNL     1     -37.928  41.446 -54.226  1.00  0.00     0.280 HD
HETATM    3  C   UNL     1     -36.329  42.208 -55.221  1.00  0.00     0.246 C 
HETATM    4  C   UNL     1     -35.694  42.195 -56.624  1.00  0.00     0.062 C 
HETATM    5  C   UNL     1     -36.791  42.221 -57.680  1.00  0.00     0.020 C 
HETATM    6  C   UNL     1     -37.598  40.939 -57.533  1.00  0.00     0.031 C 
HETATM    7  C   UNL     1     -36.695  39.740 -57.839  1.00  0.00     0.138 C 
HETATM    8  N   UNL     1     -35.325  39.814 -57.328  1.00  0.00    -0.317 N 
HETATM    9  C   UNL     1     -34.788  40.996 -56.812  1.00  0.00     0.020 A 
HETATM   10  C   UNL     1     -33.488  41.047 -56.470  1.00  0.00     0.026 A 
HETATM   11  C   UNL     1     -34.552  38.654 -57.497  1.00  0.00     0.247 A 
HETATM   12  O   UNL     1     -35.001  37.592 -57.914  1.00  0.00    -0.268 OA
HETATM   13  C   UNL     1     -33.126  38.747 -57.101  1.00  0.00     0.074 A 
HETATM   14  C   UNL     1     -32.639  39.895 -56.619  1.00  0.00     0.007 A 
HETATM   15  C   UNL     1     -38.272  40.870 -56.157  1.00  0.00     0.241 C 
ENDROOT
BRANCH   1  16
HETATM   16  C   UNL     1     -36.808  39.825 -54.365  1.00  0.00     0.276 C 
BRANCH  16  17
HETATM   17  C   UNL     1     -36.062  40.041 -53.077  1.00  0.00     0.005 A 
HETATM   18  C   UNL     1     -36.730  40.108 -51.851  1.00  0.00     0.107 A 
HETATM   19  C   UNL     1     -36.050  40.277 -50.636  1.00  0.00     0.103 A 
HETATM   20  C   UNL     1     -34.663  40.386 -50.651  1.00  0.00     0.058 A 
HETATM   21  C   UNL     1     -33.979  40.319 -51.867  1.00  0.00     0.014 A 
HETATM   22  C   UNL     1     -34.665  40.143 -53.073  1.00  0.00     0.030 A 
HETATM   23 BR   UNL     1     -32.095  40.473 -51.891  1.00  0.00    -0.051 Br
BRANCH  18  24
HETATM   24  O   UNL     1     -38.105  40.029 -51.848  1.00  0.00    -0.357 OA
HETATM   25  H   UNL     1     -38.290  39.063 -51.905  1.00  0.00     0.218 HD
ENDBRANCH  18  24
BRANCH  19  26
HETATM   26  O   UNL     1     -36.860  40.328 -49.534  1.00  0.00    -0.353 OA
HETATM   27  C   UNL     1     -36.866  39.176 -48.692  1.00  0.00     0.210 C 
ENDBRANCH  19  26
ENDBRANCH  16  17
ENDBRANCH   1  16
TORSDOF 4
ENDMDL
MODEL 10
REMARK VINA RESULT:      -6.6      4.442      7.734
REMARK  4 active torsions:
REMARK  status: ('A' for Active; 'I' for Inactive)
REMARK    1  A    between atoms: O_2  and  C_3 
REMARK    2  A    between atoms: C_4  and  O_5 
REMARK    3  A    between atoms: C_6  and  C_7 
REMARK    4  A    between atoms: C_7  and  N_8 
ROOT
HETATM    1  N   UNL     1     -43.188  58.302 -50.911  1.00  0.00    -0.066 N 
HETATM    2  H   UNL     1     -43.540  58.388 -49.939  1.00  0.00     0.280 HD
HETATM    3  C   UNL     1     -43.735  56.972 -51.382  1.00  0.00     0.246 C 
HETATM    4  C   UNL     1     -42.945  56.364 -52.556  1.00  0.00     0.062 C 
HETATM    5  C   UNL     1     -41.472  56.261 -52.180  1.00  0.00     0.020 C 
HETATM    6  C   UNL     1     -40.955  57.676 -51.967  1.00  0.00     0.031 C 
HETATM    7  C   UNL     1     -41.038  58.445 -53.288  1.00  0.00     0.138 C 
HETATM    8  N   UNL     1     -42.233  58.211 -54.101  1.00  0.00    -0.317 N 
HETATM    9  C   UNL     1     -43.126  57.172 -53.824  1.00  0.00     0.020 A 
HETATM   10  C   UNL     1     -44.141  56.918 -54.670  1.00  0.00     0.026 A 
HETATM   11  C   UNL     1     -42.361  59.021 -55.239  1.00  0.00     0.247 A 
HETATM   12  O   UNL     1     -41.616  59.962 -55.492  1.00  0.00    -0.268 OA
HETATM   13  C   UNL     1     -43.496  58.717 -56.143  1.00  0.00     0.074 A 
HETATM   14  C   UNL     1     -44.329  57.711 -55.856  1.00  0.00     0.007 A 
HETATM   15  C   UNL     1     -41.689  58.359 -50.806  1.00  0.00     0.241 C 
ENDROOT
BRANCH   1  16
HETATM   16  C   UNL     1     -43.820  59.544 -51.515  1.00  0.00     0.276 C 
BRANCH  16  17
HETATM   17  C   UNL     1     -44.193  60.600 -50.511  1.00  0.00     0.005 A 
HETATM   18  C   UNL     1     -45.164  60.363 -49.533  1.00  0.00     0.107 A 
HETATM   19  C   UNL     1     -45.503  61.323 -48.568  1.00  0.00     0.103 A 
HETATM   20  C   UNL     1     -44.855  62.555 -48.586  1.00  0.00     0.058 A 
HETATM   21  C   UNL     1     -43.882  62.806 -49.556  1.00  0.00     0.014 A 
HETATM   22  C   UNL     1     -43.544  61.841 -50.510  1.00  0.00     0.030 A 
HETATM   23 BR   UNL     1     -43.004  64.481 -49.587  1.00  0.00    -0.051 Br
BRANCH  18  24
HETATM   24  O   UNL     1     -45.821  59.153 -49.540  1.00  0.00    -0.357 OA
HETATM   25  H   UNL     1     -45.511  58.707 -48.718  1.00  0.00     0.218 HD
ENDBRANCH  18  24
BRANCH  19  26
HETATM   26  O   UNL     1     -46.478  60.928 -47.692  1.00  0.00    -0.353 OA
HETATM   27  C   UNL     1     -46.366  61.409 -46.354  1.00  0.00     0.210 C 
ENDBRANCH  19  26
ENDBRANCH  16  17
ENDBRANCH   1  16
TORSDOF 4
ENDMDL
