MODEL 1
REMARK VINA RESULT:      -8.3      0.000      0.000
REMARK  6 active torsions:
REMARK  status: ('A' for Active; 'I' for Inactive)
REMARK    1  A    between atoms: C_2  and  N_3 
REMARK       I    between atoms: N_3  and  C_4 
REMARK    2  A    between atoms: C_4  and  C_5 
REMARK    3  A    between atoms: C_5  and  O_6 
REMARK    4  A    between atoms: O_6  and  C_7 
REMARK    5  A    between atoms: C_10  and  N_11 
REMARK       I    between atoms: N_11  and  C_12 
REMARK    6  A    between atoms: C_12  and  C_13 
ROOT
HETATM    1  N   UNL     1     -42.223  54.512 -53.308  1.00  0.00    -0.322 N 
HETATM    2  C   UNL     1     -41.296  54.913 -52.363  1.00  0.00     0.277 C 
HETATM    3  O   UNL     1     -40.855  56.048 -52.215  1.00  0.00    -0.266 OA
HETATM    4  H   UNL     1     -42.471  53.528 -53.233  1.00  0.00     0.169 HD
ENDROOT
BRANCH   1   5
HETATM    5  C   UNL     1     -42.742  55.248 -54.384  1.00  0.00     0.035 A 
HETATM    6  C   UNL     1     -43.591  56.348 -54.232  1.00  0.00     0.032 A 
HETATM    7  C   UNL     1     -44.003  57.086 -55.346  1.00  0.00     0.039 A 
HETATM    8  C   UNL     1     -43.557  56.726 -56.614  1.00  0.00     0.069 A 
HETATM    9  C   UNL     1     -42.755  55.603 -56.789  1.00  0.00     0.039 A 
HETATM   10  C   UNL     1     -42.343  54.870 -55.673  1.00  0.00     0.032 A 
BRANCH   8  11
HETATM   11  O   UNL     1     -43.938  57.449 -57.710  1.00  0.00    -0.342 OA
BRANCH  11  12
HETATM   12  C   UNL     1     -43.385  56.883 -58.904  1.00  0.00     0.278 C 
BRANCH  12  13
HETATM   13  C   UNL     1     -44.452  56.380 -59.877  1.00  0.00     0.241 C 
HETATM   14  N   UNL     1     -45.743  56.475 -59.396  1.00  0.00    -0.360 N 
HETATM   15  H   UNL     1     -45.868  57.074 -58.585  1.00  0.00     0.162 HD
HETATM   16  O   UNL     1     -44.170  55.896 -60.970  1.00  0.00    -0.271 OA
BRANCH  14  17
HETATM   17  C   UNL     1     -46.878  56.188 -60.246  1.00  0.00     0.118 C 
HETATM   18  C   UNL     1     -47.372  57.436 -60.949  1.00  0.00     0.026 C 
ENDBRANCH  14  17
ENDBRANCH  12  13
ENDBRANCH  11  12
ENDBRANCH   8  11
ENDBRANCH   1   5
BRANCH   2  19
HETATM   19  C   UNL     1     -40.841  53.782 -51.532  1.00  0.00     0.157 A 
HETATM   20  N   UNL     1     -40.868  53.843 -50.182  1.00  0.00    -0.168 NA
HETATM   21  N   UNL     1     -40.431  52.628 -49.800  1.00  0.00    -0.277 N 
HETATM   22  H   UNL     1     -40.366  52.429 -48.808  1.00  0.00     0.189 HD
HETATM   23  C   UNL     1     -40.140  51.780 -50.832  1.00  0.00     0.063 A 
HETATM   24  C   UNL     1     -40.382  52.512 -51.987  1.00  0.00     0.029 A 
HETATM   25  C   UNL     1     -39.705  50.452 -50.848  1.00  0.00     0.032 A 
HETATM   26  C   UNL     1     -40.173  51.896 -53.237  1.00  0.00     0.023 A 
HETATM   27  C   UNL     1     -39.725  50.566 -53.289  1.00  0.00    -0.061 A 
HETATM   28  C   UNL     1     -39.510  49.858 -52.101  1.00  0.00     0.009 A 
HETATM   29  C   UNL     1     -39.544  49.896 -54.622  1.00  0.00     0.048 C 
ENDBRANCH   2  19
TORSDOF 6
ENDMDL
MODEL 2
REMARK VINA RESULT:      -8.1      1.761      2.541
REMARK  6 active torsions:
REMARK  status: ('A' for Active; 'I' for Inactive)
REMARK    1  A    between atoms: C_2  and  N_3 
REMARK       I    between atoms: N_3  and  C_4 
REMARK    2  A    between atoms: C_4  and  C_5 
REMARK    3  A    between atoms: C_5  and  O_6 
REMARK    4  A    between atoms: O_6  and  C_7 
REMARK    5  A    between atoms: C_10  and  N_11 
REMARK       I    between atoms: N_11  and  C_12 
REMARK    6  A    between atoms: C_12  and  C_13 
ROOT
HETATM    1  N   UNL     1     -42.016  55.533 -55.550  1.00  0.00    -0.322 N 
HETATM    2  C   UNL     1     -42.749  54.981 -54.515  1.00  0.00     0.277 C 
HETATM    3  O   UNL     1     -43.968  54.853 -54.476  1.00  0.00    -0.266 OA
HETATM    4  H   UNL     1     -41.012  55.512 -55.385  1.00  0.00     0.169 HD
ENDROOT
BRANCH   1   5
HETATM    5  C   UNL     1     -42.489  56.197 -56.693  1.00  0.00     0.035 A 
HETATM    6  C   UNL     1     -42.991  55.538 -57.818  1.00  0.00     0.032 A 
HETATM    7  C   UNL     1     -43.523  56.266 -58.887  1.00  0.00     0.039 A 
HETATM    8  C   UNL     1     -43.559  57.655 -58.825  1.00  0.00     0.069 A 
HETATM    9  C   UNL     1     -43.016  58.329 -57.736  1.00  0.00     0.039 A 
HETATM   10  C   UNL     1     -42.488  57.598 -56.668  1.00  0.00     0.032 A 
BRANCH   8  11
HETATM   11  O   UNL     1     -44.093  58.379 -59.855  1.00  0.00    -0.342 OA
BRANCH  11  12
HETATM   12  C   UNL     1     -45.390  58.875 -59.504  1.00  0.00     0.278 C 
BRANCH  12  13
HETATM   13  C   UNL     1     -46.498  57.840 -59.699  1.00  0.00     0.241 C 
HETATM   14  N   UNL     1     -46.794  57.573 -61.021  1.00  0.00    -0.360 N 
HETATM   15  H   UNL     1     -46.106  57.888 -61.699  1.00  0.00     0.162 HD
HETATM   16  O   UNL     1     -47.095  57.330 -58.754  1.00  0.00    -0.271 OA
BRANCH  14  17
HETATM   17  C   UNL     1     -47.707  56.509 -61.380  1.00  0.00     0.118 C 
HETATM   18  C   UNL     1     -48.597  56.911 -62.538  1.00  0.00     0.026 C 
ENDBRANCH  14  17
ENDBRANCH  12  13
ENDBRANCH  11  12
ENDBRANCH   8  11
ENDBRANCH   1   5
BRANCH   2  19
HETATM   19  C   UNL     1     -41.883  54.573 -53.392  1.00  0.00     0.157 A 
HETATM   20  N   UNL     1     -41.793  55.313 -52.264  1.00  0.00    -0.168 NA
HETATM   21  N   UNL     1     -40.963  54.601 -51.481  1.00  0.00    -0.277 N 
HETATM   22  H   UNL     1     -40.741  54.961 -50.560  1.00  0.00     0.189 HD
HETATM   23  C   UNL     1     -40.525  53.430 -52.035  1.00  0.00     0.063 A 
HETATM   24  C   UNL     1     -41.096  53.387 -53.300  1.00  0.00     0.029 A 
HETATM   25  C   UNL     1     -39.699  52.418 -51.537  1.00  0.00     0.032 A 
HETATM   26  C   UNL     1     -40.830  52.279 -54.128  1.00  0.00     0.023 A 
HETATM   27  C   UNL     1     -39.995  51.249 -53.663  1.00  0.00    -0.061 A 
HETATM   28  C   UNL     1     -39.454  51.323 -52.374  1.00  0.00     0.009 A 
HETATM   29  C   UNL     1     -39.747  50.048 -54.530  1.00  0.00     0.048 C 
ENDBRANCH   2  19
TORSDOF 6
ENDMDL
MODEL 3
REMARK VINA RESULT:      -7.9      1.888      2.671
REMARK  6 active torsions:
REMARK  status: ('A' for Active; 'I' for Inactive)
REMARK    1  A    between atoms: C_2  and  N_3 
REMARK       I    between atoms: N_3  and  C_4 
REMARK    2  A    between atoms: C_4  and  C_5 
REMARK    3  A    between atoms: C_5  and  O_6 
REMARK    4  A    between atoms: O_6  and  C_7 
REMARK    5  A    between atoms: C_10  and  N_11 
REMARK       I    between atoms: N_11  and  C_12 
REMARK    6  A    between atoms: C_12  and  C_13 
ROOT
HETATM    1  N   UNL     1     -42.291  56.609 -54.943  1.00  0.00    -0.322 N 
HETATM    2  C   UNL     1     -41.995  55.258 -54.985  1.00  0.00     0.277 C 
HETATM    3  O   UNL     1     -42.214  54.496 -55.921  1.00  0.00    -0.266 OA
HETATM    4  H   UNL     1     -41.995  57.056 -54.079  1.00  0.00     0.169 HD
ENDROOT
BRANCH   1   5
HETATM    5  C   UNL     1     -43.028  57.367 -55.866  1.00  0.00     0.035 A 
HETATM    6  C   UNL     1     -42.481  57.918 -57.028  1.00  0.00     0.032 A 
HETATM    7  C   UNL     1     -43.294  58.591 -57.945  1.00  0.00     0.039 A 
HETATM    8  C   UNL     1     -44.659  58.705 -57.702  1.00  0.00     0.069 A 
HETATM    9  C   UNL     1     -45.212  58.209 -56.525  1.00  0.00     0.039 A 
HETATM   10  C   UNL     1     -44.396  57.534 -55.613  1.00  0.00     0.032 A 
BRANCH   8  11
HETATM   11  O   UNL     1     -45.469  59.345 -58.598  1.00  0.00    -0.342 OA
BRANCH  11  12
HETATM   12  C   UNL     1     -45.237  58.858 -59.925  1.00  0.00     0.278 C 
BRANCH  12  13
HETATM   13  C   UNL     1     -45.756  57.436 -60.138  1.00  0.00     0.241 C 
HETATM   14  N   UNL     1     -44.862  56.600 -60.778  1.00  0.00    -0.360 N 
HETATM   15  H   UNL     1     -43.901  56.928 -60.814  1.00  0.00     0.162 HD
HETATM   16  O   UNL     1     -46.887  57.091 -59.805  1.00  0.00    -0.271 OA
BRANCH  14  17
HETATM   17  C   UNL     1     -45.134  55.186 -60.919  1.00  0.00     0.118 C 
HETATM   18  C   UNL     1     -44.551  54.393 -59.766  1.00  0.00     0.026 C 
ENDBRANCH  14  17
ENDBRANCH  12  13
ENDBRANCH  11  12
ENDBRANCH   8  11
ENDBRANCH   1   5
BRANCH   2  19
HETATM   19  C   UNL     1     -41.393  54.793 -53.721  1.00  0.00     0.157 A 
HETATM   20  N   UNL     1     -41.429  55.550 -52.602  1.00  0.00    -0.168 NA
HETATM   21  N   UNL     1     -40.833  54.778 -51.675  1.00  0.00    -0.277 N 
HETATM   22  H   UNL     1     -40.743  55.138 -50.732  1.00  0.00     0.189 HD
HETATM   23  C   UNL     1     -40.429  53.553 -52.132  1.00  0.00     0.063 A 
HETATM   24  C   UNL     1     -40.766  53.536 -53.479  1.00  0.00     0.029 A 
HETATM   25  C   UNL     1     -39.819  52.476 -51.484  1.00  0.00     0.032 A 
HETATM   26  C   UNL     1     -40.474  52.384 -54.237  1.00  0.00     0.023 A 
HETATM   27  C   UNL     1     -39.851  51.287 -53.620  1.00  0.00    -0.061 A 
HETATM   28  C   UNL     1     -39.544  51.340 -52.255  1.00  0.00     0.009 A 
HETATM   29  C   UNL     1     -39.579  50.044 -54.418  1.00  0.00     0.048 C 
ENDBRANCH   2  19
TORSDOF 6
ENDMDL
MODEL 4
REMARK VINA RESULT:      -7.8      1.567      2.054
REMARK  6 active torsions:
REMARK  status: ('A' for Active; 'I' for Inactive)
REMARK    1  A    between atoms: C_2  and  N_3 
REMARK       I    between atoms: N_3  and  C_4 
REMARK    2  A    between atoms: C_4  and  C_5 
REMARK    3  A    between atoms: C_5  and  O_6 
REMARK    4  A    between atoms: O_6  and  C_7 
REMARK    5  A    between atoms: C_10  and  N_11 
REMARK       I    between atoms: N_11  and  C_12 
REMARK    6  A    between atoms: C_12  and  C_13 
ROOT
HETATM    1  N   UNL     1     -42.302  54.854 -53.640  1.00  0.00    -0.322 N 
HETATM    2  C   UNL     1     -41.203  55.236 -52.893  1.00  0.00     0.277 C 
HETATM    3  O   UNL     1     -40.595  56.297 -52.986  1.00  0.00    -0.266 OA
HETATM    4  H   UNL     1     -42.667  53.941 -53.377  1.00  0.00     0.169 HD
ENDROOT
BRANCH   1   5
HETATM    5  C   UNL     1     -42.866  55.501 -54.751  1.00  0.00     0.035 A 
HETATM    6  C   UNL     1     -43.691  56.625 -54.654  1.00  0.00     0.032 A 
HETATM    7  C   UNL     1     -44.150  57.268 -55.808  1.00  0.00     0.039 A 
HETATM    8  C   UNL     1     -43.776  56.790 -57.060  1.00  0.00     0.069 A 
HETATM    9  C   UNL     1     -43.000  55.641 -57.174  1.00  0.00     0.039 A 
HETATM   10  C   UNL     1     -42.540  55.003 -56.019  1.00  0.00     0.032 A 
BRANCH   8  11
HETATM   11  O   UNL     1     -44.204  57.420 -58.196  1.00  0.00    -0.342 OA
BRANCH  11  12
HETATM   12  C   UNL     1     -43.703  56.753 -59.360  1.00  0.00     0.278 C 
BRANCH  12  13
HETATM   13  C   UNL     1     -42.721  57.607 -60.162  1.00  0.00     0.241 C 
HETATM   14  N   UNL     1     -43.213  58.847 -60.518  1.00  0.00    -0.360 N 
HETATM   15  H   UNL     1     -44.044  59.151 -60.019  1.00  0.00     0.162 HD
HETATM   16  O   UNL     1     -41.611  57.198 -60.492  1.00  0.00    -0.271 OA
BRANCH  14  17
HETATM   17  C   UNL     1     -42.361  59.836 -61.143  1.00  0.00     0.118 C 
HETATM   18  C   UNL     1     -41.761  60.776 -60.117  1.00  0.00     0.026 C 
ENDBRANCH  14  17
ENDBRANCH  12  13
ENDBRANCH  11  12
ENDBRANCH   8  11
ENDBRANCH   1   5
BRANCH   2  19
HETATM   19  C   UNL     1     -40.790  54.178 -51.952  1.00  0.00     0.157 A 
HETATM   20  N   UNL     1     -40.816  54.374 -50.614  1.00  0.00    -0.168 NA
HETATM   21  N   UNL     1     -40.424  53.189 -50.111  1.00  0.00    -0.277 N 
HETATM   22  H   UNL     1     -40.368  53.087 -49.104  1.00  0.00     0.189 HD
HETATM   23  C   UNL     1     -40.163  52.231 -51.052  1.00  0.00     0.063 A 
HETATM   24  C   UNL     1     -40.376  52.853 -52.275  1.00  0.00     0.029 A 
HETATM   25  C   UNL     1     -39.776  50.894 -50.933  1.00  0.00     0.032 A 
HETATM   26  C   UNL     1     -40.188  52.108 -53.457  1.00  0.00     0.023 A 
HETATM   27  C   UNL     1     -39.788  50.764 -53.374  1.00  0.00    -0.061 A 
HETATM   28  C   UNL     1     -39.601  50.172 -52.120  1.00  0.00     0.009 A 
HETATM   29  C   UNL     1     -39.629  49.959 -54.632  1.00  0.00     0.048 C 
ENDBRANCH   2  19
TORSDOF 6
ENDMDL
MODEL 5
REMARK VINA RESULT:      -7.7      2.842      3.565
REMARK  6 active torsions:
REMARK  status: ('A' for Active; 'I' for Inactive)
REMARK    1  A    between atoms: C_2  and  N_3 
REMARK       I    between atoms: N_3  and  C_4 
REMARK    2  A    between atoms: C_4  and  C_5 
REMARK    3  A    between atoms: C_5  and  O_6 
REMARK    4  A    between atoms: O_6  and  C_7 
REMARK    5  A    between atoms: C_10  and  N_11 
REMARK       I    between atoms: N_11  and  C_12 
REMARK    6  A    between atoms: C_12  and  C_13 
ROOT
HETATM    1  N   UNL     1     -42.012  55.485 -55.316  1.00  0.00    -0.322 N 
HETATM    2  C   UNL     1     -42.752  54.906 -54.301  1.00  0.00     0.277 C 
HETATM    3  O   UNL     1     -43.974  54.805 -54.260  1.00  0.00    -0.266 OA
HETATM    4  H   UNL     1     -41.009  55.434 -55.158  1.00  0.00     0.169 HD
ENDROOT
BRANCH   1   5
HETATM    5  C   UNL     1     -42.475  56.208 -56.426  1.00  0.00     0.035 A 
HETATM    6  C   UNL     1     -42.491  57.604 -56.489  1.00  0.00     0.032 A 
HETATM    7  C   UNL     1     -42.888  58.257 -57.660  1.00  0.00     0.039 A 
HETATM    8  C   UNL     1     -43.263  57.511 -58.772  1.00  0.00     0.069 A 
HETATM    9  C   UNL     1     -43.305  56.122 -58.710  1.00  0.00     0.039 A 
HETATM   10  C   UNL     1     -42.903  55.472 -57.539  1.00  0.00     0.032 A 
BRANCH   8  11
HETATM   11  O   UNL     1     -43.637  58.136 -59.929  1.00  0.00    -0.342 OA
BRANCH  11  12
HETATM   12  C   UNL     1     -43.508  59.556 -59.800  1.00  0.00     0.278 C 
BRANCH  12  13
HETATM   13  C   UNL     1     -42.359  60.130 -60.630  1.00  0.00     0.241 C 
HETATM   14  N   UNL     1     -42.237  61.503 -60.550  1.00  0.00    -0.360 N 
HETATM   15  H   UNL     1     -42.739  61.946 -59.786  1.00  0.00     0.162 HD
HETATM   16  O   UNL     1     -41.643  59.425 -61.337  1.00  0.00    -0.271 OA
BRANCH  14  17
HETATM   17  C   UNL     1     -41.111  62.187 -61.149  1.00  0.00     0.118 C 
HETATM   18  C   UNL     1     -40.143  62.686 -60.096  1.00  0.00     0.026 C 
ENDBRANCH  14  17
ENDBRANCH  12  13
ENDBRANCH  11  12
ENDBRANCH   8  11
ENDBRANCH   1   5
BRANCH   2  19
HETATM   19  C   UNL     1     -41.891  54.430 -53.202  1.00  0.00     0.157 A 
HETATM   20  N   UNL     1     -41.821  55.090 -52.024  1.00  0.00    -0.168 NA
HETATM   21  N   UNL     1     -40.987  54.335 -51.285  1.00  0.00    -0.277 N 
HETATM   22  H   UNL     1     -40.778  54.631 -50.338  1.00  0.00     0.189 HD
HETATM   23  C   UNL     1     -40.529  53.212 -51.917  1.00  0.00     0.063 A 
HETATM   24  C   UNL     1     -41.089  53.252 -53.187  1.00  0.00     0.029 A 
HETATM   25  C   UNL     1     -39.694  52.178 -51.484  1.00  0.00     0.032 A 
HETATM   26  C   UNL     1     -40.801  52.209 -54.089  1.00  0.00     0.023 A 
HETATM   27  C   UNL     1     -39.956  51.159 -53.690  1.00  0.00    -0.061 A 
HETATM   28  C   UNL     1     -39.427  51.149 -52.394  1.00  0.00     0.009 A 
HETATM   29  C   UNL     1     -39.684  50.026 -54.637  1.00  0.00     0.048 C 
ENDBRANCH   2  19
TORSDOF 6
ENDMDL
MODEL 6
REMARK VINA RESULT:      -7.5      5.011      7.627
REMARK  6 active torsions:
REMARK  status: ('A' for Active; 'I' for Inactive)
REMARK    1  A    between atoms: C_2  and  N_3 
REMARK       I    between atoms: N_3  and  C_4 
REMARK    2  A    between atoms: C_4  and  C_5 
REMARK    3  A    between atoms: C_5  and  O_6 
REMARK    4  A    between atoms: O_6  and  C_7 
REMARK    5  A    between atoms: C_10  and  N_11 
REMARK       I    between atoms: N_11  and  C_12 
REMARK    6  A    between atoms: C_12  and  C_13 
ROOT
HETATM    1  N   UNL     1     -43.005  56.806 -52.812  1.00  0.00    -0.322 N 
HETATM    2  C   UNL     1     -41.666  56.519 -52.621  1.00  0.00     0.277 C 
HETATM    3  O   UNL     1     -40.920  57.044 -51.801  1.00  0.00    -0.266 OA
HETATM    4  H   UNL     1     -43.440  56.229 -53.528  1.00  0.00     0.169 HD
ENDROOT
BRANCH   1   5
HETATM    5  C   UNL     1     -43.762  57.841 -52.242  1.00  0.00     0.035 A 
HETATM    6  C   UNL     1     -43.673  59.177 -52.642  1.00  0.00     0.032 A 
HETATM    7  C   UNL     1     -44.519  60.142 -52.086  1.00  0.00     0.039 A 
HETATM    8  C   UNL     1     -45.461  59.767 -51.134  1.00  0.00     0.069 A 
HETATM    9  C   UNL     1     -45.528  58.452 -50.685  1.00  0.00     0.039 A 
HETATM   10  C   UNL     1     -44.683  57.490 -51.246  1.00  0.00     0.032 A 
BRANCH   8  11
HETATM   11  O   UNL     1     -46.306  60.697 -50.595  1.00  0.00    -0.342 OA
BRANCH  11  12
HETATM   12  C   UNL     1     -45.582  61.622 -49.776  1.00  0.00     0.278 C 
BRANCH  12  13
HETATM   13  C   UNL     1     -46.027  61.601 -48.313  1.00  0.00     0.241 C 
HETATM   14  N   UNL     1     -45.616  60.483 -47.615  1.00  0.00    -0.360 N 
HETATM   15  H   UNL     1     -44.881  59.935 -48.053  1.00  0.00     0.162 HD
HETATM   16  O   UNL     1     -46.725  62.487 -47.826  1.00  0.00    -0.271 OA
BRANCH  14  17
HETATM   17  C   UNL     1     -45.819  60.380 -46.186  1.00  0.00     0.118 C 
HETATM   18  C   UNL     1     -44.670  61.002 -45.418  1.00  0.00     0.026 C 
ENDBRANCH  14  17
ENDBRANCH  12  13
ENDBRANCH  11  12
ENDBRANCH   8  11
ENDBRANCH   1   5
BRANCH   2  19
HETATM   19  C   UNL     1     -41.188  55.494 -53.568  1.00  0.00     0.157 A 
HETATM   20  N   UNL     1     -41.082  55.750 -54.891  1.00  0.00    -0.168 NA
HETATM   21  N   UNL     1     -40.578  54.609 -55.398  1.00  0.00    -0.277 N 
HETATM   22  H   UNL     1     -40.404  54.559 -56.395  1.00  0.00     0.189 HD
HETATM   23  C   UNL     1     -40.336  53.635 -54.469  1.00  0.00     0.063 A 
HETATM   24  C   UNL     1     -40.743  54.176 -53.256  1.00  0.00     0.029 A 
HETATM   25  C   UNL     1     -39.794  52.352 -54.588  1.00  0.00     0.032 A 
HETATM   26  C   UNL     1     -40.612  53.399 -52.088  1.00  0.00     0.023 A 
HETATM   27  C   UNL     1     -40.081  52.101 -52.174  1.00  0.00    -0.061 A 
HETATM   28  C   UNL     1     -39.668  51.600 -53.414  1.00  0.00     0.009 A 
HETATM   29  C   UNL     1     -39.902  51.289 -50.923  1.00  0.00     0.048 C 
ENDBRANCH   2  19
TORSDOF 6
ENDMDL
MODEL 7
REMARK VINA RESULT:      -7.3     14.636     17.881
REMARK  6 active torsions:
REMARK  status: ('A' for Active; 'I' for Inactive)
REMARK    1  A    between atoms: C_2  and  N_3 
REMARK       I    between atoms: N_3  and  C_4 
REMARK    2  A    between atoms: C_4  and  C_5 
REMARK    3  A    between atoms: C_5  and  O_6 
REMARK    4  A    between atoms: O_6  and  C_7 
REMARK    5  A    between atoms: C_10  and  N_11 
REMARK       I    between atoms: N_11  and  C_12 
REMARK    6  A    between atoms: C_12  and  C_13 
ROOT
HETATM    1  N   UNL     1     -37.201  40.667 -58.211  1.00  0.00    -0.322 N 
HETATM    2  C   UNL     1     -37.469  39.341 -58.497  1.00  0.00     0.277 C 
HETATM    3  O   UNL     1     -37.603  38.435 -57.681  1.00  0.00    -0.266 OA
HETATM    4  H   UNL     1     -37.161  41.255 -59.041  1.00  0.00     0.169 HD
ENDROOT
BRANCH   1   5
HETATM    5  C   UNL     1     -36.873  41.241 -56.973  1.00  0.00     0.035 A 
HETATM    6  C   UNL     1     -37.692  41.163 -55.843  1.00  0.00     0.032 A 
HETATM    7  C   UNL     1     -37.263  41.687 -54.619  1.00  0.00     0.039 A 
HETATM    8  C   UNL     1     -36.009  42.282 -54.525  1.00  0.00     0.069 A 
HETATM    9  C   UNL     1     -35.204  42.416 -55.652  1.00  0.00     0.039 A 
HETATM   10  C   UNL     1     -35.635  41.888 -56.872  1.00  0.00     0.032 A 
BRANCH   8  11
HETATM   11  O   UNL     1     -35.570  42.783 -53.331  1.00  0.00    -0.342 OA
BRANCH  11  12
HETATM   12  C   UNL     1     -35.587  41.767 -52.322  1.00  0.00     0.278 C 
BRANCH  12  13
HETATM   13  C   UNL     1     -34.408  40.798 -52.431  1.00  0.00     0.241 C 
HETATM   14  N   UNL     1     -33.203  41.328 -52.017  1.00  0.00    -0.360 N 
HETATM   15  H   UNL     1     -33.261  42.183 -51.472  1.00  0.00     0.162 HD
HETATM   16  O   UNL     1     -34.529  39.664 -52.888  1.00  0.00    -0.271 OA
BRANCH  14  17
HETATM   17  C   UNL     1     -32.021  40.500 -51.910  1.00  0.00     0.118 C 
HETATM   18  C   UNL     1     -31.890  39.901 -50.524  1.00  0.00     0.026 C 
ENDBRANCH  14  17
ENDBRANCH  12  13
ENDBRANCH  11  12
ENDBRANCH   8  11
ENDBRANCH   1   5
BRANCH   2  19
HETATM   19  C   UNL     1     -37.549  39.102 -59.950  1.00  0.00     0.157 A 
HETATM   20  N   UNL     1     -36.509  39.378 -60.769  1.00  0.00    -0.168 NA
HETATM   21  N   UNL     1     -36.945  38.987 -61.981  1.00  0.00    -0.277 N 
HETATM   22  H   UNL     1     -36.324  39.094 -62.775  1.00  0.00     0.189 HD
HETATM   23  C   UNL     1     -38.206  38.457 -61.986  1.00  0.00     0.063 A 
HETATM   24  C   UNL     1     -38.641  38.533 -60.669  1.00  0.00     0.029 A 
HETATM   25  C   UNL     1     -38.981  37.916 -63.015  1.00  0.00     0.032 A 
HETATM   26  C   UNL     1     -39.926  38.051 -60.350  1.00  0.00     0.023 A 
HETATM   27  C   UNL     1     -40.736  37.512 -61.363  1.00  0.00    -0.061 A 
HETATM   28  C   UNL     1     -40.252  37.438 -62.674  1.00  0.00     0.009 A 
HETATM   29  C   UNL     1     -42.089  36.959 -61.014  1.00  0.00     0.048 C 
ENDBRANCH   2  19
TORSDOF 6
ENDMDL
MODEL 8
REMARK VINA RESULT:      -7.2     15.338     19.118
REMARK  6 active torsions:
REMARK  status: ('A' for Active; 'I' for Inactive)
REMARK    1  A    between atoms: C_2  and  N_3 
REMARK       I    between atoms: N_3  and  C_4 
REMARK    2  A    between atoms: C_4  and  C_5 
REMARK    3  A    between atoms: C_5  and  O_6 
REMARK    4  A    between atoms: O_6  and  C_7 
REMARK    5  A    between atoms: C_10  and  N_11 
REMARK       I    between atoms: N_11  and  C_12 
REMARK    6  A    between atoms: C_12  and  C_13 
ROOT
HETATM    1  N   UNL     1     -34.325  41.077 -53.972  1.00  0.00    -0.322 N 
HETATM    2  C   UNL     1     -35.293  40.419 -54.708  1.00  0.00     0.277 C 
HETATM    3  O   UNL     1     -35.844  39.365 -54.406  1.00  0.00    -0.266 OA
HETATM    4  H   UNL     1     -34.026  41.952 -54.395  1.00  0.00     0.169 HD
ENDROOT
BRANCH   1   5
HETATM    5  C   UNL     1     -33.653  40.630 -52.822  1.00  0.00     0.035 A 
HETATM    6  C   UNL     1     -34.046  40.954 -51.521  1.00  0.00     0.032 A 
HETATM    7  C   UNL     1     -33.380  40.404 -50.422  1.00  0.00     0.039 A 
HETATM    8  C   UNL     1     -32.322  39.523 -50.626  1.00  0.00     0.069 A 
HETATM    9  C   UNL     1     -31.883  39.232 -51.913  1.00  0.00     0.039 A 
HETATM   10  C   UNL     1     -32.555  39.780 -53.010  1.00  0.00     0.032 A 
BRANCH   8  11
HETATM   11  O   UNL     1     -31.673  38.965 -49.560  1.00  0.00    -0.342 OA
BRANCH  11  12
HETATM   12  C   UNL     1     -31.714  39.843 -48.429  1.00  0.00     0.278 C 
BRANCH  12  13
HETATM   13  C   UNL     1     -30.720  39.453 -47.334  1.00  0.00     0.241 C 
HETATM   14  N   UNL     1     -30.167  40.527 -46.666  1.00  0.00    -0.360 N 
HETATM   15  H   UNL     1     -30.642  41.416 -46.791  1.00  0.00     0.162 HD
HETATM   16  O   UNL     1     -30.416  38.284 -47.107  1.00  0.00    -0.271 OA
BRANCH  14  17
HETATM   17  C   UNL     1     -29.329  40.331 -45.502  1.00  0.00     0.118 C 
HETATM   18  C   UNL     1     -29.977  40.894 -44.253  1.00  0.00     0.026 C 
ENDBRANCH  14  17
ENDBRANCH  12  13
ENDBRANCH  11  12
ENDBRANCH   8  11
ENDBRANCH   1   5
BRANCH   2  19
HETATM   19  C   UNL     1     -35.589  41.123 -55.970  1.00  0.00     0.157 A 
HETATM   20  N   UNL     1     -35.035  42.324 -56.255  1.00  0.00    -0.168 NA
HETATM   21  N   UNL     1     -35.502  42.606 -57.485  1.00  0.00    -0.277 N 
HETATM   22  H   UNL     1     -35.216  43.474 -57.922  1.00  0.00     0.189 HD
HETATM   23  C   UNL     1     -36.313  41.643 -58.019  1.00  0.00     0.063 A 
HETATM   24  C   UNL     1     -36.407  40.660 -57.041  1.00  0.00     0.029 A 
HETATM   25  C   UNL     1     -36.952  41.549 -59.258  1.00  0.00     0.032 A 
HETATM   26  C   UNL     1     -37.186  39.516 -57.302  1.00  0.00     0.023 A 
HETATM   27  C   UNL     1     -37.851  39.394 -58.534  1.00  0.00    -0.061 A 
HETATM   28  C   UNL     1     -37.715  40.400 -59.498  1.00  0.00     0.009 A 
HETATM   29  C   UNL     1     -38.646  38.155 -58.828  1.00  0.00     0.048 C 
ENDBRANCH   2  19
TORSDOF 6
ENDMDL
MODEL 9
REMARK VINA RESULT:      -7.1      1.866      2.325
REMARK  6 active torsions:
REMARK  status: ('A' for Active; 'I' for Inactive)
REMARK    1  A    between atoms: C_2  and  N_3 
REMARK       I    between atoms: N_3  and  C_4 
REMARK    2  A    between atoms: C_4  and  C_5 
REMARK    3  A    between atoms: C_5  and  O_6 
REMARK    4  A    between atoms: O_6  and  C_7 
REMARK    5  A    between atoms: C_10  and  N_11 
REMARK       I    between atoms: N_11  and  C_12 
REMARK    6  A    between atoms: C_12  and  C_13 
ROOT
HETATM    1  N   UNL     1     -42.284  55.882 -52.680  1.00  0.00    -0.322 N 
HETATM    2  C   UNL     1     -41.168  55.169 -53.079  1.00  0.00     0.277 C 
HETATM    3  O   UNL     1     -40.559  55.306 -54.135  1.00  0.00    -0.266 OA
HETATM    4  H   UNL     1     -42.612  55.626 -51.751  1.00  0.00     0.169 HD
ENDROOT
BRANCH   1   5
HETATM    5  C   UNL     1     -43.050  56.790 -53.428  1.00  0.00     0.035 A 
HETATM    6  C   UNL     1     -44.253  56.454 -54.056  1.00  0.00     0.032 A 
HETATM    7  C   UNL     1     -45.006  57.431 -54.715  1.00  0.00     0.039 A 
HETATM    8  C   UNL     1     -44.557  58.747 -54.739  1.00  0.00     0.069 A 
HETATM    9  C   UNL     1     -43.336  59.088 -54.167  1.00  0.00     0.039 A 
HETATM   10  C   UNL     1     -42.588  58.110 -53.505  1.00  0.00     0.032 A 
BRANCH   8  11
HETATM   11  O   UNL     1     -45.291  59.716 -55.366  1.00  0.00    -0.342 OA
BRANCH  11  12
HETATM   12  C   UNL     1     -44.560  60.272 -56.464  1.00  0.00     0.278 C 
BRANCH  12  13
HETATM   13  C   UNL     1     -44.728  59.476 -57.759  1.00  0.00     0.241 C 
HETATM   14  N   UNL     1     -46.041  59.307 -58.150  1.00  0.00    -0.360 N 
HETATM   15  H   UNL     1     -46.717  59.915 -57.697  1.00  0.00     0.162 HD
HETATM   16  O   UNL     1     -43.773  58.996 -58.364  1.00  0.00    -0.271 OA
BRANCH  14  17
HETATM   17  C   UNL     1     -46.367  58.713 -59.428  1.00  0.00     0.118 C 
HETATM   18  C   UNL     1     -46.776  57.262 -59.276  1.00  0.00     0.026 C 
ENDBRANCH  14  17
ENDBRANCH  12  13
ENDBRANCH  11  12
ENDBRANCH   8  11
ENDBRANCH   1   5
BRANCH   2  19
HETATM   19  C   UNL     1     -40.784  54.155 -52.079  1.00  0.00     0.157 A 
HETATM   20  N   UNL     1     -40.859  54.408 -50.753  1.00  0.00    -0.168 NA
HETATM   21  N   UNL     1     -40.479  53.247 -50.186  1.00  0.00    -0.277 N 
HETATM   22  H   UNL     1     -40.457  53.189 -49.174  1.00  0.00     0.189 HD
HETATM   23  C   UNL     1     -40.180  52.252 -51.076  1.00  0.00     0.063 A 
HETATM   24  C   UNL     1     -40.353  52.820 -52.332  1.00  0.00     0.029 A 
HETATM   25  C   UNL     1     -39.791  50.924 -50.886  1.00  0.00     0.032 A 
HETATM   26  C   UNL     1     -40.120  52.027 -53.472  1.00  0.00     0.023 A 
HETATM   27  C   UNL     1     -39.716  50.690 -53.318  1.00  0.00    -0.061 A 
HETATM   28  C   UNL     1     -39.571  50.153 -52.034  1.00  0.00     0.009 A 
HETATM   29  C   UNL     1     -39.509  49.833 -54.534  1.00  0.00     0.048 C 
ENDBRANCH   2  19
TORSDOF 6
ENDMDL
MODEL 10
REMARK VINA RESULT:      -7.1      6.157      9.586
REMARK  6 active torsions:
REMARK  status: ('A' for Active; 'I' for Inactive)
REMARK    1  A    between atoms: C_2  and  N_3 
REMARK       I    between atoms: N_3  and  C_4 
REMARK    2  A    between atoms: C_4  and  C_5 
REMARK    3  A    between atoms: C_5  and  O_6 
REMARK    4  A    between atoms: O_6  and  C_7 
REMARK    5  A    between atoms: C_10  and  N_11 
REMARK       I    between atoms: N_11  and  C_12 
REMARK    6  A    between atoms: C_12  and  C_13 
ROOT
HETATM    1  N   UNL     1     -44.350  59.062 -50.832  1.00  0.00    -0.322 N 
HETATM    2  C   UNL     1     -45.620  59.413 -50.413  1.00  0.00     0.277 C 
HETATM    3  O   UNL     1     -46.610  58.690 -50.413  1.00  0.00    -0.266 OA
HETATM    4  H   UNL     1     -43.670  59.810 -50.718  1.00  0.00     0.169 HD
ENDROOT
BRANCH   1   5
HETATM    5  C   UNL     1     -43.942  57.885 -51.480  1.00  0.00     0.035 A 
HETATM    6  C   UNL     1     -43.418  56.775 -50.812  1.00  0.00     0.032 A 
HETATM    7  C   UNL     1     -43.111  55.605 -51.514  1.00  0.00     0.039 A 
HETATM    8  C   UNL     1     -43.337  55.544 -52.885  1.00  0.00     0.069 A 
HETATM    9  C   UNL     1     -43.808  56.657 -53.574  1.00  0.00     0.039 A 
HETATM   10  C   UNL     1     -44.117  57.823 -52.869  1.00  0.00     0.032 A 
BRANCH   8  11
HETATM   11  O   UNL     1     -43.058  54.400 -53.580  1.00  0.00    -0.342 OA
BRANCH  11  12
HETATM   12  C   UNL     1     -41.673  54.358 -53.946  1.00  0.00     0.278 C 
BRANCH  12  13
HETATM   13  C   UNL     1     -40.926  53.180 -53.321  1.00  0.00     0.241 C 
HETATM   14  N   UNL     1     -40.371  52.312 -54.240  1.00  0.00    -0.360 N 
HETATM   15  H   UNL     1     -40.302  52.663 -55.191  1.00  0.00     0.162 HD
HETATM   16  O   UNL     1     -40.868  53.008 -52.106  1.00  0.00    -0.271 OA
BRANCH  14  17
HETATM   17  C   UNL     1     -39.502  51.235 -53.818  1.00  0.00     0.118 C 
HETATM   18  C   UNL     1     -40.006  49.893 -54.310  1.00  0.00     0.026 C 
ENDBRANCH  14  17
ENDBRANCH  12  13
ENDBRANCH  11  12
ENDBRANCH   8  11
ENDBRANCH   1   5
BRANCH   2  19
HETATM   19  C   UNL     1     -45.680  60.822 -49.978  1.00  0.00     0.157 A 
HETATM   20  N   UNL     1     -46.029  61.810 -50.833  1.00  0.00    -0.168 NA
HETATM   21  N   UNL     1     -46.013  62.915 -50.064  1.00  0.00    -0.277 N 
HETATM   22  H   UNL     1     -46.250  63.804 -50.492  1.00  0.00     0.189 HD
HETATM   23  C   UNL     1     -45.689  62.691 -48.755  1.00  0.00     0.063 A 
HETATM   24  C   UNL     1     -45.446  61.327 -48.666  1.00  0.00     0.029 A 
HETATM   25  C   UNL     1     -45.603  63.554 -47.659  1.00  0.00     0.032 A 
HETATM   26  C   UNL     1     -45.088  60.781 -47.417  1.00  0.00     0.023 A 
HETATM   27  C   UNL     1     -44.981  61.622 -46.297  1.00  0.00    -0.061 A 
HETATM   28  C   UNL     1     -45.252  62.989 -46.427  1.00  0.00     0.009 A 
HETATM   29  C   UNL     1     -44.641  61.033 -44.958  1.00  0.00     0.048 C 
ENDBRANCH   2  19
TORSDOF 6
ENDMDL
