MODEL 1
REMARK VINA RESULT:      -8.2      0.000      0.000
REMARK  3 active torsions:
REMARK  status: ('A' for Active; 'I' for Inactive)
REMARK    1  A    between atoms: C_6  and  O_7 
REMARK    2  A    between atoms: O_7  and  C_8 
REMARK       I    between atoms: N_10  and  C_11 
REMARK       I    between atoms: C_11  and  N_12 
REMARK    3  A    between atoms: N_12  and  C_13 
ROOT
HETATM    1  C   UNL     1     -42.557  58.736 -55.354  1.00  0.00     0.148 C 
HETATM    2  C   UNL     1     -41.646  57.722 -54.649  1.00  0.00     0.160 C 
HETATM    3  N   UNL     1     -42.484  57.118 -53.621  1.00  0.00    -0.331 N 
HETATM    4  C   UNL     1     -42.329  55.883 -53.022  1.00  0.00     0.323 C 
HETATM    5  N   UNL     1     -41.100  55.308 -53.244  1.00  0.00    -0.309 N 
HETATM    6  O   UNL     1     -43.241  55.387 -52.367  1.00  0.00    -0.247 OA
HETATM    7  C   UNL     1     -43.730  57.849 -53.478  1.00  0.00     0.130 C 
HETATM    8  C   UNL     1     -43.495  59.153 -54.219  1.00  0.00     0.054 C 
HETATM    9  H   UNL     1     -40.363  55.947 -53.495  1.00  0.00     0.170 HD
ENDROOT
BRANCH   5  10
HETATM   10  C   UNL     1     -40.709  53.982 -52.960  1.00  0.00     0.037 A 
HETATM   11  C   UNL     1     -40.608  52.984 -53.937  1.00  0.00     0.043 A 
HETATM   12  C   UNL     1     -40.169  51.693 -53.578  1.00  0.00    -0.006 A 
HETATM   13  C   UNL     1     -39.845  51.435 -52.248  1.00  0.00     0.042 A 
HETATM   14  C   UNL     1     -39.951  50.488 -54.303  1.00  0.00     0.030 A 
HETATM   15  N   UNL     1     -39.451  50.118 -52.173  1.00  0.00    -0.365 N 
HETATM   16  C   UNL     1     -39.935  52.410 -51.250  1.00  0.00     0.033 A 
HETATM   17  H   UNL     1     -39.160  49.653 -51.325  1.00  0.00     0.165 HD
HETATM   18  C   UNL     1     -39.508  49.537 -53.412  1.00  0.00     0.089 A 
HETATM   19  C   UNL     1     -40.368  53.687 -51.634  1.00  0.00     0.032 A 
ENDBRANCH   5  10
BRANCH   1  20
HETATM   20  O   UNL     1     -41.784  59.825 -55.842  1.00  0.00    -0.344 OA
BRANCH  20  21
HETATM   21  C   UNL     1     -41.821  60.105 -57.179  1.00  0.00     0.070 A 
HETATM   22  C   UNL     1     -41.996  58.986 -57.999  1.00  0.00     0.060 A 
HETATM   23  C   UNL     1     -42.053  59.131 -59.384  1.00  0.00     0.036 A 
HETATM   24  C   UNL     1     -41.939  60.391 -59.967  1.00  0.00     0.024 A 
HETATM   25 CL   UNL     1     -42.266  57.745 -60.382  1.00  0.00    -0.084 Cl
HETATM   26  C   UNL     1     -41.766  61.510 -59.155  1.00  0.00     0.004 A 
HETATM   27  C   UNL     1     -41.707  61.368 -57.765  1.00  0.00     0.037 A 
ENDBRANCH  20  21
ENDBRANCH   1  20
TORSDOF 3
ENDMDL
MODEL 2
REMARK VINA RESULT:      -8.2      2.536      2.918
REMARK  3 active torsions:
REMARK  status: ('A' for Active; 'I' for Inactive)
REMARK    1  A    between atoms: C_6  and  O_7 
REMARK    2  A    between atoms: O_7  and  C_8 
REMARK       I    between atoms: N_10  and  C_11 
REMARK       I    between atoms: C_11  and  N_12 
REMARK    3  A    between atoms: N_12  and  C_13 
ROOT
HETATM    1  C   UNL     1     -43.389  57.916 -56.397  1.00  0.00     0.148 C 
HETATM    2  C   UNL     1     -42.429  56.749 -56.128  1.00  0.00     0.160 C 
HETATM    3  N   UNL     1     -41.825  57.052 -54.838  1.00  0.00    -0.331 N 
HETATM    4  C   UNL     1     -41.262  56.166 -53.939  1.00  0.00     0.323 C 
HETATM    5  N   UNL     1     -41.018  54.920 -54.466  1.00  0.00    -0.309 N 
HETATM    6  O   UNL     1     -41.027  56.510 -52.785  1.00  0.00    -0.247 OA
HETATM    7  C   UNL     1     -42.142  58.407 -54.426  1.00  0.00     0.130 C 
HETATM    8  C   UNL     1     -42.684  59.070 -55.680  1.00  0.00     0.054 C 
HETATM    9  H   UNL     1     -40.943  54.882 -55.470  1.00  0.00     0.170 HD
ENDROOT
BRANCH   5  10
HETATM   10  C   UNL     1     -40.658  53.748 -53.768  1.00  0.00     0.037 A 
HETATM   11  C   UNL     1     -40.457  52.511 -54.394  1.00  0.00     0.043 A 
HETATM   12  C   UNL     1     -40.058  51.395 -53.629  1.00  0.00    -0.006 A 
HETATM   13  C   UNL     1     -39.872  51.548 -52.257  1.00  0.00     0.042 A 
HETATM   14  C   UNL     1     -39.766  50.038 -53.943  1.00  0.00     0.030 A 
HETATM   15  N   UNL     1     -39.488  50.323 -51.761  1.00  0.00    -0.365 N 
HETATM   16  C   UNL     1     -40.065  52.769 -51.604  1.00  0.00     0.033 A 
HETATM   17  H   UNL     1     -39.285  50.135 -50.789  1.00  0.00     0.165 HD
HETATM   18  C   UNL     1     -39.416  49.403 -52.773  1.00  0.00     0.089 A 
HETATM   19  C   UNL     1     -40.456  53.863 -52.387  1.00  0.00     0.032 A 
ENDBRANCH   5  10
BRANCH   1  20
HETATM   20  O   UNL     1     -43.501  58.139 -57.797  1.00  0.00    -0.344 OA
BRANCH  20  21
HETATM   21  C   UNL     1     -44.597  57.651 -58.451  1.00  0.00     0.070 A 
HETATM   22  C   UNL     1     -44.312  56.657 -59.392  1.00  0.00     0.060 A 
HETATM   23  C   UNL     1     -45.339  56.072 -60.131  1.00  0.00     0.036 A 
HETATM   24  C   UNL     1     -46.660  56.468 -59.938  1.00  0.00     0.024 A 
HETATM   25 CL   UNL     1     -44.974  54.852 -61.288  1.00  0.00    -0.084 Cl
HETATM   26  C   UNL     1     -46.951  57.457 -59.000  1.00  0.00     0.004 A 
HETATM   27  C   UNL     1     -45.922  58.048 -58.259  1.00  0.00     0.037 A 
ENDBRANCH  20  21
ENDBRANCH   1  20
TORSDOF 3
ENDMDL
MODEL 3
REMARK VINA RESULT:      -8.2      1.555      1.900
REMARK  3 active torsions:
REMARK  status: ('A' for Active; 'I' for Inactive)
REMARK    1  A    between atoms: C_6  and  O_7 
REMARK    2  A    between atoms: O_7  and  C_8 
REMARK       I    between atoms: N_10  and  C_11 
REMARK       I    between atoms: C_11  and  N_12 
REMARK    3  A    between atoms: N_12  and  C_13 
ROOT
HETATM    1  C   UNL     1     -44.343  57.785 -55.811  1.00  0.00     0.148 C 
HETATM    2  C   UNL     1     -43.119  56.984 -55.347  1.00  0.00     0.160 C 
HETATM    3  N   UNL     1     -43.370  56.700 -53.940  1.00  0.00    -0.331 N 
HETATM    4  C   UNL     1     -42.847  55.672 -53.179  1.00  0.00     0.323 C 
HETATM    5  N   UNL     1     -41.779  55.034 -53.765  1.00  0.00    -0.309 N 
HETATM    6  O   UNL     1     -43.335  55.390 -52.089  1.00  0.00    -0.247 OA
HETATM    7  C   UNL     1     -44.503  57.466 -53.455  1.00  0.00     0.130 C 
HETATM    8  C   UNL     1     -44.743  58.513 -54.526  1.00  0.00     0.054 C 
HETATM    9  H   UNL     1     -41.291  55.566 -54.468  1.00  0.00     0.170 HD
ENDROOT
BRANCH   5  10
HETATM   10  C   UNL     1     -41.170  53.829 -53.357  1.00  0.00     0.037 A 
HETATM   11  C   UNL     1     -41.068  52.701 -54.181  1.00  0.00     0.043 A 
HETATM   12  C   UNL     1     -40.406  51.547 -53.712  1.00  0.00    -0.006 A 
HETATM   13  C   UNL     1     -39.866  51.553 -52.428  1.00  0.00     0.042 A 
HETATM   14  C   UNL     1     -40.125  50.273 -54.279  1.00  0.00     0.030 A 
HETATM   15  N   UNL     1     -39.284  50.322 -52.226  1.00  0.00    -0.365 N 
HETATM   16  C   UNL     1     -39.951  52.663 -51.583  1.00  0.00     0.033 A 
HETATM   17  H   UNL     1     -38.814  50.041 -51.377  1.00  0.00     0.165 HD
HETATM   18  C   UNL     1     -39.432  49.540 -53.342  1.00  0.00     0.089 A 
HETATM   19  C   UNL     1     -40.609  53.799 -52.074  1.00  0.00     0.032 A 
ENDBRANCH   5  10
BRANCH   1  20
HETATM   20  O   UNL     1     -43.970  58.684 -56.847  1.00  0.00    -0.344 OA
BRANCH  20  21
HETATM   21  C   UNL     1     -43.389  58.177 -57.975  1.00  0.00     0.070 A 
HETATM   22  C   UNL     1     -44.126  57.167 -58.600  1.00  0.00     0.060 A 
HETATM   23  C   UNL     1     -43.648  56.563 -59.762  1.00  0.00     0.036 A 
HETATM   24  C   UNL     1     -42.433  56.960 -60.315  1.00  0.00     0.024 A 
HETATM   25 CL   UNL     1     -44.564  55.319 -60.520  1.00  0.00    -0.084 Cl
HETATM   26  C   UNL     1     -41.694  57.967 -59.697  1.00  0.00     0.004 A 
HETATM   27  C   UNL     1     -42.170  58.574 -58.530  1.00  0.00     0.037 A 
ENDBRANCH  20  21
ENDBRANCH   1  20
TORSDOF 3
ENDMDL
MODEL 4
REMARK VINA RESULT:      -8.1      3.133      8.716
REMARK  3 active torsions:
REMARK  status: ('A' for Active; 'I' for Inactive)
REMARK    1  A    between atoms: C_6  and  O_7 
REMARK    2  A    between atoms: O_7  and  C_8 
REMARK       I    between atoms: N_10  and  C_11 
REMARK       I    between atoms: C_11  and  N_12 
REMARK    3  A    between atoms: N_12  and  C_13 
ROOT
HETATM    1  C   UNL     1     -40.821  54.298 -51.691  1.00  0.00     0.148 C 
HETATM    2  C   UNL     1     -40.998  54.407 -53.211  1.00  0.00     0.160 C 
HETATM    3  N   UNL     1     -42.436  54.525 -53.413  1.00  0.00    -0.331 N 
HETATM    4  C   UNL     1     -43.096  55.084 -54.490  1.00  0.00     0.323 C 
HETATM    5  N   UNL     1     -42.292  55.294 -55.586  1.00  0.00    -0.309 N 
HETATM    6  O   UNL     1     -44.290  55.356 -54.420  1.00  0.00    -0.247 OA
HETATM    7  C   UNL     1     -43.153  54.246 -52.181  1.00  0.00     0.130 C 
HETATM    8  C   UNL     1     -42.119  53.602 -51.276  1.00  0.00     0.054 C 
HETATM    9  H   UNL     1     -41.456  54.734 -55.622  1.00  0.00     0.170 HD
ENDROOT
BRANCH   5  10
HETATM   10  C   UNL     1     -42.600  56.034 -56.747  1.00  0.00     0.037 A 
HETATM   11  C   UNL     1     -42.375  57.412 -56.863  1.00  0.00     0.043 A 
HETATM   12  C   UNL     1     -42.673  58.071 -58.074  1.00  0.00    -0.006 A 
HETATM   13  C   UNL     1     -43.189  57.332 -59.136  1.00  0.00     0.042 A 
HETATM   14  C   UNL     1     -42.559  59.418 -58.517  1.00  0.00     0.030 A 
HETATM   15  N   UNL     1     -43.385  58.206 -60.182  1.00  0.00    -0.365 N 
HETATM   16  C   UNL     1     -43.423  55.957 -59.051  1.00  0.00     0.033 A 
HETATM   17  H   UNL     1     -43.754  57.947 -61.086  1.00  0.00     0.165 HD
HETATM   18  C   UNL     1     -43.003  59.471 -59.819  1.00  0.00     0.089 A 
HETATM   19  C   UNL     1     -43.114  55.324 -57.839  1.00  0.00     0.032 A 
ENDBRANCH   5  10
BRANCH   1  20
HETATM   20  O   UNL     1     -39.671  53.518 -51.391  1.00  0.00    -0.344 OA
BRANCH  20  21
HETATM   21  C   UNL     1     -39.741  52.162 -51.551  1.00  0.00     0.070 A 
HETATM   22  C   UNL     1     -39.624  51.731 -52.876  1.00  0.00     0.060 A 
HETATM   23  C   UNL     1     -39.678  50.372 -53.180  1.00  0.00     0.036 A 
HETATM   24  C   UNL     1     -39.845  49.429 -52.170  1.00  0.00     0.024 A 
HETATM   25 CL   UNL     1     -39.535  49.855 -54.816  1.00  0.00    -0.084 Cl
HETATM   26  C   UNL     1     -39.961  49.852 -50.848  1.00  0.00     0.004 A 
HETATM   27  C   UNL     1     -39.910  51.215 -50.538  1.00  0.00     0.037 A 
ENDBRANCH  20  21
ENDBRANCH   1  20
TORSDOF 3
ENDMDL
MODEL 5
REMARK VINA RESULT:      -7.9      3.222      9.274
REMARK  3 active torsions:
REMARK  status: ('A' for Active; 'I' for Inactive)
REMARK    1  A    between atoms: C_6  and  O_7 
REMARK    2  A    between atoms: O_7  and  C_8 
REMARK       I    between atoms: N_10  and  C_11 
REMARK       I    between atoms: C_11  and  N_12 
REMARK    3  A    between atoms: N_12  and  C_13 
ROOT
HETATM    1  C   UNL     1     -42.324  55.206 -54.519  1.00  0.00     0.148 C 
HETATM    2  C   UNL     1     -42.328  55.924 -55.875  1.00  0.00     0.160 C 
HETATM    3  N   UNL     1     -43.227  57.055 -55.697  1.00  0.00    -0.331 N 
HETATM    4  C   UNL     1     -43.249  58.239 -56.410  1.00  0.00     0.323 C 
HETATM    5  N   UNL     1     -42.514  58.202 -57.571  1.00  0.00    -0.309 N 
HETATM    6  O   UNL     1     -43.877  59.208 -55.994  1.00  0.00    -0.247 OA
HETATM    7  C   UNL     1     -43.955  56.942 -54.447  1.00  0.00     0.130 C 
HETATM    8  C   UNL     1     -43.734  55.507 -54.005  1.00  0.00     0.054 C 
HETATM    9  H   UNL     1     -42.342  57.283 -57.944  1.00  0.00     0.170 HD
ENDROOT
BRANCH   5  10
HETATM   10  C   UNL     1     -42.160  59.289 -58.398  1.00  0.00     0.037 A 
HETATM   11  C   UNL     1     -41.396  60.376 -57.954  1.00  0.00     0.043 A 
HETATM   12  C   UNL     1     -41.050  61.404 -58.855  1.00  0.00    -0.006 A 
HETATM   13  C   UNL     1     -41.479  61.317 -60.177  1.00  0.00     0.042 A 
HETATM   14  C   UNL     1     -40.299  62.608 -58.737  1.00  0.00     0.030 A 
HETATM   15  N   UNL     1     -41.009  62.433 -60.832  1.00  0.00    -0.365 N 
HETATM   16  C   UNL     1     -42.241  60.245 -60.650  1.00  0.00     0.033 A 
HETATM   17  H   UNL     1     -41.170  62.636 -61.808  1.00  0.00     0.165 HD
HETATM   18  C   UNL     1     -40.290  63.219 -59.970  1.00  0.00     0.089 A 
HETATM   19  C   UNL     1     -42.568  59.233 -59.736  1.00  0.00     0.032 A 
ENDBRANCH   5  10
BRANCH   1  20
HETATM   20  O   UNL     1     -42.105  53.814 -54.708  1.00  0.00    -0.344 OA
BRANCH  20  21
HETATM   21  C   UNL     1     -41.265  53.162 -53.848  1.00  0.00     0.070 A 
HETATM   22  C   UNL     1     -40.712  51.986 -54.363  1.00  0.00     0.060 A 
HETATM   23  C   UNL     1     -39.837  51.224 -53.590  1.00  0.00     0.036 A 
HETATM   24  C   UNL     1     -39.502  51.625 -52.300  1.00  0.00     0.024 A 
HETATM   25 CL   UNL     1     -39.165  49.776 -54.235  1.00  0.00    -0.084 Cl
HETATM   26  C   UNL     1     -40.050  52.797 -51.782  1.00  0.00     0.004 A 
HETATM   27  C   UNL     1     -40.930  53.564 -52.553  1.00  0.00     0.037 A 
ENDBRANCH  20  21
ENDBRANCH   1  20
TORSDOF 3
ENDMDL
MODEL 6
REMARK VINA RESULT:      -7.9      4.665      9.216
REMARK  3 active torsions:
REMARK  status: ('A' for Active; 'I' for Inactive)
REMARK    1  A    between atoms: C_6  and  O_7 
REMARK    2  A    between atoms: O_7  and  C_8 
REMARK       I    between atoms: N_10  and  C_11 
REMARK       I    between atoms: C_11  and  N_12 
REMARK    3  A    between atoms: N_12  and  C_13 
ROOT
HETATM    1  C   UNL     1     -41.751  54.125 -53.290  1.00  0.00     0.148 C 
HETATM    2  C   UNL     1     -41.808  55.583 -52.817  1.00  0.00     0.160 C 
HETATM    3  N   UNL     1     -42.972  56.148 -53.486  1.00  0.00    -0.331 N 
HETATM    4  C   UNL     1     -43.728  57.236 -53.094  1.00  0.00     0.323 C 
HETATM    5  N   UNL     1     -43.134  58.003 -52.119  1.00  0.00    -0.309 N 
HETATM    6  O   UNL     1     -44.827  57.448 -53.597  1.00  0.00    -0.247 OA
HETATM    7  C   UNL     1     -43.468  55.243 -54.506  1.00  0.00     0.130 C 
HETATM    8  C   UNL     1     -42.354  54.230 -54.693  1.00  0.00     0.054 C 
HETATM    9  H   UNL     1     -42.133  57.914 -52.050  1.00  0.00     0.170 HD
ENDROOT
BRANCH   5  10
HETATM   10  C   UNL     1     -43.724  59.037 -51.362  1.00  0.00     0.037 A 
HETATM   11  C   UNL     1     -43.135  60.296 -51.190  1.00  0.00     0.043 A 
HETATM   12  C   UNL     1     -43.809  61.291 -50.452  1.00  0.00    -0.006 A 
HETATM   13  C   UNL     1     -45.055  60.997 -49.904  1.00  0.00     0.042 A 
HETATM   14  C   UNL     1     -43.506  62.638 -50.106  1.00  0.00     0.030 A 
HETATM   15  N   UNL     1     -45.486  62.126 -49.245  1.00  0.00    -0.365 N 
HETATM   16  C   UNL     1     -45.669  59.751 -50.059  1.00  0.00     0.033 A 
HETATM   17  H   UNL     1     -46.363  62.203 -48.749  1.00  0.00     0.165 HD
HETATM   18  C   UNL     1     -44.557  63.127 -49.364  1.00  0.00     0.089 A 
HETATM   19  C   UNL     1     -44.981  58.781 -50.801  1.00  0.00     0.032 A 
ENDBRANCH   5  10
BRANCH   1  20
HETATM   20  O   UNL     1     -40.402  53.676 -53.316  1.00  0.00    -0.344 OA
BRANCH  20  21
HETATM   21  C   UNL     1     -40.161  52.331 -53.365  1.00  0.00     0.070 A 
HETATM   22  C   UNL     1     -39.894  51.747 -52.123  1.00  0.00     0.060 A 
HETATM   23  C   UNL     1     -39.632  50.381 -52.029  1.00  0.00     0.036 A 
HETATM   24  C   UNL     1     -39.637  49.583 -53.169  1.00  0.00     0.024 A 
HETATM   25 CL   UNL     1     -39.301  49.676 -50.495  1.00  0.00    -0.084 Cl
HETATM   26  C   UNL     1     -39.904  50.158 -54.410  1.00  0.00     0.004 A 
HETATM   27  C   UNL     1     -40.166  51.529 -54.508  1.00  0.00     0.037 A 
ENDBRANCH  20  21
ENDBRANCH   1  20
TORSDOF 3
ENDMDL
MODEL 7
REMARK VINA RESULT:      -7.9      4.867      6.612
REMARK  3 active torsions:
REMARK  status: ('A' for Active; 'I' for Inactive)
REMARK    1  A    between atoms: C_6  and  O_7 
REMARK    2  A    between atoms: O_7  and  C_8 
REMARK       I    between atoms: N_10  and  C_11 
REMARK       I    between atoms: C_11  and  N_12 
REMARK    3  A    between atoms: N_12  and  C_13 
ROOT
HETATM    1  C   UNL     1     -43.373  60.421 -51.196  1.00  0.00     0.148 C 
HETATM    2  C   UNL     1     -43.332  58.917 -51.495  1.00  0.00     0.160 C 
HETATM    3  N   UNL     1     -42.313  58.768 -52.526  1.00  0.00    -0.331 N 
HETATM    4  C   UNL     1     -41.572  57.641 -52.826  1.00  0.00     0.323 C 
HETATM    5  N   UNL     1     -42.060  56.488 -52.259  1.00  0.00    -0.309 N 
HETATM    6  O   UNL     1     -40.572  57.721 -53.534  1.00  0.00    -0.247 OA
HETATM    7  C   UNL     1     -41.920  60.063 -53.051  1.00  0.00     0.130 C 
HETATM    8  C   UNL     1     -42.989  61.018 -52.552  1.00  0.00     0.054 C 
HETATM    9  H   UNL     1     -43.033  56.512 -52.001  1.00  0.00     0.170 HD
ENDROOT
BRANCH   5  10
HETATM   10  C   UNL     1     -41.425  55.229 -52.193  1.00  0.00     0.037 A 
HETATM   11  C   UNL     1     -41.251  54.397 -53.306  1.00  0.00     0.043 A 
HETATM   12  C   UNL     1     -40.569  53.170 -53.164  1.00  0.00    -0.006 A 
HETATM   13  C   UNL     1     -40.082  52.810 -51.911  1.00  0.00     0.042 A 
HETATM   14  C   UNL     1     -40.222  52.125 -54.066  1.00  0.00     0.030 A 
HETATM   15  N   UNL     1     -39.467  51.586 -52.051  1.00  0.00    -0.365 N 
HETATM   16  C   UNL     1     -40.239  53.619 -50.782  1.00  0.00     0.033 A 
HETATM   17  H   UNL     1     -39.022  51.077 -51.299  1.00  0.00     0.165 HD
HETATM   18  C   UNL     1     -39.542  51.164 -53.352  1.00  0.00     0.089 A 
HETATM   19  C   UNL     1     -40.916  54.835 -50.950  1.00  0.00     0.032 A 
ENDBRANCH   5  10
BRANCH   1  20
HETATM   20  O   UNL     1     -44.683  60.799 -50.793  1.00  0.00    -0.344 OA
BRANCH  20  21
HETATM   21  C   UNL     1     -44.845  61.396 -49.574  1.00  0.00     0.070 A 
HETATM   22  C   UNL     1     -45.400  60.567 -48.595  1.00  0.00     0.060 A 
HETATM   23  C   UNL     1     -45.618  61.051 -47.305  1.00  0.00     0.036 A 
HETATM   24  C   UNL     1     -45.283  62.361 -46.977  1.00  0.00     0.024 A 
HETATM   25 CL   UNL     1     -46.305  60.021 -46.110  1.00  0.00    -0.084 Cl
HETATM   26  C   UNL     1     -44.728  63.192 -47.948  1.00  0.00     0.004 A 
HETATM   27  C   UNL     1     -44.509  62.711 -49.244  1.00  0.00     0.037 A 
ENDBRANCH  20  21
ENDBRANCH   1  20
TORSDOF 3
ENDMDL
MODEL 8
REMARK VINA RESULT:      -7.7      3.336      9.266
REMARK  3 active torsions:
REMARK  status: ('A' for Active; 'I' for Inactive)
REMARK    1  A    between atoms: C_6  and  O_7 
REMARK    2  A    between atoms: O_7  and  C_8 
REMARK       I    between atoms: N_10  and  C_11 
REMARK       I    between atoms: C_11  and  N_12 
REMARK    3  A    between atoms: N_12  and  C_13 
ROOT
HETATM    1  C   UNL     1     -42.174  54.570 -54.531  1.00  0.00     0.148 C 
HETATM    2  C   UNL     1     -42.151  55.324 -55.867  1.00  0.00     0.160 C 
HETATM    3  N   UNL     1     -43.179  56.347 -55.737  1.00  0.00    -0.331 N 
HETATM    4  C   UNL     1     -43.273  57.543 -56.422  1.00  0.00     0.323 C 
HETATM    5  N   UNL     1     -42.451  57.620 -57.522  1.00  0.00    -0.309 N 
HETATM    6  O   UNL     1     -44.033  58.427 -56.038  1.00  0.00    -0.247 OA
HETATM    7  C   UNL     1     -43.985  56.119 -54.551  1.00  0.00     0.130 C 
HETATM    8  C   UNL     1     -43.644  54.703 -54.125  1.00  0.00     0.054 C 
HETATM    9  H   UNL     1     -42.152  56.735 -57.900  1.00  0.00     0.170 HD
ENDROOT
BRANCH   5  10
HETATM   10  C   UNL     1     -42.154  58.763 -58.294  1.00  0.00     0.037 A 
HETATM   11  C   UNL     1     -42.328  58.819 -59.682  1.00  0.00     0.043 A 
HETATM   12  C   UNL     1     -42.046  60.014 -60.377  1.00  0.00    -0.006 A 
HETATM   13  C   UNL     1     -41.597  61.121 -59.661  1.00  0.00     0.042 A 
HETATM   14  C   UNL     1     -42.122  60.402 -61.744  1.00  0.00     0.030 A 
HETATM   15  N   UNL     1     -41.402  62.139 -60.567  1.00  0.00    -0.365 N 
HETATM   16  C   UNL     1     -41.414  61.096 -58.275  1.00  0.00     0.033 A 
HETATM   17  H   UNL     1     -41.075  63.065 -60.329  1.00  0.00     0.165 HD
HETATM   18  C   UNL     1     -41.721  61.715 -61.830  1.00  0.00     0.089 A 
HETATM   19  C   UNL     1     -41.706  59.898 -57.608  1.00  0.00     0.032 A 
ENDBRANCH   5  10
BRANCH   1  20
HETATM   20  O   UNL     1     -41.792  53.215 -54.732  1.00  0.00    -0.344 OA
BRANCH  20  21
HETATM   21  C   UNL     1     -40.971  52.624 -53.812  1.00  0.00     0.070 A 
HETATM   22  C   UNL     1     -40.834  53.339 -52.618  1.00  0.00     0.060 A 
HETATM   23  C   UNL     1     -40.026  52.848 -51.594  1.00  0.00     0.036 A 
HETATM   24  C   UNL     1     -39.349  51.641 -51.746  1.00  0.00     0.024 A 
HETATM   25 CL   UNL     1     -39.863  53.738 -50.130  1.00  0.00    -0.084 Cl
HETATM   26  C   UNL     1     -39.483  50.924 -52.933  1.00  0.00     0.004 A 
HETATM   27  C   UNL     1     -40.291  51.413 -53.964  1.00  0.00     0.037 A 
ENDBRANCH  20  21
ENDBRANCH   1  20
TORSDOF 3
ENDMDL
MODEL 9
REMARK VINA RESULT:      -7.6      4.237      8.982
REMARK  3 active torsions:
REMARK  status: ('A' for Active; 'I' for Inactive)
REMARK    1  A    between atoms: C_6  and  O_7 
REMARK    2  A    between atoms: O_7  and  C_8 
REMARK       I    between atoms: N_10  and  C_11 
REMARK       I    between atoms: C_11  and  N_12 
REMARK    3  A    between atoms: N_12  and  C_13 
ROOT
HETATM    1  C   UNL     1     -42.288  55.143 -53.772  1.00  0.00     0.148 C 
HETATM    2  C   UNL     1     -42.150  56.587 -53.273  1.00  0.00     0.160 C 
HETATM    3  N   UNL     1     -43.390  57.240 -53.668  1.00  0.00    -0.331 N 
HETATM    4  C   UNL     1     -43.974  58.359 -53.106  1.00  0.00     0.323 C 
HETATM    5  N   UNL     1     -43.139  59.059 -52.268  1.00  0.00    -0.309 N 
HETATM    6  O   UNL     1     -45.139  58.651 -53.359  1.00  0.00    -0.247 OA
HETATM    7  C   UNL     1     -44.149  56.397 -54.574  1.00  0.00     0.130 C 
HETATM    8  C   UNL     1     -43.168  55.325 -55.011  1.00  0.00     0.054 C 
HETATM    9  H   UNL     1     -42.154  58.909 -52.416  1.00  0.00     0.170 HD
ENDROOT
BRANCH   5  10
HETATM   10  C   UNL     1     -43.487  60.104 -51.385  1.00  0.00     0.037 A 
HETATM   11  C   UNL     1     -44.389  59.945 -50.325  1.00  0.00     0.043 A 
HETATM   12  C   UNL     1     -44.653  61.029 -49.462  1.00  0.00    -0.006 A 
HETATM   13  C   UNL     1     -44.007  62.243 -49.684  1.00  0.00     0.042 A 
HETATM   14  C   UNL     1     -45.482  61.199 -48.317  1.00  0.00     0.030 A 
HETATM   15  N   UNL     1     -44.437  63.116 -48.711  1.00  0.00    -0.365 N 
HETATM   16  C   UNL     1     -43.102  62.431 -50.733  1.00  0.00     0.033 A 
HETATM   17  H   UNL     1     -44.135  64.076 -48.626  1.00  0.00     0.165 HD
HETATM   18  C   UNL     1     -45.327  62.493 -47.876  1.00  0.00     0.089 A 
HETATM   19  C   UNL     1     -42.853  61.338 -51.573  1.00  0.00     0.032 A 
ENDBRANCH   5  10
BRANCH   1  20
HETATM   20  O   UNL     1     -41.007  54.616 -54.093  1.00  0.00    -0.344 OA
BRANCH  20  21
HETATM   21  C   UNL     1     -40.548  53.539 -53.387  1.00  0.00     0.070 A 
HETATM   22  C   UNL     1     -40.285  52.408 -54.165  1.00  0.00     0.060 A 
HETATM   23  C   UNL     1     -39.810  51.240 -53.571  1.00  0.00     0.036 A 
HETATM   24  C   UNL     1     -39.590  51.187 -52.197  1.00  0.00     0.024 A 
HETATM   25 CL   UNL     1     -39.493  49.854 -54.540  1.00  0.00    -0.084 Cl
HETATM   26  C   UNL     1     -39.849  52.311 -51.416  1.00  0.00     0.004 A 
HETATM   27  C   UNL     1     -40.327  53.485 -52.008  1.00  0.00     0.037 A 
ENDBRANCH  20  21
ENDBRANCH   1  20
TORSDOF 3
ENDMDL
MODEL 10
REMARK VINA RESULT:      -7.6     15.768     17.941
REMARK  3 active torsions:
REMARK  status: ('A' for Active; 'I' for Inactive)
REMARK    1  A    between atoms: C_6  and  O_7 
REMARK    2  A    between atoms: O_7  and  C_8 
REMARK       I    between atoms: N_10  and  C_11 
REMARK       I    between atoms: C_11  and  N_12 
REMARK    3  A    between atoms: N_12  and  C_13 
ROOT
HETATM    1  C   UNL     1     -35.779  40.679 -54.923  1.00  0.00     0.148 C 
HETATM    2  C   UNL     1     -34.692  40.281 -53.916  1.00  0.00     0.160 C 
HETATM    3  N   UNL     1     -34.787  41.271 -52.852  1.00  0.00    -0.331 N 
HETATM    4  C   UNL     1     -34.383  41.142 -51.537  1.00  0.00     0.323 C 
HETATM    5  N   UNL     1     -33.568  40.058 -51.310  1.00  0.00    -0.309 N 
HETATM    6  O   UNL     1     -34.753  41.946 -50.687  1.00  0.00    -0.247 OA
HETATM    7  C   UNL     1     -35.653  42.368 -53.246  1.00  0.00     0.130 C 
HETATM    8  C   UNL     1     -35.826  42.198 -54.744  1.00  0.00     0.054 C 
HETATM    9  H   UNL     1     -33.089  39.701 -52.121  1.00  0.00     0.170 HD
ENDROOT
BRANCH   5  10
HETATM   10  C   UNL     1     -33.168  39.531 -50.064  1.00  0.00     0.037 A 
HETATM   11  C   UNL     1     -32.023  39.959 -49.380  1.00  0.00     0.043 A 
HETATM   12  C   UNL     1     -31.714  39.410 -48.118  1.00  0.00    -0.006 A 
HETATM   13  C   UNL     1     -32.560  38.446 -47.576  1.00  0.00     0.042 A 
HETATM   14  C   UNL     1     -30.666  39.623 -47.180  1.00  0.00     0.030 A 
HETATM   15  N   UNL     1     -32.036  38.085 -46.356  1.00  0.00    -0.365 N 
HETATM   16  C   UNL     1     -33.709  37.998 -48.234  1.00  0.00     0.033 A 
HETATM   17  H   UNL     1     -32.442  37.398 -45.736  1.00  0.00     0.165 HD
HETATM   18  C   UNL     1     -30.891  38.795 -46.104  1.00  0.00     0.089 A 
HETATM   19  C   UNL     1     -33.997  38.563 -49.484  1.00  0.00     0.032 A 
ENDBRANCH   5  10
BRANCH   1  20
HETATM   20  O   UNL     1     -35.383  40.303 -56.237  1.00  0.00    -0.344 OA
BRANCH  20  21
HETATM   21  C   UNL     1     -36.343  40.203 -57.204  1.00  0.00     0.070 A 
HETATM   22  C   UNL     1     -36.372  41.274 -58.102  1.00  0.00     0.060 A 
HETATM   23  C   UNL     1     -37.303  41.297 -59.140  1.00  0.00     0.036 A 
HETATM   24  C   UNL     1     -38.211  40.254 -59.296  1.00  0.00     0.024 A 
HETATM   25 CL   UNL     1     -37.330  42.623 -60.236  1.00  0.00    -0.084 Cl
HETATM   26  C   UNL     1     -38.186  39.182 -58.406  1.00  0.00     0.004 A 
HETATM   27  C   UNL     1     -37.255  39.156 -57.362  1.00  0.00     0.037 A 
ENDBRANCH  20  21
ENDBRANCH   1  20
TORSDOF 3
ENDMDL
