MODEL 1
REMARK VINA RESULT:      -8.5      0.000      0.000
REMARK  2 active torsions:
REMARK  status: ('A' for Active; 'I' for Inactive)
REMARK    1  A    between atoms: C_5  and  C_6 
REMARK    2  A    between atoms: C_9  and  C_10 
ROOT
HETATM    1  C   UNL     1     -41.474  54.625 -50.913  1.00  0.00     0.220 C 
HETATM    2  N   UNL     1     -42.716  55.195 -51.402  1.00  0.00    -0.126 NA
HETATM    3  N   UNL     1     -42.522  56.587 -51.537  1.00  0.00    -0.126 NA
HETATM    4  C   UNL     1     -43.774  57.238 -51.204  1.00  0.00     0.220 C 
HETATM    5  N   UNL     1     -44.674  56.152 -50.912  1.00  0.00    -0.324 N 
HETATM    6  C   UNL     1     -43.956  54.964 -50.828  1.00  0.00     0.315 C 
HETATM    7  O   UNL     1     -44.345  53.956 -50.265  1.00  0.00    -0.252 OA
HETATM    8  C   UNL     1     -41.297  56.929 -50.986  1.00  0.00     0.315 C 
HETATM    9  O   UNL     1     -40.921  58.029 -50.620  1.00  0.00    -0.252 OA
HETATM   10  N   UNL     1     -40.580  55.749 -50.815  1.00  0.00    -0.324 N 
HETATM   11  H   UNL     1     -45.539  56.254 -50.406  1.00  0.00     0.165 HD
HETATM   12  H   UNL     1     -39.730  55.750 -50.275  1.00  0.00     0.165 HD
ENDROOT
BRANCH   1  13
HETATM   13  C   UNL     1     -40.931  53.544 -51.815  1.00  0.00    -0.020 A 
HETATM   14  C   UNL     1     -41.317  53.456 -53.163  1.00  0.00     0.011 A 
HETATM   15  C   UNL     1     -40.854  52.419 -53.975  1.00  0.00     0.007 A 
HETATM   16  C   UNL     1     -39.990  51.448 -53.458  1.00  0.00    -0.062 A 
HETATM   17  C   UNL     1     -39.498  50.326 -54.322  1.00  0.00     0.048 C 
HETATM   18  C   UNL     1     -39.560  51.561 -52.132  1.00  0.00     0.007 A 
HETATM   19  C   UNL     1     -40.026  52.596 -51.317  1.00  0.00     0.011 A 
ENDBRANCH   1  13
BRANCH   4  20
HETATM   20  C   UNL     1     -44.289  58.120 -52.315  1.00  0.00    -0.020 A 
HETATM   21  C   UNL     1     -44.402  57.645 -53.633  1.00  0.00     0.011 A 
HETATM   22  C   UNL     1     -44.824  58.486 -54.664  1.00  0.00     0.007 A 
HETATM   23  C   UNL     1     -45.146  59.820 -54.401  1.00  0.00    -0.062 A 
HETATM   24  C   UNL     1     -45.590  60.728 -55.510  1.00  0.00     0.048 C 
HETATM   25  C   UNL     1     -45.089  60.286 -53.084  1.00  0.00     0.007 A 
HETATM   26  C   UNL     1     -44.663  59.446 -52.051  1.00  0.00     0.011 A 
ENDBRANCH   4  20
TORSDOF 2
ENDMDL
MODEL 2
REMARK VINA RESULT:      -8.5      0.073      7.095
REMARK  2 active torsions:
REMARK  status: ('A' for Active; 'I' for Inactive)
REMARK    1  A    between atoms: C_5  and  C_6 
REMARK    2  A    between atoms: C_9  and  C_10 
ROOT
HETATM    1  C   UNL     1     -43.790  57.289 -51.208  1.00  0.00     0.220 C 
HETATM    2  N   UNL     1     -42.530  56.643 -51.529  1.00  0.00    -0.126 NA
HETATM    3  N   UNL     1     -42.717  55.250 -51.380  1.00  0.00    -0.126 NA
HETATM    4  C   UNL     1     -41.475  54.694 -50.880  1.00  0.00     0.220 C 
HETATM    5  N   UNL     1     -40.588  55.825 -50.790  1.00  0.00    -0.324 N 
HETATM    6  C   UNL     1     -41.311  56.998 -50.976  1.00  0.00     0.315 C 
HETATM    7  O   UNL     1     -40.944  58.104 -50.620  1.00  0.00    -0.252 OA
HETATM    8  C   UNL     1     -43.959  55.018 -50.811  1.00  0.00     0.315 C 
HETATM    9  O   UNL     1     -44.344  54.014 -50.239  1.00  0.00    -0.252 OA
HETATM   10  N   UNL     1     -44.684  56.201 -50.910  1.00  0.00    -0.324 N 
HETATM   11  H   UNL     1     -39.740  55.837 -50.245  1.00  0.00     0.165 HD
HETATM   12  H   UNL     1     -45.552  56.304 -50.408  1.00  0.00     0.165 HD
ENDROOT
BRANCH   1  13
HETATM   13  C   UNL     1     -44.305  58.156 -52.331  1.00  0.00    -0.020 A 
HETATM   14  C   UNL     1     -44.446  57.654 -53.636  1.00  0.00     0.011 A 
HETATM   15  C   UNL     1     -44.868  58.480 -54.679  1.00  0.00     0.007 A 
HETATM   16  C   UNL     1     -45.164  59.825 -54.441  1.00  0.00    -0.062 A 
HETATM   17  C   UNL     1     -45.609  60.719 -55.560  1.00  0.00     0.048 C 
HETATM   18  C   UNL     1     -45.078  60.318 -53.135  1.00  0.00     0.007 A 
HETATM   19  C   UNL     1     -44.651  59.494 -52.090  1.00  0.00     0.011 A 
ENDBRANCH   1  13
BRANCH   4  20
HETATM   20  C   UNL     1     -40.921  53.607 -51.769  1.00  0.00    -0.020 A 
HETATM   21  C   UNL     1     -41.247  53.541 -53.134  1.00  0.00     0.011 A 
HETATM   22  C   UNL     1     -40.777  52.499 -53.934  1.00  0.00     0.007 A 
HETATM   23  C   UNL     1     -39.966  51.499 -53.388  1.00  0.00    -0.062 A 
HETATM   24  C   UNL     1     -39.467  50.374 -54.245  1.00  0.00     0.048 C 
HETATM   25  C   UNL     1     -39.591  51.587 -52.044  1.00  0.00     0.007 A 
HETATM   26  C   UNL     1     -40.065  52.629 -51.241  1.00  0.00     0.011 A 
ENDBRANCH   4  20
TORSDOF 2
ENDMDL
MODEL 3
REMARK VINA RESULT:      -8.2      3.389      7.639
REMARK  2 active torsions:
REMARK  status: ('A' for Active; 'I' for Inactive)
REMARK    1  A    between atoms: C_5  and  C_6 
REMARK    2  A    between atoms: C_9  and  C_10 
ROOT
HETATM    1  C   UNL     1     -42.859  58.878 -55.412  1.00  0.00     0.220 C 
HETATM    2  N   UNL     1     -41.831  58.041 -54.820  1.00  0.00    -0.126 NA
HETATM    3  N   UNL     1     -42.422  56.796 -54.512  1.00  0.00    -0.126 NA
HETATM    4  C   UNL     1     -41.804  56.309 -53.293  1.00  0.00     0.220 C 
HETATM    5  N   UNL     1     -40.829  57.316 -52.961  1.00  0.00    -0.324 N 
HETATM    6  C   UNL     1     -41.022  58.432 -53.766  1.00  0.00     0.315 C 
HETATM    7  O   UNL     1     -40.615  59.552 -53.510  1.00  0.00    -0.252 OA
HETATM    8  C   UNL     1     -43.791  56.882 -54.709  1.00  0.00     0.315 C 
HETATM    9  O   UNL     1     -44.660  56.158 -54.257  1.00  0.00    -0.252 OA
HETATM   10  N   UNL     1     -44.027  58.037 -55.447  1.00  0.00    -0.324 N 
HETATM   11  H   UNL     1     -40.409  57.417 -52.050  1.00  0.00     0.165 HD
HETATM   12  H   UNL     1     -44.967  58.381 -55.560  1.00  0.00     0.165 HD
ENDROOT
BRANCH   1  13
HETATM   13  C   UNL     1     -42.482  59.386 -56.782  1.00  0.00    -0.020 A 
HETATM   14  C   UNL     1     -42.033  60.703 -56.976  1.00  0.00     0.011 A 
HETATM   15  C   UNL     1     -41.743  61.180 -58.255  1.00  0.00     0.007 A 
HETATM   16  C   UNL     1     -41.889  60.351 -59.370  1.00  0.00    -0.062 A 
HETATM   17  C   UNL     1     -41.589  60.861 -60.748  1.00  0.00     0.048 C 
HETATM   18  C   UNL     1     -42.284  59.022 -59.179  1.00  0.00     0.007 A 
HETATM   19  C   UNL     1     -42.581  58.544 -57.900  1.00  0.00     0.011 A 
ENDBRANCH   1  13
BRANCH   4  20
HETATM   20  C   UNL     1     -41.179  54.945 -53.459  1.00  0.00    -0.020 A 
HETATM   21  C   UNL     1     -40.734  54.492 -54.713  1.00  0.00     0.011 A 
HETATM   22  C   UNL     1     -40.211  53.206 -54.867  1.00  0.00     0.007 A 
HETATM   23  C   UNL     1     -40.118  52.346 -53.769  1.00  0.00    -0.062 A 
HETATM   24  C   UNL     1     -39.565  50.961 -53.934  1.00  0.00     0.048 C 
HETATM   25  C   UNL     1     -40.507  52.808 -52.508  1.00  0.00     0.007 A 
HETATM   26  C   UNL     1     -41.034  54.093 -52.354  1.00  0.00     0.011 A 
ENDBRANCH   4  20
TORSDOF 2
ENDMDL
MODEL 4
REMARK VINA RESULT:      -8.2      3.423      4.183
REMARK  2 active torsions:
REMARK  status: ('A' for Active; 'I' for Inactive)
REMARK    1  A    between atoms: C_5  and  C_6 
REMARK    2  A    between atoms: C_9  and  C_10 
ROOT
HETATM    1  C   UNL     1     -41.888  56.305 -53.347  1.00  0.00     0.220 C 
HETATM    2  N   UNL     1     -42.515  56.745 -54.580  1.00  0.00    -0.126 NA
HETATM    3  N   UNL     1     -41.942  57.988 -54.929  1.00  0.00    -0.126 NA
HETATM    4  C   UNL     1     -42.982  58.791 -55.544  1.00  0.00     0.220 C 
HETATM    5  N   UNL     1     -44.138  57.933 -55.551  1.00  0.00    -0.324 N 
HETATM    6  C   UNL     1     -43.885  56.807 -54.777  1.00  0.00     0.315 C 
HETATM    7  O   UNL     1     -44.743  56.084 -54.301  1.00  0.00    -0.252 OA
HETATM    8  C   UNL     1     -41.136  58.423 -53.889  1.00  0.00     0.315 C 
HETATM    9  O   UNL     1     -40.745  59.555 -53.668  1.00  0.00    -0.252 OA
HETATM   10  N   UNL     1     -40.928  57.334 -53.049  1.00  0.00    -0.324 N 
HETATM   11  H   UNL     1     -45.084  58.260 -55.672  1.00  0.00     0.165 HD
HETATM   12  H   UNL     1     -40.507  57.470 -52.143  1.00  0.00     0.165 HD
ENDROOT
BRANCH   1  13
HETATM   13  C   UNL     1     -41.244  54.946 -53.472  1.00  0.00    -0.020 A 
HETATM   14  C   UNL     1     -40.805  54.456 -54.714  1.00  0.00     0.011 A 
HETATM   15  C   UNL     1     -40.263  53.175 -54.827  1.00  0.00     0.007 A 
HETATM   16  C   UNL     1     -40.144  52.354 -53.702  1.00  0.00    -0.062 A 
HETATM   17  C   UNL     1     -39.573  50.973 -53.819  1.00  0.00     0.048 C 
HETATM   18  C   UNL     1     -40.529  52.856 -52.454  1.00  0.00     0.007 A 
HETATM   19  C   UNL     1     -41.076  54.136 -52.339  1.00  0.00     0.011 A 
ENDBRANCH   1  13
BRANCH   4  20
HETATM   20  C   UNL     1     -42.614  59.261 -56.931  1.00  0.00    -0.020 A 
HETATM   21  C   UNL     1     -41.911  60.460 -57.134  1.00  0.00     0.011 A 
HETATM   22  C   UNL     1     -41.627  60.915 -58.423  1.00  0.00     0.007 A 
HETATM   23  C   UNL     1     -42.038  60.179 -59.539  1.00  0.00    -0.062 A 
HETATM   24  C   UNL     1     -41.742  60.672 -60.924  1.00  0.00     0.048 C 
HETATM   25  C   UNL     1     -42.689  58.957 -59.344  1.00  0.00     0.007 A 
HETATM   26  C   UNL     1     -42.977  58.503 -58.054  1.00  0.00     0.011 A 
ENDBRANCH   4  20
TORSDOF 2
ENDMDL
MODEL 5
REMARK VINA RESULT:      -8.0      2.050      2.646
REMARK  2 active torsions:
REMARK  status: ('A' for Active; 'I' for Inactive)
REMARK    1  A    between atoms: C_5  and  C_6 
REMARK    2  A    between atoms: C_9  and  C_10 
ROOT
HETATM    1  C   UNL     1     -41.398  56.593 -52.750  1.00  0.00     0.220 C 
HETATM    2  N   UNL     1     -42.773  56.889 -53.110  1.00  0.00    -0.126 NA
HETATM    3  N   UNL     1     -42.761  58.047 -53.918  1.00  0.00    -0.126 NA
HETATM    4  C   UNL     1     -43.961  58.804 -53.615  1.00  0.00     0.220 C 
HETATM    5  N   UNL     1     -44.648  58.005 -52.634  1.00  0.00    -0.324 N 
HETATM    6  C   UNL     1     -43.812  56.984 -52.198  1.00  0.00     0.315 C 
HETATM    7  O   UNL     1     -43.950  56.371 -51.154  1.00  0.00    -0.252 OA
HETATM    8  C   UNL     1     -41.483  58.583 -53.924  1.00  0.00     0.315 C 
HETATM    9  O   UNL     1     -41.148  59.716 -54.219  1.00  0.00    -0.252 OA
HETATM   10  N   UNL     1     -40.628  57.610 -53.417  1.00  0.00    -0.324 N 
HETATM   11  H   UNL     1     -45.376  58.354 -52.029  1.00  0.00     0.165 HD
HETATM   12  H   UNL     1     -39.679  57.849 -53.177  1.00  0.00     0.165 HD
ENDROOT
BRANCH   1  13
HETATM   13  C   UNL     1     -40.974  55.202 -53.155  1.00  0.00    -0.020 A 
HETATM   14  C   UNL     1     -40.650  54.897 -54.488  1.00  0.00     0.011 A 
HETATM   15  C   UNL     1     -40.315  53.594 -54.863  1.00  0.00     0.007 A 
HETATM   16  C   UNL     1     -40.292  52.569 -53.914  1.00  0.00    -0.062 A 
HETATM   17  C   UNL     1     -39.943  51.166 -54.312  1.00  0.00     0.048 C 
HETATM   18  C   UNL     1     -40.562  52.877 -52.576  1.00  0.00     0.007 A 
HETATM   19  C   UNL     1     -40.902  54.179 -52.200  1.00  0.00     0.011 A 
ENDBRANCH   1  13
BRANCH   4  20
HETATM   20  C   UNL     1     -44.812  59.065 -54.834  1.00  0.00    -0.020 A 
HETATM   21  C   UNL     1     -45.292  58.011 -55.630  1.00  0.00     0.011 A 
HETATM   22  C   UNL     1     -46.029  58.266 -56.788  1.00  0.00     0.007 A 
HETATM   23  C   UNL     1     -46.306  59.580 -57.174  1.00  0.00    -0.062 A 
HETATM   24  C   UNL     1     -47.090  59.855 -58.423  1.00  0.00     0.048 C 
HETATM   25  C   UNL     1     -45.879  60.633 -56.359  1.00  0.00     0.007 A 
HETATM   26  C   UNL     1     -45.138  60.379 -55.201  1.00  0.00     0.011 A 
ENDBRANCH   4  20
TORSDOF 2
ENDMDL
MODEL 6
REMARK VINA RESULT:      -8.0     15.600     17.677
REMARK  2 active torsions:
REMARK  status: ('A' for Active; 'I' for Inactive)
REMARK    1  A    between atoms: C_5  and  C_6 
REMARK    2  A    between atoms: C_9  and  C_10 
ROOT
HETATM    1  C   UNL     1     -37.701  41.340 -55.616  1.00  0.00     0.220 C 
HETATM    2  N   UNL     1     -36.500  41.316 -54.800  1.00  0.00    -0.126 NA
HETATM    3  N   UNL     1     -36.903  41.179 -53.453  1.00  0.00    -0.126 NA
HETATM    4  C   UNL     1     -35.971  41.935 -52.640  1.00  0.00     0.220 C 
HETATM    5  N   UNL     1     -35.023  42.466 -53.584  1.00  0.00    -0.324 N 
HETATM    6  C   UNL     1     -35.489  42.259 -54.877  1.00  0.00     0.315 C 
HETATM    7  O   UNL     1     -35.117  42.879 -55.858  1.00  0.00    -0.252 OA
HETATM    8  C   UNL     1     -38.281  41.303 -53.378  1.00  0.00     0.315 C 
HETATM    9  O   UNL     1     -38.956  41.566 -52.398  1.00  0.00    -0.252 OA
HETATM   10  N   UNL     1     -38.776  41.179 -54.672  1.00  0.00    -0.324 N 
HETATM   11  H   UNL     1     -34.401  43.236 -53.390  1.00  0.00     0.165 HD
HETATM   12  H   UNL     1     -39.739  41.405 -54.867  1.00  0.00     0.165 HD
ENDROOT
BRANCH   1  13
HETATM   13  C   UNL     1     -37.711  40.266 -56.676  1.00  0.00    -0.020 A 
HETATM   14  C   UNL     1     -38.331  40.473 -57.920  1.00  0.00     0.011 A 
HETATM   15  C   UNL     1     -38.384  39.453 -58.872  1.00  0.00     0.007 A 
HETATM   16  C   UNL     1     -37.815  38.205 -58.604  1.00  0.00    -0.062 A 
HETATM   17  C   UNL     1     -37.878  37.103 -59.618  1.00  0.00     0.048 C 
HETATM   18  C   UNL     1     -37.149  38.010 -57.389  1.00  0.00     0.007 A 
HETATM   19  C   UNL     1     -37.099  39.028 -56.433  1.00  0.00     0.011 A 
ENDBRANCH   1  13
BRANCH   4  20
HETATM   20  C   UNL     1     -35.305  41.094 -51.577  1.00  0.00    -0.020 A 
HETATM   21  C   UNL     1     -33.939  41.238 -51.280  1.00  0.00     0.011 A 
HETATM   22  C   UNL     1     -33.321  40.415 -50.338  1.00  0.00     0.007 A 
HETATM   23  C   UNL     1     -34.055  39.431 -49.668  1.00  0.00    -0.062 A 
HETATM   24  C   UNL     1     -33.389  38.540 -48.661  1.00  0.00     0.048 C 
HETATM   25  C   UNL     1     -35.426  39.319 -49.917  1.00  0.00     0.007 A 
HETATM   26  C   UNL     1     -36.046  40.140 -50.864  1.00  0.00     0.011 A 
ENDBRANCH   4  20
TORSDOF 2
ENDMDL
MODEL 7
REMARK VINA RESULT:      -8.0     15.598     17.350
REMARK  2 active torsions:
REMARK  status: ('A' for Active; 'I' for Inactive)
REMARK    1  A    between atoms: C_5  and  C_6 
REMARK    2  A    between atoms: C_9  and  C_10 
ROOT
HETATM    1  C   UNL     1     -35.966  41.936 -52.638  1.00  0.00     0.220 C 
HETATM    2  N   UNL     1     -36.900  41.179 -53.452  1.00  0.00    -0.126 NA
HETATM    3  N   UNL     1     -36.497  41.314 -54.799  1.00  0.00    -0.126 NA
HETATM    4  C   UNL     1     -37.697  41.340 -55.613  1.00  0.00     0.220 C 
HETATM    5  N   UNL     1     -38.772  41.182 -54.669  1.00  0.00    -0.324 N 
HETATM    6  C   UNL     1     -38.278  41.307 -53.376  1.00  0.00     0.315 C 
HETATM    7  O   UNL     1     -38.952  41.572 -52.396  1.00  0.00    -0.252 OA
HETATM    8  C   UNL     1     -35.483  42.255 -54.877  1.00  0.00     0.315 C 
HETATM    9  O   UNL     1     -35.109  42.873 -55.857  1.00  0.00    -0.252 OA
HETATM   10  N   UNL     1     -35.017  42.463 -53.583  1.00  0.00    -0.324 N 
HETATM   11  H   UNL     1     -39.735  41.410 -54.865  1.00  0.00     0.165 HD
HETATM   12  H   UNL     1     -34.393  43.231 -53.389  1.00  0.00     0.165 HD
ENDROOT
BRANCH   1  13
HETATM   13  C   UNL     1     -35.302  41.095 -51.575  1.00  0.00    -0.020 A 
HETATM   14  C   UNL     1     -33.940  41.248 -51.267  1.00  0.00     0.011 A 
HETATM   15  C   UNL     1     -33.322  40.426 -50.323  1.00  0.00     0.007 A 
HETATM   16  C   UNL     1     -34.052  39.434 -49.662  1.00  0.00    -0.062 A 
HETATM   17  C   UNL     1     -33.392  38.541 -48.655  1.00  0.00     0.048 C 
HETATM   18  C   UNL     1     -35.421  39.312 -49.925  1.00  0.00     0.007 A 
HETATM   19  C   UNL     1     -36.040  40.131 -50.873  1.00  0.00     0.011 A 
ENDBRANCH   1  13
BRANCH   4  20
HETATM   20  C   UNL     1     -37.708  40.264 -56.673  1.00  0.00    -0.020 A 
HETATM   21  C   UNL     1     -38.306  40.479 -57.926  1.00  0.00     0.011 A 
HETATM   22  C   UNL     1     -38.363  39.458 -58.877  1.00  0.00     0.007 A 
HETATM   23  C   UNL     1     -37.820  38.201 -58.598  1.00  0.00    -0.062 A 
HETATM   24  C   UNL     1     -37.888  37.101 -59.615  1.00  0.00     0.048 C 
HETATM   25  C   UNL     1     -37.174  37.996 -57.374  1.00  0.00     0.007 A 
HETATM   26  C   UNL     1     -37.121  39.016 -56.420  1.00  0.00     0.011 A 
ENDBRANCH   4  20
TORSDOF 2
ENDMDL
MODEL 8
REMARK VINA RESULT:      -7.9      1.957      7.406
REMARK  2 active torsions:
REMARK  status: ('A' for Active; 'I' for Inactive)
REMARK    1  A    between atoms: C_5  and  C_6 
REMARK    2  A    between atoms: C_9  and  C_10 
ROOT
HETATM    1  C   UNL     1     -43.863  58.783 -53.473  1.00  0.00     0.220 C 
HETATM    2  N   UNL     1     -42.701  57.976 -53.800  1.00  0.00    -0.126 NA
HETATM    3  N   UNL     1     -42.742  56.822 -52.986  1.00  0.00    -0.126 NA
HETATM    4  C   UNL     1     -41.373  56.472 -52.657  1.00  0.00     0.220 C 
HETATM    5  N   UNL     1     -40.578  57.456 -53.345  1.00  0.00    -0.324 N 
HETATM    6  C   UNL     1     -41.404  58.460 -53.837  1.00  0.00     0.315 C 
HETATM    7  O   UNL     1     -41.030  59.578 -54.145  1.00  0.00    -0.252 OA
HETATM    8  C   UNL     1     -43.755  56.962 -52.052  1.00  0.00     0.315 C 
HETATM    9  O   UNL     1     -43.894  56.360 -51.002  1.00  0.00    -0.252 OA
HETATM   10  N   UNL     1     -44.560  58.016 -52.473  1.00  0.00    -0.324 N 
HETATM   11  H   UNL     1     -39.614  57.656 -53.128  1.00  0.00     0.165 HD
HETATM   12  H   UNL     1     -45.258  58.396 -51.854  1.00  0.00     0.165 HD
ENDROOT
BRANCH   1  13
HETATM   13  C   UNL     1     -44.731  59.073 -54.673  1.00  0.00    -0.020 A 
HETATM   14  C   UNL     1     -45.200  58.040 -55.502  1.00  0.00     0.011 A 
HETATM   15  C   UNL     1     -45.953  58.324 -56.643  1.00  0.00     0.007 A 
HETATM   16  C   UNL     1     -46.259  59.646 -56.978  1.00  0.00    -0.062 A 
HETATM   17  C   UNL     1     -47.060  59.957 -58.207  1.00  0.00     0.048 C 
HETATM   18  C   UNL     1     -45.841  60.675 -56.127  1.00  0.00     0.007 A 
HETATM   19  C   UNL     1     -45.083  60.393 -54.988  1.00  0.00     0.011 A 
ENDBRANCH   1  13
BRANCH   4  20
HETATM   20  C   UNL     1     -41.015  55.064 -53.065  1.00  0.00    -0.020 A 
HETATM   21  C   UNL     1     -40.945  54.024 -52.122  1.00  0.00     0.011 A 
HETATM   22  C   UNL     1     -40.555  52.738 -52.501  1.00  0.00     0.007 A 
HETATM   23  C   UNL     1     -40.231  52.461 -53.832  1.00  0.00    -0.062 A 
HETATM   24  C   UNL     1     -39.804  51.082 -54.238  1.00  0.00     0.048 C 
HETATM   25  C   UNL     1     -40.352  53.476 -54.786  1.00  0.00     0.007 A 
HETATM   26  C   UNL     1     -40.738  54.765 -54.407  1.00  0.00     0.011 A 
ENDBRANCH   4  20
TORSDOF 2
ENDMDL
MODEL 9
REMARK VINA RESULT:      -7.8      1.195      1.395
REMARK  2 active torsions:
REMARK  status: ('A' for Active; 'I' for Inactive)
REMARK    1  A    between atoms: C_5  and  C_6 
REMARK    2  A    between atoms: C_9  and  C_10 
ROOT
HETATM    1  C   UNL     1     -41.652  55.699 -50.737  1.00  0.00     0.220 C 
HETATM    2  N   UNL     1     -42.769  56.423 -51.316  1.00  0.00    -0.126 NA
HETATM    3  N   UNL     1     -42.395  57.782 -51.403  1.00  0.00    -0.126 NA
HETATM    4  C   UNL     1     -43.584  58.578 -51.161  1.00  0.00     0.220 C 
HETATM    5  N   UNL     1     -44.630  57.607 -50.970  1.00  0.00    -0.324 N 
HETATM    6  C   UNL     1     -44.072  56.340 -50.853  1.00  0.00     0.315 C 
HETATM    7  O   UNL     1     -44.627  55.380 -50.347  1.00  0.00    -0.252 OA
HETATM    8  C   UNL     1     -41.190  57.964 -50.745  1.00  0.00     0.315 C 
HETATM    9  O   UNL     1     -40.716  59.005 -50.325  1.00  0.00    -0.252 OA
HETATM   10  N   UNL     1     -40.640  56.703 -50.540  1.00  0.00    -0.324 N 
HETATM   11  H   UNL     1     -45.517  57.810 -50.535  1.00  0.00     0.165 HD
HETATM   12  H   UNL     1     -39.844  56.593 -49.931  1.00  0.00     0.165 HD
ENDROOT
BRANCH   1  13
HETATM   13  C   UNL     1     -41.169  54.570 -51.615  1.00  0.00    -0.020 A 
HETATM   14  C   UNL     1     -41.490  54.519 -52.982  1.00  0.00     0.011 A 
HETATM   15  C   UNL     1     -41.088  53.441 -53.772  1.00  0.00     0.007 A 
HETATM   16  C   UNL     1     -40.350  52.392 -53.216  1.00  0.00    -0.062 A 
HETATM   17  C   UNL     1     -39.924  51.226 -54.058  1.00  0.00     0.048 C 
HETATM   18  C   UNL     1     -39.981  52.463 -51.868  1.00  0.00     0.007 A 
HETATM   19  C   UNL     1     -40.388  53.538 -51.074  1.00  0.00     0.011 A 
ENDBRANCH   1  13
BRANCH   4  20
HETATM   20  C   UNL     1     -43.890  59.530 -52.292  1.00  0.00    -0.020 A 
HETATM   21  C   UNL     1     -44.993  59.327 -53.140  1.00  0.00     0.011 A 
HETATM   22  C   UNL     1     -45.234  60.180 -54.219  1.00  0.00     0.007 A 
HETATM   23  C   UNL     1     -44.380  61.257 -54.472  1.00  0.00    -0.062 A 
HETATM   24  C   UNL     1     -44.632  62.169 -55.636  1.00  0.00     0.048 C 
HETATM   25  C   UNL     1     -43.313  61.498 -53.601  1.00  0.00     0.007 A 
HETATM   26  C   UNL     1     -43.068  60.642 -52.523  1.00  0.00     0.011 A 
ENDBRANCH   4  20
TORSDOF 2
ENDMDL
MODEL 10
REMARK VINA RESULT:      -7.7      2.603      4.117
REMARK  2 active torsions:
REMARK  status: ('A' for Active; 'I' for Inactive)
REMARK    1  A    between atoms: C_5  and  C_6 
REMARK    2  A    between atoms: C_9  and  C_10 
ROOT
HETATM    1  C   UNL     1     -41.788  56.724 -53.906  1.00  0.00     0.220 C 
HETATM    2  N   UNL     1     -41.802  57.791 -52.920  1.00  0.00    -0.126 NA
HETATM    3  N   UNL     1     -43.134  58.247 -52.806  1.00  0.00    -0.126 NA
HETATM    4  C   UNL     1     -43.086  59.676 -52.561  1.00  0.00     0.220 C 
HETATM    5  N   UNL     1     -41.680  59.983 -52.512  1.00  0.00    -0.324 N 
HETATM    6  C   UNL     1     -40.949  58.882 -52.944  1.00  0.00     0.315 C 
HETATM    7  O   UNL     1     -39.800  58.926 -53.349  1.00  0.00    -0.252 OA
HETATM    8  C   UNL     1     -43.903  57.652 -53.793  1.00  0.00     0.315 C 
HETATM    9  O   UNL     1     -44.982  58.018 -54.223  1.00  0.00    -0.252 OA
HETATM   10  N   UNL     1     -43.165  56.590 -54.304  1.00  0.00    -0.324 N 
HETATM   11  H   UNL     1     -41.300  60.911 -52.612  1.00  0.00     0.165 HD
HETATM   12  H   UNL     1     -43.467  56.124 -55.145  1.00  0.00     0.165 HD
ENDROOT
BRANCH   1  13
HETATM   13  C   UNL     1     -41.225  55.434 -53.363  1.00  0.00    -0.020 A 
HETATM   14  C   UNL     1     -40.769  54.418 -54.220  1.00  0.00     0.011 A 
HETATM   15  C   UNL     1     -40.303  53.205 -53.709  1.00  0.00     0.007 A 
HETATM   16  C   UNL     1     -40.278  52.981 -52.330  1.00  0.00    -0.062 A 
HETATM   17  C   UNL     1     -39.788  51.677 -51.776  1.00  0.00     0.048 C 
HETATM   18  C   UNL     1     -40.679  54.009 -51.469  1.00  0.00     0.007 A 
HETATM   19  C   UNL     1     -41.150  55.221 -51.979  1.00  0.00     0.011 A 
ENDBRANCH   1  13
BRANCH   4  20
HETATM   20  C   UNL     1     -43.799  60.075 -51.292  1.00  0.00    -0.020 A 
HETATM   21  C   UNL     1     -45.028  59.497 -50.930  1.00  0.00     0.011 A 
HETATM   22  C   UNL     1     -45.708  59.916 -49.785  1.00  0.00     0.007 A 
HETATM   23  C   UNL     1     -45.173  60.921 -48.973  1.00  0.00    -0.062 A 
HETATM   24  C   UNL     1     -45.907  61.378 -47.748  1.00  0.00     0.048 C 
HETATM   25  C   UNL     1     -43.925  61.462 -49.296  1.00  0.00     0.007 A 
HETATM   26  C   UNL     1     -43.245  61.046 -50.444  1.00  0.00     0.011 A 
ENDBRANCH   4  20
TORSDOF 2
ENDMDL
