MODEL 1
REMARK VINA RESULT:      -8.0      0.000      0.000
REMARK  6 active torsions:
REMARK  status: ('A' for Active; 'I' for Inactive)
REMARK    1  A    between atoms: C_2  and  C_3 
REMARK    2  A    between atoms: C_3  and  N_4 
REMARK    3  A    between atoms: C_3  and  C_11 
REMARK    4  A    between atoms: N_4  and  C_5 
REMARK       I    between atoms: C_11  and  N_12 
REMARK    5  A    between atoms: N_12  and  N_13 
REMARK    6  A    between atoms: C_14  and  C_15 
ROOT
HETATM    1  C   UNL     1     -42.248  57.348 -56.117  1.00  0.00     0.255 C 
HETATM    2  N   UNL     1     -41.688  56.077 -56.027  1.00  0.00    -0.246 N 
HETATM    3  O   UNL     1     -42.359  58.163 -55.204  1.00  0.00    -0.270 OA
HETATM    4  H   UNL     1     -41.597  55.557 -56.899  1.00  0.00     0.192 HD
ENDROOT
BRANCH   2   5
HETATM    5  N   UNL     1     -41.197  55.436 -54.922  1.00  0.00    -0.184 NA
HETATM    6  C   UNL     1     -41.327  54.155 -54.804  1.00  0.00     0.152 C 
BRANCH   6   7
HETATM    7  C   UNL     1     -40.793  53.495 -53.626  1.00  0.00     0.011 A 
HETATM    8  C   UNL     1     -40.386  52.126 -53.517  1.00  0.00     0.004 A 
HETATM    9  C   UNL     1     -39.920  51.930 -52.216  1.00  0.00     0.043 A 
HETATM   10  C   UNL     1     -40.364  51.031 -54.409  1.00  0.00     0.014 A 
HETATM   11  C   UNL     1     -39.431  50.698 -51.763  1.00  0.00     0.030 A 
HETATM   12  N   UNL     1     -40.046  53.130 -51.556  1.00  0.00    -0.364 N 
HETATM   13  C   UNL     1     -39.421  49.633 -52.667  1.00  0.00     0.002 A 
HETATM   14  C   UNL     1     -39.880  49.793 -53.971  1.00  0.00     0.001 A 
HETATM   15  H   UNL     1     -39.785  53.284 -50.592  1.00  0.00     0.165 HD
HETATM   16  C   UNL     1     -40.568  54.078 -52.393  1.00  0.00     0.102 A 
ENDBRANCH   6   7
ENDBRANCH   2   5
BRANCH   1  17
HETATM   17  C   UNL     1     -42.716  57.677 -57.555  1.00  0.00     0.154 C 
BRANCH  17  18
HETATM   18  C   UNL     1     -41.793  58.735 -58.182  1.00  0.00     0.025 C 
HETATM   19  C   UNL     1     -42.554  59.953 -58.687  1.00  0.00     0.007 C 
ENDBRANCH  17  18
BRANCH  17  20
HETATM   20  N   UNL     1     -42.673  56.424 -58.368  1.00  0.00    -0.280 NA
HETATM   21  H   UNL     1     -42.539  55.625 -57.739  1.00  0.00     0.128 HD
BRANCH  20  22
HETATM   22  C   UNL     1     -43.842  56.137 -59.104  1.00  0.00     0.009 A 
HETATM   23  C   UNL     1     -44.924  57.016 -58.998  1.00  0.00     0.023 A 
HETATM   24  C   UNL     1     -46.079  56.825 -59.760  1.00  0.00     0.002 A 
HETATM   25  C   UNL     1     -46.152  55.762 -60.657  1.00  0.00     0.000 A 
HETATM   26  C   UNL     1     -45.068  54.897 -60.796  1.00  0.00     0.002 A 
HETATM   27  C   UNL     1     -43.915  55.090 -60.030  1.00  0.00     0.023 A 
ENDBRANCH  20  22
ENDBRANCH  17  20
ENDBRANCH   1  17
TORSDOF 6
ENDMDL
MODEL 2
REMARK VINA RESULT:      -7.8      1.787      2.968
REMARK  6 active torsions:
REMARK  status: ('A' for Active; 'I' for Inactive)
REMARK    1  A    between atoms: C_2  and  C_3 
REMARK    2  A    between atoms: C_3  and  N_4 
REMARK    3  A    between atoms: C_3  and  C_11 
REMARK    4  A    between atoms: N_4  and  C_5 
REMARK       I    between atoms: C_11  and  N_12 
REMARK    5  A    between atoms: N_12  and  N_13 
REMARK    6  A    between atoms: C_14  and  C_15 
ROOT
HETATM    1  C   UNL     1     -43.827  56.844 -57.746  1.00  0.00     0.255 C 
HETATM    2  N   UNL     1     -43.422  55.665 -57.127  1.00  0.00    -0.246 N 
HETATM    3  O   UNL     1     -43.755  57.977 -57.276  1.00  0.00    -0.270 OA
HETATM    4  H   UNL     1     -43.475  54.815 -57.688  1.00  0.00     0.192 HD
ENDROOT
BRANCH   2   5
HETATM    5  N   UNL     1     -42.916  55.491 -55.867  1.00  0.00    -0.184 NA
HETATM    6  C   UNL     1     -42.721  54.299 -55.406  1.00  0.00     0.152 C 
BRANCH   6   7
HETATM    7  C   UNL     1     -42.177  54.139 -54.069  1.00  0.00     0.011 A 
HETATM    8  C   UNL     1     -41.223  53.160 -53.640  1.00  0.00     0.004 A 
HETATM    9  C   UNL     1     -40.971  53.386 -52.286  1.00  0.00     0.043 A 
HETATM   10  C   UNL     1     -40.543  52.101 -54.281  1.00  0.00     0.014 A 
HETATM   11  C   UNL     1     -40.073  52.611 -51.541  1.00  0.00     0.030 A 
HETATM   12  N   UNL     1     -41.747  54.455 -51.903  1.00  0.00    -0.364 N 
HETATM   13  C   UNL     1     -39.414  51.570 -52.201  1.00  0.00     0.002 A 
HETATM   14  C   UNL     1     -39.644  51.316 -53.550  1.00  0.00     0.001 A 
HETATM   15  H   UNL     1     -41.769  54.842 -50.970  1.00  0.00     0.165 HD
HETATM   16  C   UNL     1     -42.474  54.916 -52.966  1.00  0.00     0.102 A 
ENDBRANCH   6   7
ENDBRANCH   2   5
BRANCH   1  17
HETATM   17  C   UNL     1     -44.380  56.594 -59.170  1.00  0.00     0.154 C 
BRANCH  17  18
HETATM   18  C   UNL     1     -43.736  55.336 -59.773  1.00  0.00     0.025 C 
HETATM   19  C   UNL     1     -44.662  54.128 -59.741  1.00  0.00     0.007 C 
ENDBRANCH  17  18
BRANCH  17  20
HETATM   20  N   UNL     1     -45.860  56.408 -59.079  1.00  0.00    -0.280 NA
HETATM   21  H   UNL     1     -46.184  56.759 -58.172  1.00  0.00     0.128 HD
BRANCH  20  22
HETATM   22  C   UNL     1     -46.619  57.099 -60.047  1.00  0.00     0.009 A 
HETATM   23  C   UNL     1     -47.362  56.351 -60.966  1.00  0.00     0.023 A 
HETATM   24  C   UNL     1     -48.190  56.980 -61.898  1.00  0.00     0.002 A 
HETATM   25  C   UNL     1     -48.302  58.368 -61.904  1.00  0.00     0.000 A 
HETATM   26  C   UNL     1     -47.593  59.124 -60.972  1.00  0.00     0.002 A 
HETATM   27  C   UNL     1     -46.763  58.491 -60.043  1.00  0.00     0.023 A 
ENDBRANCH  20  22
ENDBRANCH  17  20
ENDBRANCH   1  17
TORSDOF 6
ENDMDL
MODEL 3
REMARK VINA RESULT:      -7.6      1.949      2.946
REMARK  6 active torsions:
REMARK  status: ('A' for Active; 'I' for Inactive)
REMARK    1  A    between atoms: C_2  and  C_3 
REMARK    2  A    between atoms: C_3  and  N_4 
REMARK    3  A    between atoms: C_3  and  C_11 
REMARK    4  A    between atoms: N_4  and  C_5 
REMARK       I    between atoms: C_11  and  N_12 
REMARK    5  A    between atoms: N_12  and  N_13 
REMARK    6  A    between atoms: C_14  and  C_15 
ROOT
HETATM    1  C   UNL     1     -42.705  55.449 -56.721  1.00  0.00     0.255 C 
HETATM    2  N   UNL     1     -41.535  55.648 -55.995  1.00  0.00    -0.246 N 
HETATM    3  O   UNL     1     -43.448  54.473 -56.655  1.00  0.00    -0.270 OA
HETATM    4  H   UNL     1     -41.078  56.553 -56.107  1.00  0.00     0.192 HD
ENDROOT
BRANCH   2   5
HETATM    5  N   UNL     1     -40.927  54.804 -55.105  1.00  0.00    -0.184 NA
HETATM    6  C   UNL     1     -41.469  54.575 -53.954  1.00  0.00     0.152 C 
BRANCH   6   7
HETATM    7  C   UNL     1     -40.809  53.671 -53.029  1.00  0.00     0.011 A 
HETATM    8  C   UNL     1     -40.465  52.301 -53.263  1.00  0.00     0.004 A 
HETATM    9  C   UNL     1     -39.830  51.825 -52.115  1.00  0.00     0.043 A 
HETATM   10  C   UNL     1     -40.631  51.416 -54.352  1.00  0.00     0.014 A 
HETATM   11  C   UNL     1     -39.350  50.515 -52.000  1.00  0.00     0.030 A 
HETATM   12  N   UNL     1     -39.796  52.863 -51.213  1.00  0.00    -0.364 N 
HETATM   13  C   UNL     1     -39.527  49.662 -53.093  1.00  0.00     0.002 A 
HETATM   14  C   UNL     1     -40.158  50.103 -54.252  1.00  0.00     0.001 A 
HETATM   15  H   UNL     1     -39.392  52.806 -50.288  1.00  0.00     0.165 HD
HETATM   16  C   UNL     1     -40.380  53.977 -51.751  1.00  0.00     0.102 A 
ENDBRANCH   6   7
ENDBRANCH   2   5
BRANCH   1  17
HETATM   17  C   UNL     1     -43.025  56.646 -57.650  1.00  0.00     0.154 C 
BRANCH  17  18
HETATM   18  C   UNL     1     -44.259  57.401 -57.132  1.00  0.00     0.025 C 
HETATM   19  C   UNL     1     -44.118  57.829 -55.677  1.00  0.00     0.007 C 
ENDBRANCH  17  18
BRANCH  17  20
HETATM   20  N   UNL     1     -41.844  57.561 -57.668  1.00  0.00    -0.280 NA
HETATM   21  H   UNL     1     -41.007  57.019 -57.908  1.00  0.00     0.128 HD
BRANCH  20  22
HETATM   22  C   UNL     1     -41.902  58.608 -58.613  1.00  0.00     0.009 A 
HETATM   23  C   UNL     1     -41.712  59.918 -58.163  1.00  0.00     0.023 A 
HETATM   24  C   UNL     1     -41.685  60.987 -59.062  1.00  0.00     0.002 A 
HETATM   25  C   UNL     1     -41.823  60.750 -60.427  1.00  0.00     0.000 A 
HETATM   26  C   UNL     1     -41.981  59.446 -60.892  1.00  0.00     0.002 A 
HETATM   27  C   UNL     1     -42.011  58.380 -59.989  1.00  0.00     0.023 A 
ENDBRANCH  20  22
ENDBRANCH  17  20
ENDBRANCH   1  17
TORSDOF 6
ENDMDL
MODEL 4
REMARK VINA RESULT:      -7.5      1.695      2.444
REMARK  6 active torsions:
REMARK  status: ('A' for Active; 'I' for Inactive)
REMARK    1  A    between atoms: C_2  and  C_3 
REMARK    2  A    between atoms: C_3  and  N_4 
REMARK    3  A    between atoms: C_3  and  C_11 
REMARK    4  A    between atoms: N_4  and  C_5 
REMARK       I    between atoms: C_11  and  N_12 
REMARK    5  A    between atoms: N_12  and  N_13 
REMARK    6  A    between atoms: C_14  and  C_15 
ROOT
HETATM    1  C   UNL     1     -42.277  57.463 -54.305  1.00  0.00     0.255 C 
HETATM    2  N   UNL     1     -42.697  56.143 -54.178  1.00  0.00    -0.246 N 
HETATM    3  O   UNL     1     -41.336  57.989 -53.716  1.00  0.00    -0.270 OA
HETATM    4  H   UNL     1     -43.446  55.841 -54.801  1.00  0.00     0.192 HD
ENDROOT
BRANCH   2   5
HETATM    5  N   UNL     1     -42.210  55.166 -53.351  1.00  0.00    -0.184 NA
HETATM    6  C   UNL     1     -41.087  54.587 -53.624  1.00  0.00     0.152 C 
BRANCH   6   7
HETATM    7  C   UNL     1     -40.587  53.558 -52.730  1.00  0.00     0.011 A 
HETATM    8  C   UNL     1     -40.287  52.198 -53.065  1.00  0.00     0.004 A 
HETATM    9  C   UNL     1     -39.816  51.575 -51.908  1.00  0.00     0.043 A 
HETATM   10  C   UNL     1     -40.369  51.436 -54.251  1.00  0.00     0.014 A 
HETATM   11  C   UNL     1     -39.420  50.233 -51.876  1.00  0.00     0.030 A 
HETATM   12  N   UNL     1     -39.835  52.517 -50.906  1.00  0.00    -0.364 N 
HETATM   13  C   UNL     1     -39.510  49.502 -53.065  1.00  0.00     0.002 A 
HETATM   14  C   UNL     1     -39.977  50.092 -54.235  1.00  0.00     0.001 A 
HETATM   15  H   UNL     1     -39.546  52.345 -49.952  1.00  0.00     0.165 HD
HETATM   16  C   UNL     1     -40.295  53.712 -51.387  1.00  0.00     0.102 A 
ENDBRANCH   6   7
ENDBRANCH   2   5
BRANCH   1  17
HETATM   17  C   UNL     1     -43.128  58.248 -55.333  1.00  0.00     0.154 C 
BRANCH  17  18
HETATM   18  C   UNL     1     -43.679  59.532 -54.691  1.00  0.00     0.025 C 
HETATM   19  C   UNL     1     -45.067  59.340 -54.095  1.00  0.00     0.007 C 
ENDBRANCH  17  18
BRANCH  17  20
HETATM   20  N   UNL     1     -42.260  58.600 -56.498  1.00  0.00    -0.280 NA
HETATM   21  H   UNL     1     -41.279  58.458 -56.236  1.00  0.00     0.128 HD
BRANCH  20  22
HETATM   22  C   UNL     1     -42.460  57.823 -57.659  1.00  0.00     0.009 A 
HETATM   23  C   UNL     1     -41.871  58.251 -58.853  1.00  0.00     0.023 A 
HETATM   24  C   UNL     1     -41.971  57.485 -60.016  1.00  0.00     0.002 A 
HETATM   25  C   UNL     1     -42.643  56.266 -59.989  1.00  0.00     0.000 A 
HETATM   26  C   UNL     1     -43.208  55.812 -58.799  1.00  0.00     0.002 A 
HETATM   27  C   UNL     1     -43.108  56.583 -57.637  1.00  0.00     0.023 A 
ENDBRANCH  20  22
ENDBRANCH  17  20
ENDBRANCH   1  17
TORSDOF 6
ENDMDL
MODEL 5
REMARK VINA RESULT:      -7.2      1.741      2.143
REMARK  6 active torsions:
REMARK  status: ('A' for Active; 'I' for Inactive)
REMARK    1  A    between atoms: C_2  and  C_3 
REMARK    2  A    between atoms: C_3  and  N_4 
REMARK    3  A    between atoms: C_3  and  C_11 
REMARK    4  A    between atoms: N_4  and  C_5 
REMARK       I    between atoms: C_11  and  N_12 
REMARK    5  A    between atoms: N_12  and  N_13 
REMARK    6  A    between atoms: C_14  and  C_15 
ROOT
HETATM    1  C   UNL     1     -43.175  55.833 -56.190  1.00  0.00     0.255 C 
HETATM    2  N   UNL     1     -42.934  55.943 -54.823  1.00  0.00    -0.246 N 
HETATM    3  O   UNL     1     -43.028  54.825 -56.877  1.00  0.00    -0.270 OA
HETATM    4  H   UNL     1     -43.186  56.829 -54.387  1.00  0.00     0.192 HD
ENDROOT
BRANCH   2   5
HETATM    5  N   UNL     1     -42.440  54.999 -53.963  1.00  0.00    -0.184 NA
HETATM    6  C   UNL     1     -41.164  54.873 -53.803  1.00  0.00     0.152 C 
BRANCH   6   7
HETATM    7  C   UNL     1     -40.663  53.870 -52.880  1.00  0.00     0.011 A 
HETATM    8  C   UNL     1     -40.363  52.501 -53.178  1.00  0.00     0.004 A 
HETATM    9  C   UNL     1     -39.892  51.910 -52.005  1.00  0.00     0.043 A 
HETATM   10  C   UNL     1     -40.444  51.706 -54.343  1.00  0.00     0.014 A 
HETATM   11  C   UNL     1     -39.495  50.569 -51.936  1.00  0.00     0.030 A 
HETATM   12  N   UNL     1     -39.911  52.879 -51.028  1.00  0.00    -0.364 N 
HETATM   13  C   UNL     1     -39.585  49.806 -53.104  1.00  0.00     0.002 A 
HETATM   14  C   UNL     1     -40.053  50.363 -54.290  1.00  0.00     0.001 A 
HETATM   15  H   UNL     1     -39.622  52.733 -50.071  1.00  0.00     0.165 HD
HETATM   16  C   UNL     1     -40.372  54.060 -51.543  1.00  0.00     0.102 A 
ENDBRANCH   6   7
ENDBRANCH   2   5
BRANCH   1  17
HETATM   17  C   UNL     1     -43.701  57.156 -56.797  1.00  0.00     0.154 C 
BRANCH  17  18
HETATM   18  C   UNL     1     -42.547  58.157 -56.963  1.00  0.00     0.025 C 
HETATM   19  C   UNL     1     -41.956  58.145 -58.366  1.00  0.00     0.007 C 
ENDBRANCH  17  18
BRANCH  17  20
HETATM   20  N   UNL     1     -44.306  56.858 -58.131  1.00  0.00    -0.280 NA
HETATM   21  H   UNL     1     -44.693  55.909 -58.115  1.00  0.00     0.128 HD
BRANCH  20  22
HETATM   22  C   UNL     1     -45.373  57.698 -58.513  1.00  0.00     0.009 A 
HETATM   23  C   UNL     1     -46.272  58.119 -57.528  1.00  0.00     0.023 A 
HETATM   24  C   UNL     1     -47.303  59.011 -57.833  1.00  0.00     0.002 A 
HETATM   25  C   UNL     1     -47.430  59.510 -59.127  1.00  0.00     0.000 A 
HETATM   26  C   UNL     1     -46.522  59.124 -60.111  1.00  0.00     0.002 A 
HETATM   27  C   UNL     1     -45.493  58.230 -59.802  1.00  0.00     0.023 A 
ENDBRANCH  20  22
ENDBRANCH  17  20
ENDBRANCH   1  17
TORSDOF 6
ENDMDL
MODEL 6
REMARK VINA RESULT:      -7.1      1.467      3.637
REMARK  6 active torsions:
REMARK  status: ('A' for Active; 'I' for Inactive)
REMARK    1  A    between atoms: C_2  and  C_3 
REMARK    2  A    between atoms: C_3  and  N_4 
REMARK    3  A    between atoms: C_3  and  C_11 
REMARK    4  A    between atoms: N_4  and  C_5 
REMARK       I    between atoms: C_11  and  N_12 
REMARK    5  A    between atoms: N_12  and  N_13 
REMARK    6  A    between atoms: C_14  and  C_15 
ROOT
HETATM    1  C   UNL     1     -42.531  57.374 -56.573  1.00  0.00     0.255 C 
HETATM    2  N   UNL     1     -42.126  56.049 -56.443  1.00  0.00    -0.246 N 
HETATM    3  O   UNL     1     -42.787  58.152 -55.657  1.00  0.00    -0.270 OA
HETATM    4  H   UNL     1     -41.872  55.565 -57.304  1.00  0.00     0.192 HD
ENDROOT
BRANCH   2   5
HETATM    5  N   UNL     1     -41.976  55.309 -55.302  1.00  0.00    -0.184 NA
HETATM    6  C   UNL     1     -40.862  55.347 -54.646  1.00  0.00     0.152 C 
BRANCH   6   7
HETATM    7  C   UNL     1     -40.728  54.558 -53.435  1.00  0.00     0.011 A 
HETATM    8  C   UNL     1     -40.328  53.186 -53.342  1.00  0.00     0.004 A 
HETATM    9  C   UNL     1     -40.317  52.843 -51.989  1.00  0.00     0.043 A 
HETATM   10  C   UNL     1     -39.966  52.199 -54.286  1.00  0.00     0.014 A 
HETATM   11  C   UNL     1     -39.961  51.568 -51.531  1.00  0.00     0.030 A 
HETATM   12  N   UNL     1     -40.704  53.960 -51.286  1.00  0.00    -0.364 N 
HETATM   13  C   UNL     1     -39.607  50.612 -52.488  1.00  0.00     0.002 A 
HETATM   14  C   UNL     1     -39.609  50.920 -53.845  1.00  0.00     0.001 A 
HETATM   15  H   UNL     1     -40.787  54.003 -50.279  1.00  0.00     0.165 HD
HETATM   16  C   UNL     1     -40.952  54.996 -52.143  1.00  0.00     0.102 A 
ENDBRANCH   6   7
ENDBRANCH   2   5
BRANCH   1  17
HETATM   17  C   UNL     1     -42.607  57.818 -58.054  1.00  0.00     0.154 C 
BRANCH  17  18
HETATM   18  C   UNL     1     -43.545  56.885 -58.837  1.00  0.00     0.025 C 
HETATM   19  C   UNL     1     -42.821  56.105 -59.927  1.00  0.00     0.007 C 
ENDBRANCH  17  18
BRANCH  17  20
HETATM   20  N   UNL     1     -43.129  59.217 -58.105  1.00  0.00    -0.280 NA
HETATM   21  H   UNL     1     -43.299  59.543 -57.148  1.00  0.00     0.128 HD
BRANCH  20  22
HETATM   22  C   UNL     1     -42.262  60.168 -58.682  1.00  0.00     0.009 A 
HETATM   23  C   UNL     1     -42.286  60.331 -60.071  1.00  0.00     0.023 A 
HETATM   24  C   UNL     1     -41.505  61.308 -60.691  1.00  0.00     0.002 A 
HETATM   25  C   UNL     1     -40.707  62.152 -59.922  1.00  0.00     0.000 A 
HETATM   26  C   UNL     1     -40.698  62.022 -58.535  1.00  0.00     0.002 A 
HETATM   27  C   UNL     1     -41.479  61.041 -57.918  1.00  0.00     0.023 A 
ENDBRANCH  20  22
ENDBRANCH  17  20
ENDBRANCH   1  17
TORSDOF 6
ENDMDL
MODEL 7
REMARK VINA RESULT:      -7.0      1.760      8.442
REMARK  6 active torsions:
REMARK  status: ('A' for Active; 'I' for Inactive)
REMARK    1  A    between atoms: C_2  and  C_3 
REMARK    2  A    between atoms: C_3  and  N_4 
REMARK    3  A    between atoms: C_3  and  C_11 
REMARK    4  A    between atoms: N_4  and  C_5 
REMARK       I    between atoms: C_11  and  N_12 
REMARK    5  A    between atoms: N_12  and  N_13 
REMARK    6  A    between atoms: C_14  and  C_15 
ROOT
HETATM    1  C   UNL     1     -41.744  56.674 -53.613  1.00  0.00     0.255 C 
HETATM    2  N   UNL     1     -42.647  56.104 -54.505  1.00  0.00    -0.246 N 
HETATM    3  O   UNL     1     -41.206  57.774 -53.723  1.00  0.00    -0.270 OA
HETATM    4  H   UNL     1     -43.065  55.217 -54.224  1.00  0.00     0.192 HD
ENDROOT
BRANCH   2   5
HETATM    5  N   UNL     1     -43.091  56.594 -55.703  1.00  0.00    -0.184 NA
HETATM    6  C   UNL     1     -42.553  56.193 -56.808  1.00  0.00     0.152 C 
BRANCH   6   7
HETATM    7  C   UNL     1     -43.045  56.723 -58.067  1.00  0.00     0.011 A 
HETATM    8  C   UNL     1     -42.744  58.001 -58.639  1.00  0.00     0.004 A 
HETATM    9  C   UNL     1     -43.414  58.083 -59.861  1.00  0.00     0.043 A 
HETATM   10  C   UNL     1     -41.956  59.101 -58.233  1.00  0.00     0.014 A 
HETATM   11  C   UNL     1     -43.335  59.203 -60.697  1.00  0.00     0.030 A 
HETATM   12  N   UNL     1     -44.103  56.903 -60.023  1.00  0.00    -0.364 N 
HETATM   13  C   UNL     1     -42.547  60.275 -60.271  1.00  0.00     0.002 A 
HETATM   14  C   UNL     1     -41.868  60.229 -59.057  1.00  0.00     0.001 A 
HETATM   15  H   UNL     1     -44.680  56.682 -60.822  1.00  0.00     0.165 HD
HETATM   16  C   UNL     1     -43.888  56.078 -58.953  1.00  0.00     0.102 A 
ENDBRANCH   6   7
ENDBRANCH   2   5
BRANCH   1  17
HETATM   17  C   UNL     1     -41.483  55.766 -52.387  1.00  0.00     0.154 C 
BRANCH  17  18
HETATM   18  C   UNL     1     -42.046  56.421 -51.116  1.00  0.00     0.025 C 
HETATM   19  C   UNL     1     -41.347  55.943 -49.850  1.00  0.00     0.007 C 
ENDBRANCH  17  18
BRANCH  17  20
HETATM   20  N   UNL     1     -42.156  54.452 -52.618  1.00  0.00    -0.280 NA
HETATM   21  H   UNL     1     -42.704  54.507 -53.483  1.00  0.00     0.128 HD
BRANCH  20  22
HETATM   22  C   UNL     1     -41.292  53.349 -52.784  1.00  0.00     0.009 A 
HETATM   23  C   UNL     1     -41.183  52.777 -54.055  1.00  0.00     0.023 A 
HETATM   24  C   UNL     1     -40.289  51.732 -54.297  1.00  0.00     0.002 A 
HETATM   25  C   UNL     1     -39.473  51.264 -53.270  1.00  0.00     0.000 A 
HETATM   26  C   UNL     1     -39.548  51.847 -52.006  1.00  0.00     0.002 A 
HETATM   27  C   UNL     1     -40.446  52.890 -51.768  1.00  0.00     0.023 A 
ENDBRANCH  20  22
ENDBRANCH  17  20
ENDBRANCH   1  17
TORSDOF 6
ENDMDL
MODEL 8
REMARK VINA RESULT:      -7.0      1.901      8.609
REMARK  6 active torsions:
REMARK  status: ('A' for Active; 'I' for Inactive)
REMARK    1  A    between atoms: C_2  and  C_3 
REMARK    2  A    between atoms: C_3  and  N_4 
REMARK    3  A    between atoms: C_3  and  C_11 
REMARK    4  A    between atoms: N_4  and  C_5 
REMARK       I    between atoms: C_11  and  N_12 
REMARK    5  A    between atoms: N_12  and  N_13 
REMARK    6  A    between atoms: C_14  and  C_15 
ROOT
HETATM    1  C   UNL     1     -42.624  56.331 -54.136  1.00  0.00     0.255 C 
HETATM    2  N   UNL     1     -42.110  56.536 -55.413  1.00  0.00    -0.246 N 
HETATM    3  O   UNL     1     -43.791  56.488 -53.786  1.00  0.00    -0.270 OA
HETATM    4  H   UNL     1     -41.134  56.280 -55.557  1.00  0.00     0.192 HD
ENDROOT
BRANCH   2   5
HETATM    5  N   UNL     1     -42.753  56.999 -56.529  1.00  0.00    -0.184 NA
HETATM    6  C   UNL     1     -43.158  56.170 -57.435  1.00  0.00     0.152 C 
BRANCH   6   7
HETATM    7  C   UNL     1     -43.843  56.683 -58.608  1.00  0.00     0.011 A 
HETATM    8  C   UNL     1     -45.038  57.472 -58.629  1.00  0.00     0.004 A 
HETATM    9  C   UNL     1     -45.329  57.757 -59.964  1.00  0.00     0.043 A 
HETATM   10  C   UNL     1     -45.902  57.978 -57.632  1.00  0.00     0.014 A 
HETATM   11  C   UNL     1     -46.434  58.524 -60.354  1.00  0.00     0.030 A 
HETATM   12  N   UNL     1     -44.354  57.158 -60.727  1.00  0.00    -0.364 N 
HETATM   13  C   UNL     1     -47.271  59.012 -59.346  1.00  0.00     0.002 A 
HETATM   14  C   UNL     1     -47.012  58.745 -58.006  1.00  0.00     0.001 A 
HETATM   15  H   UNL     1     -44.310  57.198 -61.736  1.00  0.00     0.165 HD
HETATM   16  C   UNL     1     -43.455  56.511 -59.923  1.00  0.00     0.102 A 
ENDBRANCH   6   7
ENDBRANCH   2   5
BRANCH   1  17
HETATM   17  C   UNL     1     -41.543  55.832 -53.147  1.00  0.00     0.154 C 
BRANCH  17  18
HETATM   18  C   UNL     1     -41.286  56.894 -52.066  1.00  0.00     0.025 C 
HETATM   19  C   UNL     1     -41.902  56.525 -50.723  1.00  0.00     0.007 C 
ENDBRANCH  17  18
BRANCH  17  20
HETATM   20  N   UNL     1     -42.029  54.570 -52.509  1.00  0.00    -0.280 NA
HETATM   21  H   UNL     1     -42.953  54.342 -52.888  1.00  0.00     0.128 HD
BRANCH  20  22
HETATM   22  C   UNL     1     -41.231  53.429 -52.738  1.00  0.00     0.009 A 
HETATM   23  C   UNL     1     -41.197  52.892 -54.029  1.00  0.00     0.023 A 
HETATM   24  C   UNL     1     -40.368  51.809 -54.332  1.00  0.00     0.002 A 
HETATM   25  C   UNL     1     -39.544  51.268 -53.348  1.00  0.00     0.000 A 
HETATM   26  C   UNL     1     -39.545  51.815 -52.066  1.00  0.00     0.002 A 
HETATM   27  C   UNL     1     -40.377  52.896 -51.766  1.00  0.00     0.023 A 
ENDBRANCH  20  22
ENDBRANCH  17  20
ENDBRANCH   1  17
TORSDOF 6
ENDMDL
MODEL 9
REMARK VINA RESULT:      -7.0      1.968      8.144
REMARK  6 active torsions:
REMARK  status: ('A' for Active; 'I' for Inactive)
REMARK    1  A    between atoms: C_2  and  C_3 
REMARK    2  A    between atoms: C_3  and  N_4 
REMARK    3  A    between atoms: C_3  and  C_11 
REMARK    4  A    between atoms: N_4  and  C_5 
REMARK       I    between atoms: C_11  and  N_12 
REMARK    5  A    between atoms: N_12  and  N_13 
REMARK    6  A    between atoms: C_14  and  C_15 
ROOT
HETATM    1  C   UNL     1     -42.639  56.155 -53.122  1.00  0.00     0.255 C 
HETATM    2  N   UNL     1     -42.428  56.521 -54.448  1.00  0.00    -0.246 N 
HETATM    3  O   UNL     1     -43.726  55.962 -52.583  1.00  0.00    -0.270 OA
HETATM    4  H   UNL     1     -41.458  56.560 -54.760  1.00  0.00     0.192 HD
ENDROOT
BRANCH   2   5
HETATM    5  N   UNL     1     -43.355  56.798 -55.416  1.00  0.00    -0.184 NA
HETATM    6  C   UNL     1     -42.971  57.132 -56.605  1.00  0.00     0.152 C 
BRANCH   6   7
HETATM    7  C   UNL     1     -43.972  57.415 -57.618  1.00  0.00     0.011 A 
HETATM    8  C   UNL     1     -44.347  56.574 -58.715  1.00  0.00     0.004 A 
HETATM    9  C   UNL     1     -45.356  57.231 -59.421  1.00  0.00     0.043 A 
HETATM   10  C   UNL     1     -43.924  55.307 -59.174  1.00  0.00     0.014 A 
HETATM   11  C   UNL     1     -45.966  56.686 -60.557  1.00  0.00     0.030 A 
HETATM   12  N   UNL     1     -45.582  58.428 -58.783  1.00  0.00    -0.364 N 
HETATM   13  C   UNL     1     -45.529  55.430 -60.988  1.00  0.00     0.002 A 
HETATM   14  C   UNL     1     -44.523  54.750 -60.309  1.00  0.00     0.001 A 
HETATM   15  H   UNL     1     -46.264  59.115 -59.076  1.00  0.00     0.165 HD
HETATM   16  C   UNL     1     -44.757  58.550 -57.698  1.00  0.00     0.102 A 
ENDBRANCH   6   7
ENDBRANCH   2   5
BRANCH   1  17
HETATM   17  C   UNL     1     -41.310  55.972 -52.350  1.00  0.00     0.154 C 
BRANCH  17  18
HETATM   18  C   UNL     1     -41.137  57.102 -51.322  1.00  0.00     0.025 C 
HETATM   19  C   UNL     1     -40.697  58.413 -51.960  1.00  0.00     0.007 C 
ENDBRANCH  17  18
BRANCH  17  20
HETATM   20  N   UNL     1     -41.347  54.653 -51.647  1.00  0.00    -0.280 NA
HETATM   21  H   UNL     1     -42.323  54.354 -51.553  1.00  0.00     0.128 HD
BRANCH  20  22
HETATM   22  C   UNL     1     -40.687  53.596 -52.308  1.00  0.00     0.009 A 
HETATM   23  C   UNL     1     -39.989  52.662 -51.535  1.00  0.00     0.023 A 
HETATM   24  C   UNL     1     -39.381  51.554 -52.126  1.00  0.00     0.002 A 
HETATM   25  C   UNL     1     -39.485  51.354 -53.500  1.00  0.00     0.000 A 
HETATM   26  C   UNL     1     -40.205  52.259 -54.279  1.00  0.00     0.002 A 
HETATM   27  C   UNL     1     -40.810  53.369 -53.684  1.00  0.00     0.023 A 
ENDBRANCH  20  22
ENDBRANCH  17  20
ENDBRANCH   1  17
TORSDOF 6
ENDMDL
MODEL 10
REMARK VINA RESULT:      -6.9      5.830      7.630
REMARK  6 active torsions:
REMARK  status: ('A' for Active; 'I' for Inactive)
REMARK    1  A    between atoms: C_2  and  C_3 
REMARK    2  A    between atoms: C_3  and  N_4 
REMARK    3  A    between atoms: C_3  and  C_11 
REMARK    4  A    between atoms: N_4  and  C_5 
REMARK       I    between atoms: C_11  and  N_12 
REMARK    5  A    between atoms: N_12  and  N_13 
REMARK    6  A    between atoms: C_14  and  C_15 
ROOT
HETATM    1  C   UNL     1     -44.457  58.020 -50.921  1.00  0.00     0.255 C 
HETATM    2  N   UNL     1     -43.133  57.592 -50.898  1.00  0.00    -0.246 N 
HETATM    3  O   UNL     1     -45.456  57.307 -50.858  1.00  0.00    -0.270 OA
HETATM    4  H   UNL     1     -42.420  58.320 -50.876  1.00  0.00     0.192 HD
ENDROOT
BRANCH   2   5
HETATM    5  N   UNL     1     -42.649  56.312 -50.857  1.00  0.00    -0.184 NA
HETATM    6  C   UNL     1     -41.401  56.083 -51.106  1.00  0.00     0.152 C 
BRANCH   6   7
HETATM    7  C   UNL     1     -40.909  54.718 -51.050  1.00  0.00     0.011 A 
HETATM    8  C   UNL     1     -40.599  53.870 -52.162  1.00  0.00     0.004 A 
HETATM    9  C   UNL     1     -40.142  52.655 -51.648  1.00  0.00     0.043 A 
HETATM   10  C   UNL     1     -40.661  54.023 -53.565  1.00  0.00     0.014 A 
HETATM   11  C   UNL     1     -39.740  51.589 -52.462  1.00  0.00     0.030 A 
HETATM   12  N   UNL     1     -40.178  52.758 -50.277  1.00  0.00    -0.364 N 
HETATM   13  C   UNL     1     -39.810  51.769 -53.846  1.00  0.00     0.002 A 
HETATM   14  C   UNL     1     -40.264  52.966 -54.392  1.00  0.00     0.001 A 
HETATM   15  H   UNL     1     -39.901  52.023 -49.639  1.00  0.00     0.165 HD
HETATM   16  C   UNL     1     -40.636  53.992 -49.906  1.00  0.00     0.102 A 
ENDBRANCH   6   7
ENDBRANCH   2   5
BRANCH   1  17
HETATM   17  C   UNL     1     -44.570  59.562 -51.008  1.00  0.00     0.154 C 
BRANCH  17  18
HETATM   18  C   UNL     1     -44.561  60.010 -52.478  1.00  0.00     0.025 C 
HETATM   19  C   UNL     1     -43.357  60.877 -52.820  1.00  0.00     0.007 C 
ENDBRANCH  17  18
BRANCH  17  20
HETATM   20  N   UNL     1     -45.849  59.982 -50.360  1.00  0.00    -0.280 NA
HETATM   21  H   UNL     1     -46.124  59.270 -49.677  1.00  0.00     0.128 HD
BRANCH  20  22
HETATM   22  C   UNL     1     -45.796  61.197 -49.645  1.00  0.00     0.009 A 
HETATM   23  C   UNL     1     -45.016  61.250 -48.485  1.00  0.00     0.023 A 
HETATM   24  C   UNL     1     -44.866  62.445 -47.778  1.00  0.00     0.002 A 
HETATM   25  C   UNL     1     -45.477  63.608 -48.239  1.00  0.00     0.000 A 
HETATM   26  C   UNL     1     -46.231  63.576 -49.411  1.00  0.00     0.002 A 
HETATM   27  C   UNL     1     -46.381  62.378 -50.115  1.00  0.00     0.023 A 
ENDBRANCH  20  22
ENDBRANCH  17  20
ENDBRANCH   1  17
TORSDOF 6
ENDMDL
