MODEL 1
REMARK VINA RESULT:      -6.9      0.000      0.000
REMARK  13 active torsions:
REMARK  status: ('A' for Active; 'I' for Inactive)
REMARK    1  A    between atoms: C_2  and  N_3 
REMARK    2  A    between atoms: N_3  and  C_5 
REMARK    3  A    between atoms: N_3  and  C_34 
REMARK    4  A    between atoms: C_5  and  C_6 
REMARK    5  A    between atoms: C_6  and  O_7 
REMARK    6  A    between atoms: O_7  and  C_8 
REMARK    7  A    between atoms: N_15  and  N_16 
REMARK    8  A    between atoms: C_20  and  O_21 
REMARK    9  A    between atoms: O_21  and  C_22 
REMARK   10  A    between atoms: C_22  and  C_23 
REMARK   11  A    between atoms: C_23  and  N_24 
REMARK   12  A    between atoms: N_24  and  C_26 
REMARK   13  A    between atoms: N_24  and  C_28 
ROOT
HETATM    1  C   UNL     1     -44.642  60.330 -50.967  1.00  0.00     0.091 A 
HETATM    2  C   UNL     1     -45.391  60.188 -52.159  1.00  0.00     0.068 A 
HETATM    3 CL   UNL     1     -46.774  61.188 -52.446  1.00  0.00    -0.081 Cl
HETATM    4  C   UNL     1     -45.032  59.258 -53.146  1.00  0.00     0.040 A 
HETATM    5  C   UNL     1     -43.924  58.457 -52.920  1.00  0.00    -0.011 A 
HETATM    6  C   UNL     1     -43.202  58.573 -51.715  1.00  0.00     0.009 A 
HETATM    7  C   UNL     1     -42.100  57.574 -51.766  1.00  0.00     0.093 A 
HETATM    8  N   UNL     1     -41.166  57.248 -50.930  1.00  0.00    -0.203 NA
HETATM    9  C   UNL     1     -42.217  56.895 -53.077  1.00  0.00     0.009 A 
HETATM   10  C   UNL     1     -43.315  57.440 -53.753  1.00  0.00    -0.011 A 
HETATM   11  C   UNL     1     -41.410  55.894 -53.598  1.00  0.00     0.053 A 
HETATM   12  C   UNL     1     -41.726  55.408 -54.868  1.00  0.00     0.091 A 
HETATM   13  C   UNL     1     -42.822  55.966 -55.575  1.00  0.00     0.068 A 
HETATM   14 CL   UNL     1     -43.215  55.397 -57.163  1.00  0.00    -0.081 Cl
HETATM   15  C   UNL     1     -43.625  56.977 -55.020  1.00  0.00     0.040 A 
HETATM   16  C   UNL     1     -43.543  59.496 -50.736  1.00  0.00     0.053 A 
ENDROOT
BRANCH   1  17
HETATM   17  O   UNL     1     -45.070  61.277 -50.069  1.00  0.00    -0.348 OA
BRANCH  17  18
HETATM   18  C   UNL     1     -45.658  60.781 -48.861  1.00  0.00     0.203 C 
BRANCH  18  19
HETATM   19  C   UNL     1     -44.774  61.226 -47.690  1.00  0.00     0.261 C 
BRANCH  19  20
HETATM   20  N   UNL     1     -45.119  60.484 -46.400  1.00  0.00    -0.070 N 
HETATM   21  H   UNL     1     -44.628  59.579 -46.487  1.00  0.00     0.279 HD
BRANCH  20  22
HETATM   22  C   UNL     1     -46.599  60.165 -46.279  1.00  0.00     0.230 C 
HETATM   23  C   UNL     1     -46.811  58.789 -45.673  1.00  0.00     0.034 C 
ENDBRANCH  20  22
BRANCH  20  24
HETATM   24  C   UNL     1     -44.560  61.097 -45.130  1.00  0.00     0.230 C 
HETATM   25  C   UNL     1     -44.923  62.563 -44.983  1.00  0.00     0.034 C 
ENDBRANCH  20  24
ENDBRANCH  19  20
ENDBRANCH  18  19
ENDBRANCH  17  18
ENDBRANCH   1  17
BRANCH   8  26
HETATM   26  N   UNL     1     -41.143  57.892 -49.747  1.00  0.00    -0.226 NA
HETATM   27  H   UNL     1     -41.282  57.201 -49.001  1.00  0.00     0.145 HD
HETATM   28  H   UNL     1     -41.996  58.457 -49.668  1.00  0.00     0.145 HD
ENDBRANCH   8  26
BRANCH  12  29
HETATM   29  O   UNL     1     -41.006  54.425 -55.506  1.00  0.00    -0.348 OA
BRANCH  29  30
HETATM   30  C   UNL     1     -39.988  53.780 -54.734  1.00  0.00     0.203 C 
BRANCH  30  31
HETATM   31  C   UNL     1     -40.625  52.577 -54.027  1.00  0.00     0.261 C 
BRANCH  31  32
HETATM   32  N   UNL     1     -39.672  51.925 -53.022  1.00  0.00    -0.070 N 
HETATM   33  H   UNL     1     -38.734  52.203 -53.357  1.00  0.00     0.279 HD
BRANCH  32  34
HETATM   34  C   UNL     1     -39.763  52.465 -51.609  1.00  0.00     0.230 C 
HETATM   35  C   UNL     1     -41.078  53.166 -51.328  1.00  0.00     0.034 C 
ENDBRANCH  32  34
BRANCH  32  36
HETATM   36  C   UNL     1     -39.729  50.412 -53.145  1.00  0.00     0.230 C 
HETATM   37  C   UNL     1     -39.809  49.962 -54.591  1.00  0.00     0.034 C 
ENDBRANCH  32  36
ENDBRANCH  31  32
ENDBRANCH  30  31
ENDBRANCH  29  30
ENDBRANCH  12  29
TORSDOF 13
ENDMDL
MODEL 2
REMARK VINA RESULT:      -6.8      4.407      7.744
REMARK  13 active torsions:
REMARK  status: ('A' for Active; 'I' for Inactive)
REMARK    1  A    between atoms: C_2  and  N_3 
REMARK    2  A    between atoms: N_3  and  C_5 
REMARK    3  A    between atoms: N_3  and  C_34 
REMARK    4  A    between atoms: C_5  and  C_6 
REMARK    5  A    between atoms: C_6  and  O_7 
REMARK    6  A    between atoms: O_7  and  C_8 
REMARK    7  A    between atoms: N_15  and  N_16 
REMARK    8  A    between atoms: C_20  and  O_21 
REMARK    9  A    between atoms: O_21  and  C_22 
REMARK   10  A    between atoms: C_22  and  C_23 
REMARK   11  A    between atoms: C_23  and  N_24 
REMARK   12  A    between atoms: N_24  and  C_26 
REMARK   13  A    between atoms: N_24  and  C_28 
ROOT
HETATM    1  C   UNL     1     -41.203  55.355 -53.597  1.00  0.00     0.091 A 
HETATM    2  C   UNL     1     -41.541  54.239 -54.399  1.00  0.00     0.068 A 
HETATM    3 CL   UNL     1     -41.276  52.632 -53.817  1.00  0.00    -0.081 Cl
HETATM    4  C   UNL     1     -42.114  54.396 -55.670  1.00  0.00     0.040 A 
HETATM    5  C   UNL     1     -42.329  55.682 -56.140  1.00  0.00    -0.011 A 
HETATM    6  C   UNL     1     -41.955  56.792 -55.354  1.00  0.00     0.009 A 
HETATM    7  C   UNL     1     -42.290  58.013 -56.136  1.00  0.00     0.093 A 
HETATM    8  N   UNL     1     -42.143  59.279 -55.900  1.00  0.00    -0.203 NA
HETATM    9  C   UNL     1     -42.896  57.543 -57.402  1.00  0.00     0.009 A 
HETATM   10  C   UNL     1     -42.911  56.143 -57.383  1.00  0.00    -0.011 A 
HETATM   11  C   UNL     1     -43.384  58.304 -58.454  1.00  0.00     0.053 A 
HETATM   12  C   UNL     1     -43.912  57.624 -59.551  1.00  0.00     0.091 A 
HETATM   13  C   UNL     1     -43.956  56.206 -59.538  1.00  0.00     0.068 A 
HETATM   14 CL   UNL     1     -44.632  55.341 -60.877  1.00  0.00    -0.081 Cl
HETATM   15  C   UNL     1     -43.450  55.459 -58.459  1.00  0.00     0.040 A 
HETATM   16  C   UNL     1     -41.396  56.649 -54.092  1.00  0.00     0.053 A 
ENDROOT
BRANCH   1  17
HETATM   17  O   UNL     1     -40.657  55.095 -52.363  1.00  0.00    -0.348 OA
BRANCH  17  18
HETATM   18  C   UNL     1     -41.575  55.053 -51.265  1.00  0.00     0.203 C 
BRANCH  18  19
HETATM   19  C   UNL     1     -41.367  56.323 -50.430  1.00  0.00     0.261 C 
BRANCH  19  20
HETATM   20  N   UNL     1     -42.547  57.286 -50.553  1.00  0.00    -0.070 N 
HETATM   21  H   UNL     1     -42.783  57.527 -49.576  1.00  0.00     0.279 HD
BRANCH  20  22
HETATM   22  C   UNL     1     -43.783  56.635 -51.151  1.00  0.00     0.230 C 
HETATM   23  C   UNL     1     -44.438  57.548 -52.172  1.00  0.00     0.034 C 
ENDBRANCH  20  22
BRANCH  20  24
HETATM   24  C   UNL     1     -42.231  58.619 -51.205  1.00  0.00     0.230 C 
HETATM   25  C   UNL     1     -41.022  59.296 -50.588  1.00  0.00     0.034 C 
ENDBRANCH  20  24
ENDBRANCH  19  20
ENDBRANCH  18  19
ENDBRANCH  17  18
ENDBRANCH   1  17
BRANCH   8  26
HETATM   26  N   UNL     1     -41.557  59.627 -54.738  1.00  0.00    -0.226 NA
HETATM   27  H   UNL     1     -41.025  60.491 -54.891  1.00  0.00     0.145 HD
HETATM   28  H   UNL     1     -40.807  58.955 -54.538  1.00  0.00     0.145 HD
ENDBRANCH   8  26
BRANCH  12  29
HETATM   29  O   UNL     1     -44.436  58.254 -60.656  1.00  0.00    -0.348 OA
BRANCH  29  30
HETATM   30  C   UNL     1     -44.523  59.681 -60.593  1.00  0.00     0.203 C 
BRANCH  30  31
HETATM   31  C   UNL     1     -45.999  60.069 -60.746  1.00  0.00     0.261 C 
BRANCH  31  32
HETATM   32  N   UNL     1     -46.940  58.989 -60.208  1.00  0.00    -0.070 N 
HETATM   33  H   UNL     1     -46.323  58.171 -60.071  1.00  0.00     0.279 HD
BRANCH  32  34
HETATM   34  C   UNL     1     -47.526  59.274 -58.839  1.00  0.00     0.230 C 
HETATM   35  C   UNL     1     -47.099  58.264 -57.792  1.00  0.00     0.034 C 
ENDBRANCH  32  34
BRANCH  32  36
HETATM   36  C   UNL     1     -47.944  58.582 -61.272  1.00  0.00     0.230 C 
HETATM   37  C   UNL     1     -47.876  57.099 -61.580  1.00  0.00     0.034 C 
ENDBRANCH  32  36
ENDBRANCH  31  32
ENDBRANCH  30  31
ENDBRANCH  29  30
ENDBRANCH  12  29
TORSDOF 13
ENDMDL
MODEL 3
REMARK VINA RESULT:      -6.6      4.351      7.771
REMARK  13 active torsions:
REMARK  status: ('A' for Active; 'I' for Inactive)
REMARK    1  A    between atoms: C_2  and  N_3 
REMARK    2  A    between atoms: N_3  and  C_5 
REMARK    3  A    between atoms: N_3  and  C_34 
REMARK    4  A    between atoms: C_5  and  C_6 
REMARK    5  A    between atoms: C_6  and  O_7 
REMARK    6  A    between atoms: O_7  and  C_8 
REMARK    7  A    between atoms: N_15  and  N_16 
REMARK    8  A    between atoms: C_20  and  O_21 
REMARK    9  A    between atoms: O_21  and  C_22 
REMARK   10  A    between atoms: C_22  and  C_23 
REMARK   11  A    between atoms: C_23  and  N_24 
REMARK   12  A    between atoms: N_24  and  C_26 
REMARK   13  A    between atoms: N_24  and  C_28 
ROOT
HETATM    1  C   UNL     1     -41.139  55.130 -53.537  1.00  0.00     0.091 A 
HETATM    2  C   UNL     1     -41.530  54.110 -54.435  1.00  0.00     0.068 A 
HETATM    3 CL   UNL     1     -41.338  52.445 -54.004  1.00  0.00    -0.081 Cl
HETATM    4  C   UNL     1     -42.099  54.407 -55.683  1.00  0.00     0.040 A 
HETATM    5  C   UNL     1     -42.255  55.739 -56.031  1.00  0.00    -0.011 A 
HETATM    6  C   UNL     1     -41.829  56.755 -55.150  1.00  0.00     0.009 A 
HETATM    7  C   UNL     1     -42.109  58.057 -55.815  1.00  0.00     0.093 A 
HETATM    8  N   UNL     1     -41.904  59.287 -55.465  1.00  0.00    -0.203 NA
HETATM    9  C   UNL     1     -42.741  57.732 -57.114  1.00  0.00     0.009 A 
HETATM   10  C   UNL     1     -42.820  56.339 -57.223  1.00  0.00    -0.011 A 
HETATM   11  C   UNL     1     -43.196  58.608 -58.089  1.00  0.00     0.053 A 
HETATM   12  C   UNL     1     -43.758  58.056 -59.240  1.00  0.00     0.091 A 
HETATM   13  C   UNL     1     -43.866  56.646 -59.356  1.00  0.00     0.068 A 
HETATM   14 CL   UNL     1     -44.586  55.939 -60.763  1.00  0.00    -0.081 Cl
HETATM   15  C   UNL     1     -43.393  55.781 -58.353  1.00  0.00     0.040 A 
HETATM   16  C   UNL     1     -41.274  56.472 -53.911  1.00  0.00     0.053 A 
ENDROOT
BRANCH   1  17
HETATM   17  O   UNL     1     -40.602  54.734 -52.336  1.00  0.00    -0.348 OA
BRANCH  17  18
HETATM   18  C   UNL     1     -41.514  54.657 -51.234  1.00  0.00     0.203 C 
BRANCH  18  19
HETATM   19  C   UNL     1     -41.217  55.834 -50.296  1.00  0.00     0.261 C 
BRANCH  19  20
HETATM   20  N   UNL     1     -42.321  56.889 -50.338  1.00  0.00    -0.070 N 
HETATM   21  H   UNL     1     -42.533  57.077 -49.345  1.00  0.00     0.279 HD
BRANCH  20  22
HETATM   22  C   UNL     1     -43.605  56.378 -50.968  1.00  0.00     0.230 C 
HETATM   23  C   UNL     1     -44.247  57.445 -51.836  1.00  0.00     0.034 C 
ENDBRANCH  20  22
BRANCH  20  24
HETATM   24  C   UNL     1     -41.907  58.238 -50.898  1.00  0.00     0.230 C 
HETATM   25  C   UNL     1     -40.406  58.453 -50.850  1.00  0.00     0.034 C 
ENDBRANCH  20  24
ENDBRANCH  19  20
ENDBRANCH  18  19
ENDBRANCH  17  18
ENDBRANCH   1  17
BRANCH   8  26
HETATM   26  N   UNL     1     -41.300  59.500 -54.280  1.00  0.00    -0.226 NA
HETATM   27  H   UNL     1     -41.849  60.193 -53.758  1.00  0.00     0.145 HD
HETATM   28  H   UNL     1     -40.426  60.013 -54.448  1.00  0.00     0.145 HD
ENDBRANCH   8  26
BRANCH  12  29
HETATM   29  O   UNL     1     -44.256  58.807 -60.279  1.00  0.00    -0.348 OA
BRANCH  29  30
HETATM   30  C   UNL     1     -43.342  59.717 -60.900  1.00  0.00     0.203 C 
BRANCH  30  31
HETATM   31  C   UNL     1     -43.911  61.133 -60.744  1.00  0.00     0.261 C 
BRANCH  31  32
HETATM   32  N   UNL     1     -42.963  62.057 -59.975  1.00  0.00    -0.070 N 
HETATM   33  H   UNL     1     -42.862  62.877 -60.596  1.00  0.00     0.279 HD
BRANCH  32  34
HETATM   34  C   UNL     1     -43.519  62.609 -58.678  1.00  0.00     0.230 C 
HETATM   35  C   UNL     1     -44.832  61.965 -58.276  1.00  0.00     0.034 C 
ENDBRANCH  32  34
BRANCH  32  36
HETATM   36  C   UNL     1     -41.582  61.434 -59.877  1.00  0.00     0.230 C 
HETATM   37  C   UNL     1     -40.988  61.584 -58.490  1.00  0.00     0.034 C 
ENDBRANCH  32  36
ENDBRANCH  31  32
ENDBRANCH  30  31
ENDBRANCH  29  30
ENDBRANCH  12  29
TORSDOF 13
ENDMDL
MODEL 4
REMARK VINA RESULT:      -6.6      4.985      8.391
REMARK  13 active torsions:
REMARK  status: ('A' for Active; 'I' for Inactive)
REMARK    1  A    between atoms: C_2  and  N_3 
REMARK    2  A    between atoms: N_3  and  C_5 
REMARK    3  A    between atoms: N_3  and  C_34 
REMARK    4  A    between atoms: C_5  and  C_6 
REMARK    5  A    between atoms: C_6  and  O_7 
REMARK    6  A    between atoms: O_7  and  C_8 
REMARK    7  A    between atoms: N_15  and  N_16 
REMARK    8  A    between atoms: C_20  and  O_21 
REMARK    9  A    between atoms: O_21  and  C_22 
REMARK   10  A    between atoms: C_22  and  C_23 
REMARK   11  A    between atoms: C_23  and  N_24 
REMARK   12  A    between atoms: N_24  and  C_26 
REMARK   13  A    between atoms: N_24  and  C_28 
ROOT
HETATM    1  C   UNL     1     -41.563  56.310 -52.122  1.00  0.00     0.091 A 
HETATM    2  C   UNL     1     -41.289  57.689 -51.972  1.00  0.00     0.068 A 
HETATM    3 CL   UNL     1     -40.728  58.309 -50.458  1.00  0.00    -0.081 Cl
HETATM    4  C   UNL     1     -41.442  58.588 -53.039  1.00  0.00     0.040 A 
HETATM    5  C   UNL     1     -41.890  58.095 -54.254  1.00  0.00    -0.011 A 
HETATM    6  C   UNL     1     -42.199  56.725 -54.389  1.00  0.00     0.009 A 
HETATM    7  C   UNL     1     -42.669  56.519 -55.786  1.00  0.00     0.093 A 
HETATM    8  N   UNL     1     -43.089  55.476 -56.430  1.00  0.00    -0.203 NA
HETATM    9  C   UNL     1     -42.590  57.840 -56.450  1.00  0.00     0.009 A 
HETATM   10  C   UNL     1     -42.120  58.770 -55.515  1.00  0.00    -0.011 A 
HETATM   11  C   UNL     1     -42.908  58.161 -57.762  1.00  0.00     0.053 A 
HETATM   12  C   UNL     1     -42.750  59.490 -58.156  1.00  0.00     0.091 A 
HETATM   13  C   UNL     1     -42.253  60.439 -57.227  1.00  0.00     0.068 A 
HETATM   14 CL   UNL     1     -42.024  62.088 -57.703  1.00  0.00    -0.081 Cl
HETATM   15  C   UNL     1     -41.943  60.087 -55.902  1.00  0.00     0.040 A 
HETATM   16  C   UNL     1     -42.043  55.826 -53.344  1.00  0.00     0.053 A 
ENDROOT
BRANCH   1  17
HETATM   17  O   UNL     1     -41.371  55.511 -51.020  1.00  0.00    -0.348 OA
BRANCH  17  18
HETATM   18  C   UNL     1     -41.661  54.119 -51.192  1.00  0.00     0.203 C 
BRANCH  18  19
HETATM   19  C   UNL     1     -40.341  53.346 -51.077  1.00  0.00     0.261 C 
BRANCH  19  20
HETATM   20  N   UNL     1     -40.314  52.125 -51.994  1.00  0.00    -0.070 N 
HETATM   21  H   UNL     1     -41.189  51.621 -51.775  1.00  0.00     0.279 HD
BRANCH  20  22
HETATM   22  C   UNL     1     -39.173  51.173 -51.679  1.00  0.00     0.230 C 
HETATM   23  C   UNL     1     -39.676  49.949 -50.935  1.00  0.00     0.034 C 
ENDBRANCH  20  22
BRANCH  20  24
HETATM   24  C   UNL     1     -40.413  52.427 -53.478  1.00  0.00     0.230 C 
HETATM   25  C   UNL     1     -40.247  51.188 -54.337  1.00  0.00     0.034 C 
ENDBRANCH  20  24
ENDBRANCH  19  20
ENDBRANCH  18  19
ENDBRANCH  17  18
ENDBRANCH   1  17
BRANCH   8  26
HETATM   26  N   UNL     1     -43.158  54.316 -55.749  1.00  0.00    -0.226 NA
HETATM   27  H   UNL     1     -42.846  54.488 -54.787  1.00  0.00     0.145 HD
HETATM   28  H   UNL     1     -42.422  53.691 -56.097  1.00  0.00     0.145 HD
ENDBRANCH   8  26
BRANCH  12  29
HETATM   29  O   UNL     1     -43.020  59.942 -59.427  1.00  0.00    -0.348 OA
BRANCH  29  30
HETATM   30  C   UNL     1     -43.339  58.946 -60.403  1.00  0.00     0.203 C 
BRANCH  30  31
HETATM   31  C   UNL     1     -44.840  59.045 -60.703  1.00  0.00     0.261 C 
BRANCH  31  32
HETATM   32  N   UNL     1     -45.511  57.671 -60.763  1.00  0.00    -0.070 N 
HETATM   33  H   UNL     1     -45.754  57.560 -61.761  1.00  0.00     0.279 HD
BRANCH  32  34
HETATM   34  C   UNL     1     -44.603  56.500 -60.445  1.00  0.00     0.230 C 
HETATM   35  C   UNL     1     -45.103  55.190 -61.024  1.00  0.00     0.034 C 
ENDBRANCH  32  34
BRANCH  32  36
HETATM   36  C   UNL     1     -46.831  57.693 -60.011  1.00  0.00     0.230 C 
HETATM   37  C   UNL     1     -46.629  57.680 -58.508  1.00  0.00     0.034 C 
ENDBRANCH  32  36
ENDBRANCH  31  32
ENDBRANCH  30  31
ENDBRANCH  29  30
ENDBRANCH  12  29
TORSDOF 13
ENDMDL
MODEL 5
REMARK VINA RESULT:      -6.6      1.913      9.415
REMARK  13 active torsions:
REMARK  status: ('A' for Active; 'I' for Inactive)
REMARK    1  A    between atoms: C_2  and  N_3 
REMARK    2  A    between atoms: N_3  and  C_5 
REMARK    3  A    between atoms: N_3  and  C_34 
REMARK    4  A    between atoms: C_5  and  C_6 
REMARK    5  A    between atoms: C_6  and  O_7 
REMARK    6  A    between atoms: O_7  and  C_8 
REMARK    7  A    between atoms: N_15  and  N_16 
REMARK    8  A    between atoms: C_20  and  O_21 
REMARK    9  A    between atoms: O_21  and  C_22 
REMARK   10  A    between atoms: C_22  and  C_23 
REMARK   11  A    between atoms: C_23  and  N_24 
REMARK   12  A    between atoms: N_24  and  C_26 
REMARK   13  A    between atoms: N_24  and  C_28 
ROOT
HETATM    1  C   UNL     1     -43.288  55.603 -54.882  1.00  0.00     0.091 A 
HETATM    2  C   UNL     1     -43.368  56.650 -55.830  1.00  0.00     0.068 A 
HETATM    3 CL   UNL     1     -42.796  56.411 -57.446  1.00  0.00    -0.081 Cl
HETATM    4  C   UNL     1     -43.924  57.896 -55.504  1.00  0.00     0.040 A 
HETATM    5  C   UNL     1     -44.383  58.091 -54.211  1.00  0.00    -0.011 A 
HETATM    6  C   UNL     1     -44.268  57.058 -53.257  1.00  0.00     0.009 A 
HETATM    7  C   UNL     1     -44.823  57.579 -51.979  1.00  0.00     0.093 A 
HETATM    8  N   UNL     1     -44.945  57.065 -50.796  1.00  0.00    -0.203 NA
HETATM    9  C   UNL     1     -45.284  58.958 -52.258  1.00  0.00     0.009 A 
HETATM   10  C   UNL     1     -45.012  59.245 -53.601  1.00  0.00    -0.011 A 
HETATM   11  C   UNL     1     -45.886  59.854 -51.386  1.00  0.00     0.053 A 
HETATM   12  C   UNL     1     -46.232  61.109 -51.889  1.00  0.00     0.091 A 
HETATM   13  C   UNL     1     -45.984  61.406 -53.254  1.00  0.00     0.068 A 
HETATM   14 CL   UNL     1     -46.430  62.947 -53.907  1.00  0.00    -0.081 Cl
HETATM   15  C   UNL     1     -45.368  60.480 -54.114  1.00  0.00     0.040 A 
HETATM   16  C   UNL     1     -43.729  55.819 -53.572  1.00  0.00     0.053 A 
ENDROOT
BRANCH   1  17
HETATM   17  O   UNL     1     -42.737  54.417 -55.305  1.00  0.00    -0.348 OA
BRANCH  17  18
HETATM   18  C   UNL     1     -41.398  54.154 -54.871  1.00  0.00     0.203 C 
BRANCH  18  19
HETATM   19  C   UNL     1     -41.421  52.874 -54.026  1.00  0.00     0.261 C 
BRANCH  19  20
HETATM   20  N   UNL     1     -40.156  52.726 -53.182  1.00  0.00    -0.070 N 
HETATM   21  H   UNL     1     -39.437  53.253 -53.704  1.00  0.00     0.279 HD
BRANCH  20  22
HETATM   22  C   UNL     1     -39.666  51.291 -53.097  1.00  0.00     0.230 C 
HETATM   23  C   UNL     1     -40.009  50.523 -54.361  1.00  0.00     0.034 C 
ENDBRANCH  20  22
BRANCH  20  24
HETATM   24  C   UNL     1     -40.203  53.397 -51.822  1.00  0.00     0.230 C 
HETATM   25  C   UNL     1     -41.620  53.599 -51.321  1.00  0.00     0.034 C 
ENDBRANCH  20  24
ENDBRANCH  19  20
ENDBRANCH  18  19
ENDBRANCH  17  18
ENDBRANCH   1  17
BRANCH   8  26
HETATM   26  N   UNL     1     -44.477  55.815 -50.614  1.00  0.00    -0.226 NA
HETATM   27  H   UNL     1     -44.393  55.366 -51.533  1.00  0.00     0.145 HD
HETATM   28  H   UNL     1     -45.216  55.252 -50.176  1.00  0.00     0.145 HD
ENDBRANCH   8  26
BRANCH  12  29
HETATM   29  O   UNL     1     -46.842  62.087 -51.138  1.00  0.00    -0.348 OA
BRANCH  29  30
HETATM   30  C   UNL     1     -46.068  62.645 -50.072  1.00  0.00     0.203 C 
BRANCH  30  31
HETATM   31  C   UNL     1     -47.010  62.890 -48.887  1.00  0.00     0.261 C 
BRANCH  31  32
HETATM   32  N   UNL     1     -46.254  63.021 -47.562  1.00  0.00    -0.070 N 
HETATM   33  H   UNL     1     -46.009  64.024 -47.518  1.00  0.00     0.279 HD
BRANCH  32  34
HETATM   34  C   UNL     1     -47.084  62.763 -46.322  1.00  0.00     0.230 C 
HETATM   35  C   UNL     1     -47.117  63.948 -45.375  1.00  0.00     0.034 C 
ENDBRANCH  32  34
BRANCH  32  36
HETATM   36  C   UNL     1     -44.935  62.271 -47.630  1.00  0.00     0.230 C 
HETATM   37  C   UNL     1     -44.885  61.120 -46.643  1.00  0.00     0.034 C 
ENDBRANCH  32  36
ENDBRANCH  31  32
ENDBRANCH  30  31
ENDBRANCH  29  30
ENDBRANCH  12  29
TORSDOF 13
ENDMDL
MODEL 6
REMARK VINA RESULT:      -6.5      1.815      9.179
REMARK  13 active torsions:
REMARK  status: ('A' for Active; 'I' for Inactive)
REMARK    1  A    between atoms: C_2  and  N_3 
REMARK    2  A    between atoms: N_3  and  C_5 
REMARK    3  A    between atoms: N_3  and  C_34 
REMARK    4  A    between atoms: C_5  and  C_6 
REMARK    5  A    between atoms: C_6  and  O_7 
REMARK    6  A    between atoms: O_7  and  C_8 
REMARK    7  A    between atoms: N_15  and  N_16 
REMARK    8  A    between atoms: C_20  and  O_21 
REMARK    9  A    between atoms: O_21  and  C_22 
REMARK   10  A    between atoms: C_22  and  C_23 
REMARK   11  A    between atoms: C_23  and  N_24 
REMARK   12  A    between atoms: N_24  and  C_26 
REMARK   13  A    between atoms: N_24  and  C_28 
ROOT
HETATM    1  C   UNL     1     -43.177  56.913 -54.806  1.00  0.00     0.091 A 
HETATM    2  C   UNL     1     -43.111  58.190 -55.410  1.00  0.00     0.068 A 
HETATM    3 CL   UNL     1     -42.407  58.379 -56.979  1.00  0.00    -0.081 Cl
HETATM    4  C   UNL     1     -43.625  59.331 -54.775  1.00  0.00     0.040 A 
HETATM    5  C   UNL     1     -44.190  59.184 -53.518  1.00  0.00    -0.011 A 
HETATM    6  C   UNL     1     -44.220  57.916 -52.902  1.00  0.00     0.009 A 
HETATM    7  C   UNL     1     -44.861  58.092 -51.570  1.00  0.00     0.093 A 
HETATM    8  N   UNL     1     -45.120  57.272 -50.601  1.00  0.00    -0.203 NA
HETATM    9  C   UNL     1     -45.217  59.525 -51.467  1.00  0.00     0.009 A 
HETATM   10  C   UNL     1     -44.807  60.161 -52.645  1.00  0.00    -0.011 A 
HETATM   11  C   UNL     1     -45.847  60.179 -50.418  1.00  0.00     0.053 A 
HETATM   12  C   UNL     1     -46.075  61.548 -50.557  1.00  0.00     0.091 A 
HETATM   13  C   UNL     1     -45.686  62.203 -51.754  1.00  0.00     0.068 A 
HETATM   14 CL   UNL     1     -45.984  63.896 -51.958  1.00  0.00    -0.081 Cl
HETATM   15  C   UNL     1     -45.045  61.516 -52.800  1.00  0.00     0.040 A 
HETATM   16  C   UNL     1     -43.724  56.779 -53.525  1.00  0.00     0.053 A 
ENDROOT
BRANCH   1  17
HETATM   17  O   UNL     1     -42.656  55.858 -55.516  1.00  0.00    -0.348 OA
BRANCH  17  18
HETATM   18  C   UNL     1     -41.491  55.239 -54.959  1.00  0.00     0.203 C 
BRANCH  18  19
HETATM   19  C   UNL     1     -41.843  53.782 -54.632  1.00  0.00     0.261 C 
BRANCH  19  20
HETATM   20  N   UNL     1     -41.370  53.381 -53.236  1.00  0.00    -0.070 N 
HETATM   21  H   UNL     1     -42.172  52.869 -52.832  1.00  0.00     0.279 HD
BRANCH  20  22
HETATM   22  C   UNL     1     -41.114  54.573 -52.332  1.00  0.00     0.230 C 
HETATM   23  C   UNL     1     -41.063  54.150 -50.875  1.00  0.00     0.034 C 
ENDBRANCH  20  22
BRANCH  20  24
HETATM   24  C   UNL     1     -40.228  52.381 -53.202  1.00  0.00     0.230 C 
HETATM   25  C   UNL     1     -40.335  51.337 -54.298  1.00  0.00     0.034 C 
ENDBRANCH  20  24
ENDBRANCH  19  20
ENDBRANCH  18  19
ENDBRANCH  17  18
ENDBRANCH   1  17
BRANCH   8  26
HETATM   26  N   UNL     1     -44.741  55.989 -50.759  1.00  0.00    -0.226 NA
HETATM   27  H   UNL     1     -45.330  55.566 -51.486  1.00  0.00     0.145 HD
HETATM   28  H   UNL     1     -45.028  55.460 -49.927  1.00  0.00     0.145 HD
ENDBRANCH   8  26
BRANCH  12  29
HETATM   29  O   UNL     1     -46.696  62.316 -49.599  1.00  0.00    -0.348 OA
BRANCH  29  30
HETATM   30  C   UNL     1     -46.015  62.445 -48.347  1.00  0.00     0.203 C 
BRANCH  30  31
HETATM   31  C   UNL     1     -47.017  62.117 -47.232  1.00  0.00     0.261 C 
BRANCH  31  32
HETATM   32  N   UNL     1     -46.392  61.268 -46.123  1.00  0.00    -0.070 N 
HETATM   33  H   UNL     1     -47.070  61.342 -45.346  1.00  0.00     0.279 HD
BRANCH  32  34
HETATM   34  C   UNL     1     -46.299  59.786 -46.426  1.00  0.00     0.230 C 
HETATM   35  C   UNL     1     -47.302  58.959 -45.644  1.00  0.00     0.034 C 
ENDBRANCH  32  34
BRANCH  32  36
HETATM   36  C   UNL     1     -45.110  61.911 -45.623  1.00  0.00     0.230 C 
HETATM   37  C   UNL     1     -44.305  60.968 -44.750  1.00  0.00     0.034 C 
ENDBRANCH  32  36
ENDBRANCH  31  32
ENDBRANCH  30  31
ENDBRANCH  29  30
ENDBRANCH  12  29
TORSDOF 13
ENDMDL
MODEL 7
REMARK VINA RESULT:      -6.4      1.402      9.667
REMARK  13 active torsions:
REMARK  status: ('A' for Active; 'I' for Inactive)
REMARK    1  A    between atoms: C_2  and  N_3 
REMARK    2  A    between atoms: N_3  and  C_5 
REMARK    3  A    between atoms: N_3  and  C_34 
REMARK    4  A    between atoms: C_5  and  C_6 
REMARK    5  A    between atoms: C_6  and  O_7 
REMARK    6  A    between atoms: O_7  and  C_8 
REMARK    7  A    between atoms: N_15  and  N_16 
REMARK    8  A    between atoms: C_20  and  O_21 
REMARK    9  A    between atoms: O_21  and  C_22 
REMARK   10  A    between atoms: C_22  and  C_23 
REMARK   11  A    between atoms: C_23  and  N_24 
REMARK   12  A    between atoms: N_24  and  C_26 
REMARK   13  A    between atoms: N_24  and  C_28 
ROOT
HETATM    1  C   UNL     1     -41.490  55.797 -53.408  1.00  0.00     0.091 A 
HETATM    2  C   UNL     1     -42.765  55.831 -54.019  1.00  0.00     0.068 A 
HETATM    3 CL   UNL     1     -43.248  54.575 -55.106  1.00  0.00    -0.081 Cl
HETATM    4  C   UNL     1     -43.679  56.862 -53.754  1.00  0.00     0.040 A 
HETATM    5  C   UNL     1     -43.297  57.870 -52.883  1.00  0.00    -0.011 A 
HETATM    6  C   UNL     1     -42.011  57.854 -52.305  1.00  0.00     0.009 A 
HETATM    7  C   UNL     1     -41.900  59.066 -51.449  1.00  0.00     0.093 A 
HETATM    8  N   UNL     1     -40.944  59.544 -50.717  1.00  0.00    -0.203 NA
HETATM    9  C   UNL     1     -43.201  59.766 -51.551  1.00  0.00     0.009 A 
HETATM   10  C   UNL     1     -44.024  59.032 -52.414  1.00  0.00    -0.011 A 
HETATM   11  C   UNL     1     -43.595  60.939 -50.924  1.00  0.00     0.053 A 
HETATM   12  C   UNL     1     -44.884  61.406 -51.181  1.00  0.00     0.091 A 
HETATM   13  C   UNL     1     -45.738  60.662 -52.036  1.00  0.00     0.068 A 
HETATM   14 CL   UNL     1     -47.351  61.207 -52.347  1.00  0.00    -0.081 Cl
HETATM   15  C   UNL     1     -45.311  59.477 -52.661  1.00  0.00     0.040 A 
HETATM   16  C   UNL     1     -41.102  56.835 -52.553  1.00  0.00     0.053 A 
ENDROOT
BRANCH   1  17
HETATM   17  O   UNL     1     -40.673  54.738 -53.726  1.00  0.00    -0.348 OA
BRANCH  17  18
HETATM   18  C   UNL     1     -40.675  53.643 -52.804  1.00  0.00     0.203 C 
BRANCH  18  19
HETATM   19  C   UNL     1     -40.341  52.368 -53.588  1.00  0.00     0.261 C 
BRANCH  19  20
HETATM   20  N   UNL     1     -39.541  51.374 -52.747  1.00  0.00    -0.070 N 
HETATM   21  H   UNL     1     -38.556  51.650 -52.893  1.00  0.00     0.279 HD
BRANCH  20  22
HETATM   22  C   UNL     1     -39.670  49.943 -53.240  1.00  0.00     0.230 C 
HETATM   23  C   UNL     1     -40.015  49.906 -54.718  1.00  0.00     0.034 C 
ENDBRANCH  20  22
BRANCH  20  24
HETATM   24  C   UNL     1     -39.746  51.483 -51.248  1.00  0.00     0.230 C 
HETATM   25  C   UNL     1     -39.884  50.128 -50.579  1.00  0.00     0.034 C 
ENDBRANCH  20  24
ENDBRANCH  19  20
ENDBRANCH  18  19
ENDBRANCH  17  18
ENDBRANCH   1  17
BRANCH   8  26
HETATM   26  N   UNL     1     -39.781  58.865 -50.698  1.00  0.00    -0.226 NA
HETATM   27  H   UNL     1     -39.205  59.190 -51.483  1.00  0.00     0.145 HD
HETATM   28  H   UNL     1     -39.969  57.892 -50.968  1.00  0.00     0.145 HD
ENDBRANCH   8  26
BRANCH  12  29
HETATM   29  O   UNL     1     -45.404  62.549 -50.621  1.00  0.00    -0.348 OA
BRANCH  29  30
HETATM   30  C   UNL     1     -46.247  62.372 -49.478  1.00  0.00     0.203 C 
BRANCH  30  31
HETATM   31  C   UNL     1     -45.440  62.765 -48.234  1.00  0.00     0.261 C 
BRANCH  31  32
HETATM   32  N   UNL     1     -46.148  62.371 -46.936  1.00  0.00    -0.070 N 
HETATM   33  H   UNL     1     -47.142  62.301 -47.210  1.00  0.00     0.279 HD
BRANCH  32  34
HETATM   34  C   UNL     1     -45.788  61.000 -46.401  1.00  0.00     0.230 C 
HETATM   35  C   UNL     1     -44.699  61.044 -45.346  1.00  0.00     0.034 C 
ENDBRANCH  32  34
BRANCH  32  36
HETATM   36  C   UNL     1     -46.071  63.503 -45.927  1.00  0.00     0.230 C 
HETATM   37  C   UNL     1     -47.411  63.768 -45.267  1.00  0.00     0.034 C 
ENDBRANCH  32  36
ENDBRANCH  31  32
ENDBRANCH  30  31
ENDBRANCH  29  30
ENDBRANCH  12  29
TORSDOF 13
ENDMDL
MODEL 8
REMARK VINA RESULT:      -6.4      4.591      7.754
REMARK  13 active torsions:
REMARK  status: ('A' for Active; 'I' for Inactive)
REMARK    1  A    between atoms: C_2  and  N_3 
REMARK    2  A    between atoms: N_3  and  C_5 
REMARK    3  A    between atoms: N_3  and  C_34 
REMARK    4  A    between atoms: C_5  and  C_6 
REMARK    5  A    between atoms: C_6  and  O_7 
REMARK    6  A    between atoms: O_7  and  C_8 
REMARK    7  A    between atoms: N_15  and  N_16 
REMARK    8  A    between atoms: C_20  and  O_21 
REMARK    9  A    between atoms: O_21  and  C_22 
REMARK   10  A    between atoms: C_22  and  C_23 
REMARK   11  A    between atoms: C_23  and  N_24 
REMARK   12  A    between atoms: N_24  and  C_26 
REMARK   13  A    between atoms: N_24  and  C_28 
ROOT
HETATM    1  C   UNL     1     -44.416  59.245 -56.981  1.00  0.00     0.091 A 
HETATM    2  C   UNL     1     -44.043  60.298 -56.114  1.00  0.00     0.068 A 
HETATM    3 CL   UNL     1     -44.416  61.938 -56.520  1.00  0.00    -0.081 Cl
HETATM    4  C   UNL     1     -43.382  60.052 -54.901  1.00  0.00     0.040 A 
HETATM    5  C   UNL     1     -43.082  58.739 -54.572  1.00  0.00    -0.011 A 
HETATM    6  C   UNL     1     -43.422  57.694 -55.456  1.00  0.00     0.009 A 
HETATM    7  C   UNL     1     -42.952  56.426 -54.836  1.00  0.00     0.093 A 
HETATM    8  N   UNL     1     -42.989  55.190 -55.220  1.00  0.00    -0.203 NA
HETATM    9  C   UNL     1     -42.345  56.799 -53.538  1.00  0.00     0.009 A 
HETATM   10  C   UNL     1     -42.435  58.189 -53.399  1.00  0.00    -0.011 A 
HETATM   11  C   UNL     1     -41.777  55.965 -52.586  1.00  0.00     0.053 A 
HETATM   12  C   UNL     1     -41.265  56.559 -51.432  1.00  0.00     0.091 A 
HETATM   13  C   UNL     1     -41.369  57.964 -51.266  1.00  0.00     0.068 A 
HETATM   14 CL   UNL     1     -40.766  58.720 -49.829  1.00  0.00    -0.081 Cl
HETATM   15  C   UNL     1     -41.946  58.786 -52.249  1.00  0.00     0.040 A 
HETATM   16  C   UNL     1     -44.083  57.926 -56.654  1.00  0.00     0.053 A 
ENDROOT
BRANCH   1  17
HETATM   17  O   UNL     1     -45.070  59.591 -58.140  1.00  0.00    -0.348 OA
BRANCH  17  18
HETATM   18  C   UNL     1     -44.371  59.325 -59.361  1.00  0.00     0.203 C 
BRANCH  18  19
HETATM   19  C   UNL     1     -45.273  58.448 -60.237  1.00  0.00     0.261 C 
BRANCH  19  20
HETATM   20  N   UNL     1     -44.541  57.207 -60.746  1.00  0.00    -0.070 N 
HETATM   21  H   UNL     1     -44.559  57.303 -61.774  1.00  0.00     0.279 HD
BRANCH  20  22
HETATM   22  C   UNL     1     -45.268  55.914 -60.416  1.00  0.00     0.230 C 
HETATM   23  C   UNL     1     -46.772  56.125 -60.402  1.00  0.00     0.034 C 
ENDBRANCH  20  22
BRANCH  20  24
HETATM   24  C   UNL     1     -43.065  57.137 -60.399  1.00  0.00     0.230 C 
HETATM   25  C   UNL     1     -42.706  55.880 -59.629  1.00  0.00     0.034 C 
ENDBRANCH  20  24
ENDBRANCH  19  20
ENDBRANCH  18  19
ENDBRANCH  17  18
ENDBRANCH   1  17
BRANCH   8  26
HETATM   26  N   UNL     1     -43.532  54.934 -56.426  1.00  0.00    -0.226 NA
HETATM   27  H   UNL     1     -43.545  53.917 -56.565  1.00  0.00     0.145 HD
HETATM   28  H   UNL     1     -42.870  55.233 -57.151  1.00  0.00     0.145 HD
ENDBRANCH   8  26
BRANCH  12  29
HETATM   29  O   UNL     1     -40.684  55.851 -50.406  1.00  0.00    -0.348 OA
BRANCH  29  30
HETATM   30  C   UNL     1     -41.120  54.498 -50.239  1.00  0.00     0.203 C 
BRANCH  30  31
HETATM   31  C   UNL     1     -39.915  53.582 -50.487  1.00  0.00     0.261 C 
BRANCH  31  32
HETATM   32  N   UNL     1     -40.312  52.278 -51.182  1.00  0.00    -0.070 N 
HETATM   33  H   UNL     1     -41.314  52.410 -51.398  1.00  0.00     0.279 HD
BRANCH  32  34
HETATM   34  C   UNL     1     -39.647  52.038 -52.522  1.00  0.00     0.230 C 
HETATM   35  C   UNL     1     -40.493  52.504 -53.693  1.00  0.00     0.034 C 
ENDBRANCH  32  34
BRANCH  32  36
HETATM   36  C   UNL     1     -40.244  51.116 -50.206  1.00  0.00     0.230 C 
HETATM   37  C   UNL     1     -39.689  49.862 -50.853  1.00  0.00     0.034 C 
ENDBRANCH  32  36
ENDBRANCH  31  32
ENDBRANCH  30  31
ENDBRANCH  29  30
ENDBRANCH  12  29
TORSDOF 13
ENDMDL
MODEL 9
REMARK VINA RESULT:      -6.4      4.722      8.497
REMARK  13 active torsions:
REMARK  status: ('A' for Active; 'I' for Inactive)
REMARK    1  A    between atoms: C_2  and  N_3 
REMARK    2  A    between atoms: N_3  and  C_5 
REMARK    3  A    between atoms: N_3  and  C_34 
REMARK    4  A    between atoms: C_5  and  C_6 
REMARK    5  A    between atoms: C_6  and  O_7 
REMARK    6  A    between atoms: O_7  and  C_8 
REMARK    7  A    between atoms: N_15  and  N_16 
REMARK    8  A    between atoms: C_20  and  O_21 
REMARK    9  A    between atoms: O_21  and  C_22 
REMARK   10  A    between atoms: C_22  and  C_23 
REMARK   11  A    between atoms: C_23  and  N_24 
REMARK   12  A    between atoms: N_24  and  C_26 
REMARK   13  A    between atoms: N_24  and  C_28 
ROOT
HETATM    1  C   UNL     1     -42.764  57.523 -59.023  1.00  0.00     0.091 A 
HETATM    2  C   UNL     1     -43.294  56.239 -58.754  1.00  0.00     0.068 A 
HETATM    3 CL   UNL     1     -43.781  55.207 -60.054  1.00  0.00    -0.081 Cl
HETATM    4  C   UNL     1     -43.422  55.757 -57.443  1.00  0.00     0.040 A 
HETATM    5  C   UNL     1     -43.031  56.581 -56.400  1.00  0.00    -0.011 A 
HETATM    6  C   UNL     1     -42.539  57.875 -56.668  1.00  0.00     0.009 A 
HETATM    7  C   UNL     1     -42.233  58.507 -55.356  1.00  0.00     0.093 A 
HETATM    8  N   UNL     1     -41.781  59.676 -55.025  1.00  0.00    -0.203 NA
HETATM    9  C   UNL     1     -42.554  57.497 -54.323  1.00  0.00     0.009 A 
HETATM   10  C   UNL     1     -43.030  56.350 -54.970  1.00  0.00    -0.011 A 
HETATM   11  C   UNL     1     -42.426  57.607 -52.946  1.00  0.00     0.053 A 
HETATM   12  C   UNL     1     -42.800  56.507 -52.174  1.00  0.00     0.091 A 
HETATM   13  C   UNL     1     -43.262  55.329 -52.815  1.00  0.00     0.068 A 
HETATM   14 CL   UNL     1     -43.705  53.942 -51.878  1.00  0.00    -0.081 Cl
HETATM   15  C   UNL     1     -43.386  55.247 -54.213  1.00  0.00     0.040 A 
HETATM   16  C   UNL     1     -42.399  58.359 -57.961  1.00  0.00     0.053 A 
ENDROOT
BRANCH   1  17
HETATM   17  O   UNL     1     -42.668  57.897 -60.342  1.00  0.00    -0.348 OA
BRANCH  17  18
HETATM   18  C   UNL     1     -43.070  59.238 -60.647  1.00  0.00     0.203 C 
BRANCH  18  19
HETATM   19  C   UNL     1     -41.883  59.943 -61.315  1.00  0.00     0.261 C 
BRANCH  19  20
HETATM   20  N   UNL     1     -41.837  61.431 -60.973  1.00  0.00    -0.070 N 
HETATM   21  H   UNL     1     -42.798  61.764 -61.154  1.00  0.00     0.279 HD
BRANCH  20  22
HETATM   22  C   UNL     1     -40.922  62.222 -61.891  1.00  0.00     0.230 C 
HETATM   23  C   UNL     1     -39.903  63.015 -61.091  1.00  0.00     0.034 C 
ENDBRANCH  20  22
BRANCH  20  24
HETATM   24  C   UNL     1     -41.595  61.751 -59.509  1.00  0.00     0.230 C 
HETATM   25  C   UNL     1     -42.803  62.385 -58.845  1.00  0.00     0.034 C 
ENDBRANCH  20  24
ENDBRANCH  19  20
ENDBRANCH  18  19
ENDBRANCH  17  18
ENDBRANCH   1  17
BRANCH   8  26
HETATM   26  N   UNL     1     -41.538  60.550 -56.020  1.00  0.00    -0.226 NA
HETATM   27  H   UNL     1     -41.757  61.494 -55.681  1.00  0.00     0.145 HD
HETATM   28  H   UNL     1     -42.252  60.421 -56.747  1.00  0.00     0.145 HD
ENDBRANCH   8  26
BRANCH  12  29
HETATM   29  O   UNL     1     -42.715  56.478 -50.801  1.00  0.00    -0.348 OA
BRANCH  29  30
HETATM   30  C   UNL     1     -41.403  56.341 -50.247  1.00  0.00     0.203 C 
BRANCH  30  31
HETATM   31  C   UNL     1     -40.640  55.316 -51.096  1.00  0.00     0.261 C 
BRANCH  31  32
HETATM   32  N   UNL     1     -40.468  53.978 -50.373  1.00  0.00    -0.070 N 
HETATM   33  H   UNL     1     -41.424  53.747 -50.053  1.00  0.00     0.279 HD
BRANCH  32  34
HETATM   34  C   UNL     1     -40.058  52.819 -51.259  1.00  0.00     0.230 C 
HETATM   35  C   UNL     1     -40.360  53.061 -52.726  1.00  0.00     0.034 C 
ENDBRANCH  32  34
BRANCH  32  36
HETATM   36  C   UNL     1     -39.638  54.159 -49.114  1.00  0.00     0.230 C 
HETATM   37  C   UNL     1     -40.416  53.796 -47.864  1.00  0.00     0.034 C 
ENDBRANCH  32  36
ENDBRANCH  31  32
ENDBRANCH  30  31
ENDBRANCH  29  30
ENDBRANCH  12  29
TORSDOF 13
ENDMDL
MODEL 10
REMARK VINA RESULT:      -6.4      4.444      7.849
REMARK  13 active torsions:
REMARK  status: ('A' for Active; 'I' for Inactive)
REMARK    1  A    between atoms: C_2  and  N_3 
REMARK    2  A    between atoms: N_3  and  C_5 
REMARK    3  A    between atoms: N_3  and  C_34 
REMARK    4  A    between atoms: C_5  and  C_6 
REMARK    5  A    between atoms: C_6  and  O_7 
REMARK    6  A    between atoms: O_7  and  C_8 
REMARK    7  A    between atoms: N_15  and  N_16 
REMARK    8  A    between atoms: C_20  and  O_21 
REMARK    9  A    between atoms: O_21  and  C_22 
REMARK   10  A    between atoms: C_22  and  C_23 
REMARK   11  A    between atoms: C_23  and  N_24 
REMARK   12  A    between atoms: N_24  and  C_26 
REMARK   13  A    between atoms: N_24  and  C_28 
ROOT
HETATM    1  C   UNL     1     -42.646  59.174 -58.590  1.00  0.00     0.091 A 
HETATM    2  C   UNL     1     -42.241  60.343 -57.904  1.00  0.00     0.068 A 
HETATM    3 CL   UNL     1     -42.033  61.831 -58.761  1.00  0.00    -0.081 Cl
HETATM    4  C   UNL     1     -42.017  60.341 -56.519  1.00  0.00     0.040 A 
HETATM    5  C   UNL     1     -42.184  59.151 -55.829  1.00  0.00    -0.011 A 
HETATM    6  C   UNL     1     -42.550  57.978 -56.522  1.00  0.00     0.009 A 
HETATM    7  C   UNL     1     -42.625  56.882 -55.518  1.00  0.00     0.093 A 
HETATM    8  N   UNL     1     -42.895  55.618 -55.611  1.00  0.00    -0.203 NA
HETATM    9  C   UNL     1     -42.305  57.495 -54.209  1.00  0.00     0.009 A 
HETATM   10  C   UNL     1     -42.045  58.855 -54.418  1.00  0.00    -0.011 A 
HETATM   11  C   UNL     1     -42.258  56.885 -52.965  1.00  0.00     0.053 A 
HETATM   12  C   UNL     1     -41.927  57.681 -51.868  1.00  0.00     0.091 A 
HETATM   13  C   UNL     1     -41.683  59.066 -52.060  1.00  0.00     0.068 A 
HETATM   14 CL   UNL     1     -41.298  60.079 -50.709  1.00  0.00    -0.081 Cl
HETATM   15  C   UNL     1     -41.734  59.658 -53.334  1.00  0.00     0.040 A 
HETATM   16  C   UNL     1     -42.783  57.971 -57.890  1.00  0.00     0.053 A 
ENDROOT
BRANCH   1  17
HETATM   17  O   UNL     1     -42.850  59.284 -59.945  1.00  0.00    -0.348 OA
BRANCH  17  18
HETATM   18  C   UNL     1     -44.024  58.643 -60.459  1.00  0.00     0.203 C 
BRANCH  18  19
HETATM   19  C   UNL     1     -45.243  59.426 -59.957  1.00  0.00     0.261 C 
BRANCH  19  20
HETATM   20  N   UNL     1     -46.351  58.498 -59.461  1.00  0.00    -0.070 N 
HETATM   21  H   UNL     1     -47.135  58.664 -60.114  1.00  0.00     0.279 HD
BRANCH  20  22
HETATM   22  C   UNL     1     -46.855  58.863 -58.076  1.00  0.00     0.230 C 
HETATM   23  C   UNL     1     -45.998  59.952 -57.456  1.00  0.00     0.034 C 
ENDBRANCH  20  22
BRANCH  20  24
HETATM   24  C   UNL     1     -46.060  57.014 -59.591  1.00  0.00     0.230 C 
HETATM   25  C   UNL     1     -47.115  56.281 -60.396  1.00  0.00     0.034 C 
ENDBRANCH  20  24
ENDBRANCH  19  20
ENDBRANCH  18  19
ENDBRANCH  17  18
ENDBRANCH   1  17
BRANCH   8  26
HETATM   26  N   UNL     1     -43.149  55.129 -56.840  1.00  0.00    -0.226 NA
HETATM   27  H   UNL     1     -43.924  55.666 -57.247  1.00  0.00     0.145 HD
HETATM   28  H   UNL     1     -43.572  54.200 -56.739  1.00  0.00     0.145 HD
ENDBRANCH   8  26
BRANCH  12  29
HETATM   29  O   UNL     1     -41.852  57.207 -50.579  1.00  0.00    -0.348 OA
BRANCH  29  30
HETATM   30  C   UNL     1     -40.839  56.231 -50.317  1.00  0.00     0.203 C 
BRANCH  30  31
HETATM   31  C   UNL     1     -41.519  55.001 -49.704  1.00  0.00     0.261 C 
BRANCH  31  32
HETATM   32  N   UNL     1     -41.741  53.889 -50.733  1.00  0.00    -0.070 N 
HETATM   33  H   UNL     1     -41.695  53.022 -50.171  1.00  0.00     0.279 HD
BRANCH  32  34
HETATM   34  C   UNL     1     -43.115  53.873 -51.371  1.00  0.00     0.230 C 
HETATM   35  C   UNL     1     -44.181  54.504 -50.496  1.00  0.00     0.034 C 
ENDBRANCH  32  34
BRANCH  32  36
HETATM   36  C   UNL     1     -40.573  53.823 -51.701  1.00  0.00     0.230 C 
HETATM   37  C   UNL     1     -39.908  52.460 -51.697  1.00  0.00     0.034 C 
ENDBRANCH  32  36
ENDBRANCH  31  32
ENDBRANCH  30  31
ENDBRANCH  29  30
ENDBRANCH  12  29
TORSDOF 13
ENDMDL
