MODEL 1
REMARK VINA RESULT:      -8.8      0.000      0.000
REMARK  8 active torsions:
REMARK  status: ('A' for Active; 'I' for Inactive)
REMARK    1  A    between atoms: C_4  and  C_5 
REMARK    2  A    between atoms: C_5  and  N_6 
REMARK    3  A    between atoms: N_10  and  C_11 
REMARK    4  A    between atoms: C_13  and  N_14 
REMARK    5  A    between atoms: N_17  and  C_19 
REMARK    6  A    between atoms: C_19  and  C_20 
REMARK    7  A    between atoms: C_29  and  N_30 
REMARK    8  A    between atoms: C_31  and  N_32 
ROOT
HETATM    1  C   UNL     1     -43.614  57.829 -53.648  1.00  0.00     0.181 A 
HETATM    2  N   UNL     1     -43.593  57.986 -54.994  1.00  0.00    -0.042 NA
HETATM    3  C   UNL     1     -44.370  58.894 -55.605  1.00  0.00     0.728 A 
HETATM    4  N   UNL     1     -45.244  59.658 -54.949  1.00  0.00    -0.048 NA
HETATM    5  C   UNL     1     -45.308  59.526 -53.615  1.00  0.00     0.157 A 
HETATM    6  C   UNL     1     -44.518  58.607 -52.943  1.00  0.00     0.189 A 
ENDROOT
BRANCH   1   7
HETATM    7  N   UNL     1     -42.709  56.901 -53.162  1.00  0.00    -0.360 N 
HETATM    8  C   UNL     1     -41.232  56.964 -53.174  1.00  0.00     0.152 C 
HETATM    9  C   UNL     1     -40.640  55.892 -54.126  1.00  0.00     0.255 C 
HETATM   10  N   UNL     1     -41.176  54.507 -53.745  1.00  0.00    -0.064 N 
HETATM   11  H   UNL     1     -40.863  54.345 -52.780  1.00  0.00     0.280 HD
HETATM   12  C   UNL     1     -42.700  54.478 -53.684  1.00  0.00     0.255 C 
HETATM   13  C   UNL     1     -43.227  55.580 -52.735  1.00  0.00     0.152 C 
BRANCH  10  14
HETATM   14  C   UNL     1     -40.569  53.358 -54.532  1.00  0.00     0.273 C 
BRANCH  14  15
HETATM   15  C   UNL     1     -40.179  52.108 -53.787  1.00  0.00    -0.033 A 
HETATM   16  C   UNL     1     -39.901  52.190 -52.411  1.00  0.00     0.009 A 
HETATM   17  C   UNL     1     -39.577  51.048 -51.674  1.00  0.00     0.001 A 
HETATM   18  C   UNL     1     -39.522  49.808 -52.301  1.00  0.00     0.000 A 
HETATM   19  C   UNL     1     -39.806  49.706 -53.659  1.00  0.00     0.001 A 
HETATM   20  C   UNL     1     -40.147  50.844 -54.395  1.00  0.00     0.009 A 
ENDBRANCH  14  15
ENDBRANCH  10  14
ENDBRANCH   1   7
BRANCH   6  21
HETATM   21  N   UNL     1     -44.579  58.598 -51.524  1.00  0.00    -0.108 N 
HETATM   22  O   UNL     1     -45.418  57.847 -51.010  1.00  0.00    -0.532 OA
HETATM   23  O   UNL     1     -43.842  59.381 -50.913  1.00  0.00    -0.532 OA
ENDBRANCH   6  21
BRANCH   3  24
HETATM   24  N   UNL     1     -44.215  59.063 -56.976  1.00  0.00    -0.211 N 
HETATM   25  C   UNL     1     -42.981  58.516 -57.563  1.00  0.00     0.169 C 
HETATM   26  C   UNL     1     -41.804  59.509 -57.481  1.00  0.00     0.255 C 
HETATM   27  N   UNL     1     -42.220  60.850 -58.094  1.00  0.00    -0.064 N 
HETATM   28  H   UNL     1     -42.480  60.658 -59.069  1.00  0.00     0.280 HD
HETATM   29  C   UNL     1     -43.455  61.404 -57.388  1.00  0.00     0.255 C 
HETATM   30  C   UNL     1     -44.619  60.387 -57.470  1.00  0.00     0.169 C 
BRANCH  27  31
HETATM   31  C   UNL     1     -41.087  61.847 -58.152  1.00  0.00     0.273 C 
BRANCH  31  32
HETATM   32  C   UNL     1     -40.687  62.179 -59.565  1.00  0.00    -0.033 A 
HETATM   33  C   UNL     1     -39.582  63.007 -59.819  1.00  0.00     0.009 A 
HETATM   34  C   UNL     1     -39.241  63.351 -61.128  1.00  0.00     0.001 A 
HETATM   35  C   UNL     1     -39.994  62.868 -62.195  1.00  0.00     0.000 A 
HETATM   36  C   UNL     1     -41.085  62.035 -61.958  1.00  0.00     0.001 A 
HETATM   37  C   UNL     1     -41.432  61.691 -60.650  1.00  0.00     0.009 A 
ENDBRANCH  31  32
ENDBRANCH  27  31
ENDBRANCH   3  24
BRANCH   5  38
HETATM   38  N   UNL     1     -46.257  60.340 -53.008  1.00  0.00    -0.284 NA
HETATM   39  H   UNL     1     -47.116  60.364 -53.550  1.00  0.00     0.125 HD
HETATM   40  H   UNL     1     -45.954  61.281 -52.767  1.00  0.00     0.125 HD
ENDBRANCH   5  38
TORSDOF 8
ENDMDL
MODEL 2
REMARK VINA RESULT:      -8.7      2.646      8.322
REMARK  8 active torsions:
REMARK  status: ('A' for Active; 'I' for Inactive)
REMARK    1  A    between atoms: C_4  and  C_5 
REMARK    2  A    between atoms: C_5  and  N_6 
REMARK    3  A    between atoms: N_10  and  C_11 
REMARK    4  A    between atoms: C_13  and  N_14 
REMARK    5  A    between atoms: N_17  and  C_19 
REMARK    6  A    between atoms: C_19  and  C_20 
REMARK    7  A    between atoms: C_29  and  N_30 
REMARK    8  A    between atoms: C_31  and  N_32 
ROOT
HETATM    1  C   UNL     1     -43.696  59.260 -54.230  1.00  0.00     0.181 A 
HETATM    2  N   UNL     1     -43.740  57.907 -54.164  1.00  0.00    -0.042 NA
HETATM    3  C   UNL     1     -43.793  57.265 -52.986  1.00  0.00     0.728 A 
HETATM    4  N   UNL     1     -43.755  57.898 -51.815  1.00  0.00    -0.048 NA
HETATM    5  C   UNL     1     -43.698  59.239 -51.833  1.00  0.00     0.157 A 
HETATM    6  C   UNL     1     -43.649  59.942 -53.026  1.00  0.00     0.189 A 
ENDROOT
BRANCH   1   7
HETATM    7  N   UNL     1     -43.711  59.774 -55.516  1.00  0.00    -0.360 N 
HETATM    8  C   UNL     1     -44.862  59.935 -56.428  1.00  0.00     0.152 C 
HETATM    9  C   UNL     1     -44.743  58.980 -57.644  1.00  0.00     0.255 C 
HETATM   10  N   UNL     1     -43.394  59.191 -58.341  1.00  0.00    -0.064 N 
HETATM   11  H   UNL     1     -43.394  60.171 -58.651  1.00  0.00     0.280 HD
HETATM   12  C   UNL     1     -42.222  59.076 -57.371  1.00  0.00     0.255 C 
HETATM   13  C   UNL     1     -42.409  60.038 -56.175  1.00  0.00     0.152 C 
BRANCH  10  14
HETATM   14  C   UNL     1     -43.215  58.395 -59.621  1.00  0.00     0.273 C 
BRANCH  14  15
HETATM   15  C   UNL     1     -43.852  57.032 -59.712  1.00  0.00    -0.033 A 
HETATM   16  C   UNL     1     -45.036  56.878 -60.454  1.00  0.00     0.009 A 
HETATM   17  C   UNL     1     -45.636  55.625 -60.598  1.00  0.00     0.001 A 
HETATM   18  C   UNL     1     -45.065  54.507 -59.999  1.00  0.00     0.000 A 
HETATM   19  C   UNL     1     -43.887  54.638 -59.271  1.00  0.00     0.001 A 
HETATM   20  C   UNL     1     -43.276  55.888 -59.140  1.00  0.00     0.009 A 
ENDBRANCH  14  15
ENDBRANCH  10  14
ENDBRANCH   1   7
BRANCH   6  21
HETATM   21  N   UNL     1     -43.686  61.361 -52.957  1.00  0.00    -0.108 N 
HETATM   22  O   UNL     1     -44.778  61.874 -52.680  1.00  0.00    -0.532 OA
HETATM   23  O   UNL     1     -42.652  61.976 -53.240  1.00  0.00    -0.532 OA
ENDBRANCH   6  21
BRANCH   3  24
HETATM   24  N   UNL     1     -43.938  55.882 -53.008  1.00  0.00    -0.211 N 
HETATM   25  C   UNL     1     -43.352  55.149 -51.874  1.00  0.00     0.169 C 
HETATM   26  C   UNL     1     -41.861  54.824 -52.095  1.00  0.00     0.255 C 
HETATM   27  N   UNL     1     -41.686  54.103 -53.435  1.00  0.00    -0.064 N 
HETATM   28  H   UNL     1     -42.251  53.246 -53.383  1.00  0.00     0.280 HD
HETATM   29  C   UNL     1     -42.238  54.950 -54.579  1.00  0.00     0.255 C 
HETATM   30  C   UNL     1     -43.731  55.276 -54.331  1.00  0.00     0.169 C 
BRANCH  27  31
HETATM   31  C   UNL     1     -40.265  53.651 -53.680  1.00  0.00     0.273 C 
BRANCH  31  32
HETATM   32  C   UNL     1     -40.059  52.199 -53.340  1.00  0.00    -0.033 A 
HETATM   33  C   UNL     1     -39.708  51.814 -52.036  1.00  0.00     0.009 A 
HETATM   34  C   UNL     1     -39.472  50.472 -51.734  1.00  0.00     0.001 A 
HETATM   35  C   UNL     1     -39.589  49.502 -52.726  1.00  0.00     0.000 A 
HETATM   36  C   UNL     1     -39.950  49.869 -54.021  1.00  0.00     0.001 A 
HETATM   37  C   UNL     1     -40.184  51.210 -54.329  1.00  0.00     0.009 A 
ENDBRANCH  31  32
ENDBRANCH  27  31
ENDBRANCH   3  24
BRANCH   5  38
HETATM   38  N   UNL     1     -43.639  59.823 -50.573  1.00  0.00    -0.284 NA
HETATM   39  H   UNL     1     -42.682  59.856 -50.232  1.00  0.00     0.125 HD
HETATM   40  H   UNL     1     -44.261  59.435 -49.868  1.00  0.00     0.125 HD
ENDBRANCH   5  38
TORSDOF 8
ENDMDL
MODEL 3
REMARK VINA RESULT:      -8.6      2.421      3.858
REMARK  8 active torsions:
REMARK  status: ('A' for Active; 'I' for Inactive)
REMARK    1  A    between atoms: C_4  and  C_5 
REMARK    2  A    between atoms: C_5  and  N_6 
REMARK    3  A    between atoms: N_10  and  C_11 
REMARK    4  A    between atoms: C_13  and  N_14 
REMARK    5  A    between atoms: N_17  and  C_19 
REMARK    6  A    between atoms: C_19  and  C_20 
REMARK    7  A    between atoms: C_29  and  N_30 
REMARK    8  A    between atoms: C_31  and  N_32 
ROOT
HETATM    1  C   UNL     1     -44.159  57.617 -54.104  1.00  0.00     0.181 A 
HETATM    2  N   UNL     1     -44.538  58.323 -55.197  1.00  0.00    -0.042 NA
HETATM    3  C   UNL     1     -45.147  59.515 -55.085  1.00  0.00     0.728 A 
HETATM    4  N   UNL     1     -45.465  60.057 -53.910  1.00  0.00    -0.048 NA
HETATM    5  C   UNL     1     -45.120  59.385 -52.800  1.00  0.00     0.157 A 
HETATM    6  C   UNL     1     -44.484  58.156 -52.870  1.00  0.00     0.189 A 
ENDROOT
BRANCH   1   7
HETATM    7  N   UNL     1     -43.485  56.441 -54.383  1.00  0.00    -0.360 N 
HETATM    8  C   UNL     1     -43.886  55.054 -54.066  1.00  0.00     0.152 C 
HETATM    9  C   UNL     1     -42.941  54.434 -53.004  1.00  0.00     0.255 C 
HETATM   10  N   UNL     1     -41.486  54.543 -53.476  1.00  0.00    -0.064 N 
HETATM   11  H   UNL     1     -41.441  54.011 -54.354  1.00  0.00     0.280 HD
HETATM   12  C   UNL     1     -41.110  55.972 -53.852  1.00  0.00     0.255 C 
HETATM   13  C   UNL     1     -42.099  56.538 -54.898  1.00  0.00     0.152 C 
BRANCH  10  14
HETATM   14  C   UNL     1     -40.477  53.857 -52.572  1.00  0.00     0.273 C 
BRANCH  14  15
HETATM   15  C   UNL     1     -40.195  52.394 -52.795  1.00  0.00    -0.033 A 
HETATM   16  C   UNL     1     -40.319  51.863 -54.091  1.00  0.00     0.009 A 
HETATM   17  C   UNL     1     -40.026  50.522 -54.349  1.00  0.00     0.001 A 
HETATM   18  C   UNL     1     -39.610  49.689 -53.315  1.00  0.00     0.000 A 
HETATM   19  C   UNL     1     -39.469  50.200 -52.029  1.00  0.00     0.001 A 
HETATM   20  C   UNL     1     -39.745  51.545 -51.772  1.00  0.00     0.009 A 
ENDBRANCH  14  15
ENDBRANCH  10  14
ENDBRANCH   1   7
BRANCH   6  21
HETATM   21  N   UNL     1     -44.069  57.558 -51.650  1.00  0.00    -0.108 N 
HETATM   22  O   UNL     1     -44.953  57.026 -50.965  1.00  0.00    -0.532 OA
HETATM   23  O   UNL     1     -42.880  57.669 -51.332  1.00  0.00    -0.532 OA
ENDBRANCH   6  21
BRANCH   3  24
HETATM   24  N   UNL     1     -45.411  60.220 -56.253  1.00  0.00    -0.211 N 
HETATM   25  C   UNL     1     -46.305  59.563 -57.221  1.00  0.00     0.169 C 
HETATM   26  C   UNL     1     -45.543  58.615 -58.170  1.00  0.00     0.255 C 
HETATM   27  N   UNL     1     -44.387  59.370 -58.832  1.00  0.00    -0.064 N 
HETATM   28  H   UNL     1     -44.806  60.155 -59.346  1.00  0.00     0.280 HD
HETATM   29  C   UNL     1     -43.453  59.956 -57.777  1.00  0.00     0.255 C 
HETATM   30  C   UNL     1     -44.238  60.894 -56.828  1.00  0.00     0.169 C 
BRANCH  27  31
HETATM   31  C   UNL     1     -43.655  58.542 -59.861  1.00  0.00     0.273 C 
BRANCH  31  32
HETATM   32  C   UNL     1     -43.949  57.072 -59.729  1.00  0.00    -0.033 A 
HETATM   33  C   UNL     1     -43.362  56.316 -58.701  1.00  0.00     0.009 A 
HETATM   34  C   UNL     1     -43.599  54.944 -58.607  1.00  0.00     0.001 A 
HETATM   35  C   UNL     1     -44.428  54.314 -59.532  1.00  0.00     0.000 A 
HETATM   36  C   UNL     1     -45.027  55.055 -60.549  1.00  0.00     0.001 A 
HETATM   37  C   UNL     1     -44.791  56.427 -60.649  1.00  0.00     0.009 A 
ENDBRANCH  31  32
ENDBRANCH  27  31
ENDBRANCH   3  24
BRANCH   5  38
HETATM   38  N   UNL     1     -45.505  60.005 -51.617  1.00  0.00    -0.284 NA
HETATM   39  H   UNL     1     -46.041  59.369 -51.031  1.00  0.00     0.125 HD
HETATM   40  H   UNL     1     -45.983  60.898 -51.712  1.00  0.00     0.125 HD
ENDBRANCH   5  38
TORSDOF 8
ENDMDL
MODEL 4
REMARK VINA RESULT:      -8.4      2.842      8.126
REMARK  8 active torsions:
REMARK  status: ('A' for Active; 'I' for Inactive)
REMARK    1  A    between atoms: C_4  and  C_5 
REMARK    2  A    between atoms: C_5  and  N_6 
REMARK    3  A    between atoms: N_10  and  C_11 
REMARK    4  A    between atoms: C_13  and  N_14 
REMARK    5  A    between atoms: N_17  and  C_19 
REMARK    6  A    between atoms: C_19  and  C_20 
REMARK    7  A    between atoms: C_29  and  N_30 
REMARK    8  A    between atoms: C_31  and  N_32 
ROOT
HETATM    1  C   UNL     1     -44.000  60.043 -53.551  1.00  0.00     0.181 A 
HETATM    2  N   UNL     1     -42.844  59.358 -53.378  1.00  0.00    -0.042 NA
HETATM    3  C   UNL     1     -42.217  59.329 -52.191  1.00  0.00     0.728 A 
HETATM    4  N   UNL     1     -42.652  60.004 -51.127  1.00  0.00    -0.048 NA
HETATM    5  C   UNL     1     -43.788  60.707 -51.257  1.00  0.00     0.157 A 
HETATM    6  C   UNL     1     -44.470  60.758 -52.462  1.00  0.00     0.189 A 
ENDROOT
BRANCH   1   7
HETATM    7  N   UNL     1     -44.558  59.922 -54.812  1.00  0.00    -0.360 N 
HETATM    8  C   UNL     1     -45.408  58.835 -55.341  1.00  0.00     0.152 C 
HETATM    9  C   UNL     1     -44.663  58.036 -56.442  1.00  0.00     0.255 C 
HETATM   10  N   UNL     1     -44.168  58.992 -57.533  1.00  0.00    -0.064 N 
HETATM   11  H   UNL     1     -45.012  59.434 -57.917  1.00  0.00     0.280 HD
HETATM   12  C   UNL     1     -43.340  60.138 -56.960  1.00  0.00     0.255 C 
HETATM   13  C   UNL     1     -44.130  60.882 -55.858  1.00  0.00     0.152 C 
BRANCH  10  14
HETATM   14  C   UNL     1     -43.529  58.307 -58.728  1.00  0.00     0.273 C 
BRANCH  14  15
HETATM   15  C   UNL     1     -44.147  57.031 -59.236  1.00  0.00    -0.033 A 
HETATM   16  C   UNL     1     -45.365  57.091 -59.935  1.00  0.00     0.009 A 
HETATM   17  C   UNL     1     -45.951  55.936 -60.459  1.00  0.00     0.001 A 
HETATM   18  C   UNL     1     -45.331  54.703 -60.289  1.00  0.00     0.000 A 
HETATM   19  C   UNL     1     -44.119  54.625 -59.611  1.00  0.00     0.001 A 
HETATM   20  C   UNL     1     -43.523  55.781 -59.101  1.00  0.00     0.009 A 
ENDBRANCH  14  15
ENDBRANCH  10  14
ENDBRANCH   1   7
BRANCH   6  21
HETATM   21  N   UNL     1     -45.713  61.447 -52.487  1.00  0.00    -0.108 N 
HETATM   22  O   UNL     1     -45.676  62.644 -52.797  1.00  0.00    -0.532 OA
HETATM   23  O   UNL     1     -46.721  60.823 -52.137  1.00  0.00    -0.532 OA
ENDBRANCH   6  21
BRANCH   3  24
HETATM   24  N   UNL     1     -41.092  58.522 -52.071  1.00  0.00    -0.211 N 
HETATM   25  C   UNL     1     -40.763  57.688 -53.239  1.00  0.00     0.169 C 
HETATM   26  C   UNL     1     -41.518  56.343 -53.228  1.00  0.00     0.255 C 
HETATM   27  N   UNL     1     -41.281  55.631 -51.892  1.00  0.00    -0.064 N 
HETATM   28  H   UNL     1     -40.266  55.491 -51.811  1.00  0.00     0.280 HD
HETATM   29  C   UNL     1     -41.719  56.514 -50.727  1.00  0.00     0.255 C 
HETATM   30  C   UNL     1     -40.960  57.863 -50.763  1.00  0.00     0.169 C 
BRANCH  27  31
HETATM   31  C   UNL     1     -41.897  54.253 -51.842  1.00  0.00     0.273 C 
BRANCH  31  32
HETATM   32  C   UNL     1     -40.999  53.201 -52.433  1.00  0.00    -0.033 A 
HETATM   33  C   UNL     1     -41.122  52.833 -53.783  1.00  0.00     0.009 A 
HETATM   34  C   UNL     1     -40.320  51.825 -54.319  1.00  0.00     0.001 A 
HETATM   35  C   UNL     1     -39.384  51.177 -53.515  1.00  0.00     0.000 A 
HETATM   36  C   UNL     1     -39.243  51.541 -52.178  1.00  0.00     0.001 A 
HETATM   37  C   UNL     1     -40.045  52.547 -51.637  1.00  0.00     0.009 A 
ENDBRANCH  31  32
ENDBRANCH  27  31
ENDBRANCH   3  24
BRANCH   5  38
HETATM   38  N   UNL     1     -44.163  61.399 -50.111  1.00  0.00    -0.284 NA
HETATM   39  H   UNL     1     -45.169  61.540 -50.083  1.00  0.00     0.125 HD
HETATM   40  H   UNL     1     -43.671  62.272 -49.932  1.00  0.00     0.125 HD
ENDBRANCH   5  38
TORSDOF 8
ENDMDL
MODEL 5
REMARK VINA RESULT:      -8.4      4.370      7.981
REMARK  8 active torsions:
REMARK  status: ('A' for Active; 'I' for Inactive)
REMARK    1  A    between atoms: C_4  and  C_5 
REMARK    2  A    between atoms: C_5  and  N_6 
REMARK    3  A    between atoms: N_10  and  C_11 
REMARK    4  A    between atoms: C_13  and  N_14 
REMARK    5  A    between atoms: N_17  and  C_19 
REMARK    6  A    between atoms: C_19  and  C_20 
REMARK    7  A    between atoms: C_29  and  N_30 
REMARK    8  A    between atoms: C_31  and  N_32 
ROOT
HETATM    1  C   UNL     1     -43.483  59.330 -53.239  1.00  0.00     0.181 A 
HETATM    2  N   UNL     1     -43.418  60.393 -52.401  1.00  0.00    -0.042 NA
HETATM    3  C   UNL     1     -44.252  61.437 -52.529  1.00  0.00     0.728 A 
HETATM    4  N   UNL     1     -45.154  61.527 -53.506  1.00  0.00    -0.048 NA
HETATM    5  C   UNL     1     -45.244  60.502 -54.367  1.00  0.00     0.157 A 
HETATM    6  C   UNL     1     -44.408  59.401 -54.267  1.00  0.00     0.189 A 
ENDROOT
BRANCH   1   7
HETATM    7  N   UNL     1     -42.602  58.305 -52.938  1.00  0.00    -0.360 N 
HETATM    8  C   UNL     1     -41.306  57.990 -53.574  1.00  0.00     0.152 C 
HETATM    9  C   UNL     1     -41.383  56.651 -54.354  1.00  0.00     0.255 C 
HETATM   10  N   UNL     1     -41.880  55.536 -53.426  1.00  0.00    -0.064 N 
HETATM   11  H   UNL     1     -41.185  55.475 -52.671  1.00  0.00     0.280 HD
HETATM   12  C   UNL     1     -43.189  55.905 -52.736  1.00  0.00     0.255 C 
HETATM   13  C   UNL     1     -43.053  57.255 -51.994  1.00  0.00     0.152 C 
BRANCH  10  14
HETATM   14  C   UNL     1     -41.878  54.151 -54.047  1.00  0.00     0.273 C 
BRANCH  14  15
HETATM   15  C   UNL     1     -40.982  53.099 -53.449  1.00  0.00    -0.033 A 
HETATM   16  C   UNL     1     -40.623  53.197 -52.093  1.00  0.00     0.009 A 
HETATM   17  C   UNL     1     -39.827  52.220 -51.488  1.00  0.00     0.001 A 
HETATM   18  C   UNL     1     -39.374  51.134 -52.229  1.00  0.00     0.000 A 
HETATM   19  C   UNL     1     -39.730  51.015 -53.569  1.00  0.00     0.001 A 
HETATM   20  C   UNL     1     -40.539  51.981 -54.172  1.00  0.00     0.009 A 
ENDBRANCH  14  15
ENDBRANCH  10  14
ENDBRANCH   1   7
BRANCH   6  21
HETATM   21  N   UNL     1     -44.634  58.319 -55.160  1.00  0.00    -0.108 N 
HETATM   22  O   UNL     1     -44.010  58.344 -56.229  1.00  0.00    -0.532 OA
HETATM   23  O   UNL     1     -45.476  57.474 -54.836  1.00  0.00    -0.532 OA
ENDBRANCH   6  21
BRANCH   3  24
HETATM   24  N   UNL     1     -44.187  62.440 -51.569  1.00  0.00    -0.211 N 
HETATM   25  C   UNL     1     -43.277  62.198 -50.437  1.00  0.00     0.169 C 
HETATM   26  C   UNL     1     -43.950  61.395 -49.306  1.00  0.00     0.255 C 
HETATM   27  N   UNL     1     -45.255  62.083 -48.894  1.00  0.00    -0.064 N 
HETATM   28  H   UNL     1     -45.002  63.028 -48.581  1.00  0.00     0.280 HD
HETATM   29  C   UNL     1     -46.188  62.229 -50.093  1.00  0.00     0.255 C 
HETATM   30  C   UNL     1     -45.490  63.026 -51.221  1.00  0.00     0.169 C 
BRANCH  27  31
HETATM   31  C   UNL     1     -45.923  61.418 -47.713  1.00  0.00     0.273 C 
BRANCH  31  32
HETATM   32  C   UNL     1     -45.343  61.866 -46.399  1.00  0.00    -0.033 A 
HETATM   33  C   UNL     1     -44.682  60.952 -45.562  1.00  0.00     0.009 A 
HETATM   34  C   UNL     1     -44.185  61.358 -44.323  1.00  0.00     0.001 A 
HETATM   35  C   UNL     1     -44.337  62.679 -43.909  1.00  0.00     0.000 A 
HETATM   36  C   UNL     1     -44.979  63.599 -44.735  1.00  0.00     0.001 A 
HETATM   37  C   UNL     1     -45.480  63.197 -45.974  1.00  0.00     0.009 A 
ENDBRANCH  31  32
ENDBRANCH  27  31
ENDBRANCH   3  24
BRANCH   5  38
HETATM   38  N   UNL     1     -46.192  60.681 -55.368  1.00  0.00    -0.284 NA
HETATM   39  H   UNL     1     -46.485  61.653 -55.422  1.00  0.00     0.125 HD
HETATM   40  H   UNL     1     -46.998  60.061 -55.340  1.00  0.00     0.125 HD
ENDBRANCH   5  38
TORSDOF 8
ENDMDL
MODEL 6
REMARK VINA RESULT:      -8.3      2.720      4.184
REMARK  8 active torsions:
REMARK  status: ('A' for Active; 'I' for Inactive)
REMARK    1  A    between atoms: C_4  and  C_5 
REMARK    2  A    between atoms: C_5  and  N_6 
REMARK    3  A    between atoms: N_10  and  C_11 
REMARK    4  A    between atoms: C_13  and  N_14 
REMARK    5  A    between atoms: N_17  and  C_19 
REMARK    6  A    between atoms: C_19  and  C_20 
REMARK    7  A    between atoms: C_29  and  N_30 
REMARK    8  A    between atoms: C_31  and  N_32 
ROOT
HETATM    1  C   UNL     1     -43.343  58.553 -54.620  1.00  0.00     0.181 A 
HETATM    2  N   UNL     1     -44.296  58.961 -55.494  1.00  0.00    -0.042 NA
HETATM    3  C   UNL     1     -44.545  60.264 -55.699  1.00  0.00     0.728 A 
HETATM    4  N   UNL     1     -43.922  61.234 -55.032  1.00  0.00    -0.048 NA
HETATM    5  C   UNL     1     -42.979  60.875 -54.146  1.00  0.00     0.157 A 
HETATM    6  C   UNL     1     -42.685  59.542 -53.909  1.00  0.00     0.189 A 
ENDROOT
BRANCH   1   7
HETATM    7  N   UNL     1     -43.159  57.182 -54.568  1.00  0.00    -0.360 N 
HETATM    8  C   UNL     1     -43.862  56.191 -53.727  1.00  0.00     0.152 C 
HETATM    9  C   UNL     1     -42.903  55.580 -52.672  1.00  0.00     0.255 C 
HETATM   10  N   UNL     1     -41.666  55.001 -53.368  1.00  0.00    -0.064 N 
HETATM   11  H   UNL     1     -42.020  54.272 -54.000  1.00  0.00     0.280 HD
HETATM   12  C   UNL     1     -40.987  56.023 -54.275  1.00  0.00     0.255 C 
HETATM   13  C   UNL     1     -41.998  56.607 -55.289  1.00  0.00     0.152 C 
BRANCH  10  14
HETATM   14  C   UNL     1     -40.710  54.265 -52.446  1.00  0.00     0.273 C 
BRANCH  14  15
HETATM   15  C   UNL     1     -40.381  52.828 -52.757  1.00  0.00    -0.033 A 
HETATM   16  C   UNL     1     -40.623  52.335 -54.051  1.00  0.00     0.009 A 
HETATM   17  C   UNL     1     -40.294  51.021 -54.393  1.00  0.00     0.001 A 
HETATM   18  C   UNL     1     -39.723  50.178 -53.445  1.00  0.00     0.000 A 
HETATM   19  C   UNL     1     -39.465  50.652 -52.163  1.00  0.00     0.001 A 
HETATM   20  C   UNL     1     -39.778  51.971 -51.824  1.00  0.00     0.009 A 
ENDBRANCH  14  15
ENDBRANCH  10  14
ENDBRANCH   1   7
BRANCH   6  21
HETATM   21  N   UNL     1     -41.609  59.252 -53.026  1.00  0.00    -0.108 N 
HETATM   22  O   UNL     1     -40.467  59.373 -53.487  1.00  0.00    -0.532 OA
HETATM   23  O   UNL     1     -41.891  58.840 -51.895  1.00  0.00    -0.532 OA
ENDBRANCH   6  21
BRANCH   3  24
HETATM   24  N   UNL     1     -45.466  60.600 -56.685  1.00  0.00    -0.211 N 
HETATM   25  C   UNL     1     -46.369  59.524 -57.125  1.00  0.00     0.169 C 
HETATM   26  C   UNL     1     -45.748  58.660 -58.242  1.00  0.00     0.255 C 
HETATM   27  N   UNL     1     -45.279  59.561 -59.388  1.00  0.00    -0.064 N 
HETATM   28  H   UNL     1     -46.109  60.064 -59.724  1.00  0.00     0.280 HD
HETATM   29  C   UNL     1     -44.283  60.601 -58.882  1.00  0.00     0.255 C 
HETATM   30  C   UNL     1     -44.921  61.449 -57.754  1.00  0.00     0.169 C 
BRANCH  27  31
HETATM   31  C   UNL     1     -44.756  58.783 -60.573  1.00  0.00     0.273 C 
BRANCH  31  32
HETATM   32  C   UNL     1     -44.526  57.331 -60.249  1.00  0.00    -0.033 A 
HETATM   33  C   UNL     1     -45.525  56.377 -60.501  1.00  0.00     0.009 A 
HETATM   34  C   UNL     1     -45.329  55.038 -60.157  1.00  0.00     0.001 A 
HETATM   35  C   UNL     1     -44.134  54.638 -59.565  1.00  0.00     0.000 A 
HETATM   36  C   UNL     1     -43.129  55.572 -59.322  1.00  0.00     0.001 A 
HETATM   37  C   UNL     1     -43.322  56.913 -59.661  1.00  0.00     0.009 A 
ENDBRANCH  31  32
ENDBRANCH  27  31
ENDBRANCH   3  24
BRANCH   5  38
HETATM   38  N   UNL     1     -42.392  61.941 -53.476  1.00  0.00    -0.284 NA
HETATM   39  H   UNL     1     -41.858  62.524 -54.116  1.00  0.00     0.125 HD
HETATM   40  H   UNL     1     -41.839  61.707 -52.654  1.00  0.00     0.125 HD
ENDBRANCH   5  38
TORSDOF 8
ENDMDL
MODEL 7
REMARK VINA RESULT:      -8.3      2.443     10.055
REMARK  8 active torsions:
REMARK  status: ('A' for Active; 'I' for Inactive)
REMARK    1  A    between atoms: C_4  and  C_5 
REMARK    2  A    between atoms: C_5  and  N_6 
REMARK    3  A    between atoms: N_10  and  C_11 
REMARK    4  A    between atoms: C_13  and  N_14 
REMARK    5  A    between atoms: N_17  and  C_19 
REMARK    6  A    between atoms: C_19  and  C_20 
REMARK    7  A    between atoms: C_29  and  N_30 
REMARK    8  A    between atoms: C_31  and  N_32 
ROOT
HETATM    1  C   UNL     1     -42.790  58.201 -56.859  1.00  0.00     0.181 A 
HETATM    2  N   UNL     1     -42.993  57.072 -56.138  1.00  0.00    -0.042 NA
HETATM    3  C   UNL     1     -42.711  57.019 -54.826  1.00  0.00     0.728 A 
HETATM    4  N   UNL     1     -42.171  58.040 -54.160  1.00  0.00    -0.048 NA
HETATM    5  C   UNL     1     -41.940  59.174 -54.839  1.00  0.00     0.157 A 
HETATM    6  C   UNL     1     -42.223  59.274 -56.192  1.00  0.00     0.189 A 
ENDROOT
BRANCH   1   7
HETATM    7  N   UNL     1     -43.190  58.119 -58.182  1.00  0.00    -0.360 N 
HETATM    8  C   UNL     1     -42.410  57.666 -59.352  1.00  0.00     0.152 C 
HETATM    9  C   UNL     1     -42.128  58.845 -60.319  1.00  0.00     0.255 C 
HETATM   10  N   UNL     1     -43.446  59.526 -60.707  1.00  0.00    -0.064 N 
HETATM   11  H   UNL     1     -44.004  58.801 -61.175  1.00  0.00     0.280 HD
HETATM   12  C   UNL     1     -44.262  59.935 -59.485  1.00  0.00     0.255 C 
HETATM   13  C   UNL     1     -44.492  58.722 -58.553  1.00  0.00     0.152 C 
BRANCH  10  14
HETATM   14  C   UNL     1     -43.307  60.621 -61.750  1.00  0.00     0.273 C 
BRANCH  14  15
HETATM   15  C   UNL     1     -42.103  61.523 -61.684  1.00  0.00    -0.033 A 
HETATM   16  C   UNL     1     -41.511  61.963 -62.881  1.00  0.00     0.009 A 
HETATM   17  C   UNL     1     -40.419  62.834 -62.865  1.00  0.00     0.001 A 
HETATM   18  C   UNL     1     -39.898  63.275 -61.653  1.00  0.00     0.000 A 
HETATM   19  C   UNL     1     -40.479  62.861 -60.459  1.00  0.00     0.001 A 
HETATM   20  C   UNL     1     -41.582  62.003 -60.473  1.00  0.00     0.009 A 
ENDBRANCH  14  15
ENDBRANCH  10  14
ENDBRANCH   1   7
BRANCH   6  21
HETATM   21  N   UNL     1     -42.038  60.540 -56.812  1.00  0.00    -0.108 N 
HETATM   22  O   UNL     1     -40.978  60.704 -57.430  1.00  0.00    -0.532 OA
HETATM   23  O   UNL     1     -42.911  61.397 -56.636  1.00  0.00    -0.532 OA
ENDBRANCH   6  21
BRANCH   3  24
HETATM   24  N   UNL     1     -43.043  55.858 -54.138  1.00  0.00    -0.211 N 
HETATM   25  C   UNL     1     -42.305  55.609 -52.888  1.00  0.00     0.169 C 
HETATM   26  C   UNL     1     -40.970  54.877 -53.133  1.00  0.00     0.255 C 
HETATM   27  N   UNL     1     -41.223  53.605 -53.948  1.00  0.00    -0.064 N 
HETATM   28  H   UNL     1     -41.869  53.028 -53.397  1.00  0.00     0.280 HD
HETATM   29  C   UNL     1     -41.914  53.940 -55.267  1.00  0.00     0.255 C 
HETATM   30  C   UNL     1     -43.245  54.684 -55.000  1.00  0.00     0.169 C 
BRANCH  27  31
HETATM   31  C   UNL     1     -39.978  52.771 -54.139  1.00  0.00     0.273 C 
BRANCH  31  32
HETATM   32  C   UNL     1     -39.847  51.689 -53.101  1.00  0.00    -0.033 A 
HETATM   33  C   UNL     1     -39.693  50.347 -53.484  1.00  0.00     0.009 A 
HETATM   34  C   UNL     1     -39.619  49.340 -52.520  1.00  0.00     0.001 A 
HETATM   35  C   UNL     1     -39.692  49.662 -51.167  1.00  0.00     0.000 A 
HETATM   36  C   UNL     1     -39.832  50.991 -50.774  1.00  0.00     0.001 A 
HETATM   37  C   UNL     1     -39.909  52.002 -51.734  1.00  0.00     0.009 A 
ENDBRANCH  31  32
ENDBRANCH  27  31
ENDBRANCH   3  24
BRANCH   5  38
HETATM   38  N   UNL     1     -41.356  60.182 -54.081  1.00  0.00    -0.284 NA
HETATM   39  H   UNL     1     -40.374  59.985 -53.907  1.00  0.00     0.125 HD
HETATM   40  H   UNL     1     -41.834  60.430 -53.217  1.00  0.00     0.125 HD
ENDBRANCH   5  38
TORSDOF 8
ENDMDL
MODEL 8
REMARK VINA RESULT:      -8.1      2.146      9.567
REMARK  8 active torsions:
REMARK  status: ('A' for Active; 'I' for Inactive)
REMARK    1  A    between atoms: C_4  and  C_5 
REMARK    2  A    between atoms: C_5  and  N_6 
REMARK    3  A    between atoms: N_10  and  C_11 
REMARK    4  A    between atoms: C_13  and  N_14 
REMARK    5  A    between atoms: N_17  and  C_19 
REMARK    6  A    between atoms: C_19  and  C_20 
REMARK    7  A    between atoms: C_29  and  N_30 
REMARK    8  A    between atoms: C_31  and  N_32 
ROOT
HETATM    1  C   UNL     1     -43.219  57.709 -54.949  1.00  0.00     0.181 A 
HETATM    2  N   UNL     1     -43.321  56.667 -54.089  1.00  0.00    -0.042 NA
HETATM    3  C   UNL     1     -43.042  56.807 -52.783  1.00  0.00     0.728 A 
HETATM    4  N   UNL     1     -42.602  57.948 -52.255  1.00  0.00    -0.048 NA
HETATM    5  C   UNL     1     -42.474  59.004 -53.074  1.00  0.00     0.157 A 
HETATM    6  C   UNL     1     -42.758  58.906 -54.426  1.00  0.00     0.189 A 
ENDROOT
BRANCH   1   7
HETATM    7  N   UNL     1     -43.604  57.423 -56.248  1.00  0.00    -0.360 N 
HETATM    8  C   UNL     1     -42.773  56.924 -57.363  1.00  0.00     0.152 C 
HETATM    9  C   UNL     1     -42.623  58.001 -58.468  1.00  0.00     0.255 C 
HETATM   10  N   UNL     1     -44.008  58.478 -58.921  1.00  0.00    -0.064 N 
HETATM   11  H   UNL     1     -44.479  57.644 -59.293  1.00  0.00     0.280 HD
HETATM   12  C   UNL     1     -44.869  58.937 -57.749  1.00  0.00     0.255 C 
HETATM   13  C   UNL     1     -44.964  57.827 -56.676  1.00  0.00     0.152 C 
BRANCH  10  14
HETATM   14  C   UNL     1     -43.990  59.447 -60.090  1.00  0.00     0.273 C 
BRANCH  14  15
HETATM   15  C   UNL     1     -42.913  60.500 -60.130  1.00  0.00    -0.033 A 
HETATM   16  C   UNL     1     -42.128  60.633 -61.288  1.00  0.00     0.009 A 
HETATM   17  C   UNL     1     -41.148  61.623 -61.382  1.00  0.00     0.001 A 
HETATM   18  C   UNL     1     -40.933  62.493 -60.319  1.00  0.00     0.000 A 
HETATM   19  C   UNL     1     -41.708  62.385 -59.169  1.00  0.00     0.001 A 
HETATM   20  C   UNL     1     -42.701  61.406 -59.079  1.00  0.00     0.009 A 
ENDBRANCH  14  15
ENDBRANCH  10  14
ENDBRANCH   1   7
BRANCH   6  21
HETATM   21  N   UNL     1     -42.688  60.094 -55.203  1.00  0.00    -0.108 N 
HETATM   22  O   UNL     1     -41.657  60.262 -55.867  1.00  0.00    -0.532 OA
HETATM   23  O   UNL     1     -43.623  60.897 -55.109  1.00  0.00    -0.532 OA
ENDBRANCH   6  21
BRANCH   3  24
HETATM   24  N   UNL     1     -43.268  55.716 -51.952  1.00  0.00    -0.211 N 
HETATM   25  C   UNL     1     -42.684  55.794 -50.602  1.00  0.00     0.169 C 
HETATM   26  C   UNL     1     -41.224  55.300 -50.567  1.00  0.00     0.255 C 
HETATM   27  N   UNL     1     -41.142  53.898 -51.180  1.00  0.00    -0.064 N 
HETATM   28  H   UNL     1     -41.754  53.295 -50.616  1.00  0.00     0.280 HD
HETATM   29  C   UNL     1     -41.685  53.901 -52.606  1.00  0.00     0.255 C 
HETATM   30  C   UNL     1     -43.146  54.413 -52.621  1.00  0.00     0.169 C 
BRANCH  27  31
HETATM   31  C   UNL     1     -39.760  53.294 -51.085  1.00  0.00     0.273 C 
BRANCH  31  32
HETATM   32  C   UNL     1     -39.696  51.913 -51.679  1.00  0.00    -0.033 A 
HETATM   33  C   UNL     1     -39.567  51.738 -53.067  1.00  0.00     0.009 A 
HETATM   34  C   UNL     1     -39.554  50.458 -53.621  1.00  0.00     0.001 A 
HETATM   35  C   UNL     1     -39.664  49.340 -52.797  1.00  0.00     0.000 A 
HETATM   36  C   UNL     1     -39.778  49.499 -51.418  1.00  0.00     0.001 A 
HETATM   37  C   UNL     1     -39.795  50.778 -50.860  1.00  0.00     0.009 A 
ENDBRANCH  31  32
ENDBRANCH  27  31
ENDBRANCH   3  24
BRANCH   5  38
HETATM   38  N   UNL     1     -41.990  60.150 -52.453  1.00  0.00    -0.284 NA
HETATM   39  H   UNL     1     -41.229  60.559 -52.988  1.00  0.00     0.125 HD
HETATM   40  H   UNL     1     -41.734  60.057 -51.473  1.00  0.00     0.125 HD
ENDBRANCH   5  38
TORSDOF 8
ENDMDL
MODEL 9
REMARK VINA RESULT:      -8.1      3.881      8.489
REMARK  8 active torsions:
REMARK  status: ('A' for Active; 'I' for Inactive)
REMARK    1  A    between atoms: C_4  and  C_5 
REMARK    2  A    between atoms: C_5  and  N_6 
REMARK    3  A    between atoms: N_10  and  C_11 
REMARK    4  A    between atoms: C_13  and  N_14 
REMARK    5  A    between atoms: N_17  and  C_19 
REMARK    6  A    between atoms: C_19  and  C_20 
REMARK    7  A    between atoms: C_29  and  N_30 
REMARK    8  A    between atoms: C_31  and  N_32 
ROOT
HETATM    1  C   UNL     1     -44.037  57.946 -57.279  1.00  0.00     0.181 A 
HETATM    2  N   UNL     1     -43.522  56.928 -56.546  1.00  0.00    -0.042 NA
HETATM    3  C   UNL     1     -43.070  55.805 -57.128  1.00  0.00     0.728 A 
HETATM    4  N   UNL     1     -43.141  55.592 -58.441  1.00  0.00    -0.048 NA
HETATM    5  C   UNL     1     -43.656  56.569 -59.204  1.00  0.00     0.157 A 
HETATM    6  C   UNL     1     -44.127  57.746 -58.646  1.00  0.00     0.189 A 
ENDROOT
BRANCH   1   7
HETATM    7  N   UNL     1     -44.398  59.060 -56.541  1.00  0.00    -0.360 N 
HETATM    8  C   UNL     1     -43.897  60.445 -56.664  1.00  0.00     0.152 C 
HETATM    9  C   UNL     1     -43.070  60.847 -55.415  1.00  0.00     0.255 C 
HETATM   10  N   UNL     1     -43.901  60.622 -54.146  1.00  0.00    -0.064 N 
HETATM   11  H   UNL     1     -44.724  61.229 -54.244  1.00  0.00     0.280 HD
HETATM   12  C   UNL     1     -44.455  59.203 -54.067  1.00  0.00     0.255 C 
HETATM   13  C   UNL     1     -45.252  58.858 -55.347  1.00  0.00     0.152 C 
BRANCH  10  14
HETATM   14  C   UNL     1     -43.237  61.097 -52.865  1.00  0.00     0.273 C 
BRANCH  14  15
HETATM   15  C   UNL     1     -42.209  60.205 -52.219  1.00  0.00    -0.033 A 
HETATM   16  C   UNL     1     -41.229  59.596 -53.023  1.00  0.00     0.009 A 
HETATM   17  C   UNL     1     -40.233  58.796 -52.458  1.00  0.00     0.001 A 
HETATM   18  C   UNL     1     -40.203  58.588 -51.084  1.00  0.00     0.000 A 
HETATM   19  C   UNL     1     -41.157  59.192 -50.272  1.00  0.00     0.001 A 
HETATM   20  C   UNL     1     -42.144  60.007 -50.832  1.00  0.00     0.009 A 
ENDBRANCH  14  15
ENDBRANCH  10  14
ENDBRANCH   1   7
BRANCH   6  21
HETATM   21  N   UNL     1     -44.568  58.766 -59.533  1.00  0.00    -0.108 N 
HETATM   22  O   UNL     1     -45.781  58.803 -59.774  1.00  0.00    -0.532 OA
HETATM   23  O   UNL     1     -43.708  59.492 -60.044  1.00  0.00    -0.532 OA
ENDBRANCH   6  21
BRANCH   3  24
HETATM   24  N   UNL     1     -42.466  54.853 -56.316  1.00  0.00    -0.211 N 
HETATM   25  C   UNL     1     -43.363  54.085 -55.436  1.00  0.00     0.169 C 
HETATM   26  C   UNL     1     -43.629  54.807 -54.099  1.00  0.00     0.255 C 
HETATM   27  N   UNL     1     -42.296  55.167 -53.436  1.00  0.00    -0.064 N 
HETATM   28  H   UNL     1     -41.793  54.283 -53.289  1.00  0.00     0.280 HD
HETATM   29  C   UNL     1     -41.448  56.031 -54.365  1.00  0.00     0.255 C 
HETATM   30  C   UNL     1     -41.204  55.295 -55.705  1.00  0.00     0.169 C 
BRANCH  27  31
HETATM   31  C   UNL     1     -42.467  55.781 -52.066  1.00  0.00     0.273 C 
BRANCH  31  32
HETATM   32  C   UNL     1     -41.700  55.038 -51.005  1.00  0.00    -0.033 A 
HETATM   33  C   UNL     1     -41.695  55.494 -49.677  1.00  0.00     0.009 A 
HETATM   34  C   UNL     1     -40.947  54.831 -48.703  1.00  0.00     0.001 A 
HETATM   35  C   UNL     1     -40.202  53.704 -49.043  1.00  0.00     0.000 A 
HETATM   36  C   UNL     1     -40.209  53.234 -50.354  1.00  0.00     0.001 A 
HETATM   37  C   UNL     1     -40.953  53.895 -51.332  1.00  0.00     0.009 A 
ENDBRANCH  31  32
ENDBRANCH  27  31
ENDBRANCH   3  24
BRANCH   5  38
HETATM   38  N   UNL     1     -43.716  56.261 -60.559  1.00  0.00    -0.284 NA
HETATM   39  H   UNL     1     -43.749  55.256 -60.703  1.00  0.00     0.125 HD
HETATM   40  H   UNL     1     -43.005  56.688 -61.148  1.00  0.00     0.125 HD
ENDBRANCH   5  38
TORSDOF 8
ENDMDL
MODEL 10
REMARK VINA RESULT:      -8.0      3.809     10.314
REMARK  8 active torsions:
REMARK  status: ('A' for Active; 'I' for Inactive)
REMARK    1  A    between atoms: C_4  and  C_5 
REMARK    2  A    between atoms: C_5  and  N_6 
REMARK    3  A    between atoms: N_10  and  C_11 
REMARK    4  A    between atoms: C_13  and  N_14 
REMARK    5  A    between atoms: N_17  and  C_19 
REMARK    6  A    between atoms: C_19  and  C_20 
REMARK    7  A    between atoms: C_29  and  N_30 
REMARK    8  A    between atoms: C_31  and  N_32 
ROOT
HETATM    1  C   UNL     1     -44.132  58.013 -56.927  1.00  0.00     0.181 A 
HETATM    2  N   UNL     1     -43.971  57.067 -55.970  1.00  0.00    -0.042 NA
HETATM    3  C   UNL     1     -43.146  57.258 -54.928  1.00  0.00     0.728 A 
HETATM    4  N   UNL     1     -42.399  58.353 -54.788  1.00  0.00    -0.048 NA
HETATM    5  C   UNL     1     -42.517  59.311 -55.720  1.00  0.00     0.157 A 
HETATM    6  C   UNL     1     -43.363  59.158 -56.807  1.00  0.00     0.189 A 
ENDROOT
BRANCH   1   7
HETATM    7  N   UNL     1     -45.065  57.695 -57.899  1.00  0.00    -0.360 N 
HETATM    8  C   UNL     1     -44.832  57.161 -59.257  1.00  0.00     0.152 C 
HETATM    9  C   UNL     1     -45.210  58.209 -60.336  1.00  0.00     0.255 C 
HETATM   10  N   UNL     1     -46.653  58.681 -60.119  1.00  0.00    -0.064 N 
HETATM   11  H   UNL     1     -47.236  57.840 -60.213  1.00  0.00     0.280 HD
HETATM   12  C   UNL     1     -46.887  59.176 -58.696  1.00  0.00     0.255 C 
HETATM   13  C   UNL     1     -46.474  58.095 -57.669  1.00  0.00     0.152 C 
BRANCH  10  14
HETATM   14  C   UNL     1     -47.177  59.619 -61.192  1.00  0.00     0.273 C 
BRANCH  14  15
HETATM   15  C   UNL     1     -48.641  59.561 -61.541  1.00  0.00    -0.033 A 
HETATM   16  C   UNL     1     -49.117  58.491 -62.320  1.00  0.00     0.009 A 
HETATM   17  C   UNL     1     -50.474  58.377 -62.630  1.00  0.00     0.001 A 
HETATM   18  C   UNL     1     -51.376  59.331 -62.172  1.00  0.00     0.000 A 
HETATM   19  C   UNL     1     -50.926  60.389 -61.389  1.00  0.00     0.001 A 
HETATM   20  C   UNL     1     -49.571  60.496 -61.063  1.00  0.00     0.009 A 
ENDBRANCH  14  15
ENDBRANCH  10  14
ENDBRANCH   1   7
BRANCH   6  21
HETATM   21  N   UNL     1     -43.500  60.259 -57.696  1.00  0.00    -0.108 N 
HETATM   22  O   UNL     1     -44.332  61.121 -57.385  1.00  0.00    -0.532 OA
HETATM   23  O   UNL     1     -42.832  60.243 -58.736  1.00  0.00    -0.532 OA
ENDBRANCH   6  21
BRANCH   3  24
HETATM   24  N   UNL     1     -43.114  56.282 -53.939  1.00  0.00    -0.211 N 
HETATM   25  C   UNL     1     -41.896  56.233 -53.112  1.00  0.00     0.169 C 
HETATM   26  C   UNL     1     -40.787  55.376 -53.754  1.00  0.00     0.255 C 
HETATM   27  N   UNL     1     -41.341  53.989 -54.094  1.00  0.00    -0.064 N 
HETATM   28  H   UNL     1     -41.665  53.579 -53.209  1.00  0.00     0.280 HD
HETATM   29  C   UNL     1     -42.549  54.104 -55.019  1.00  0.00     0.255 C 
HETATM   30  C   UNL     1     -43.645  54.978 -54.362  1.00  0.00     0.169 C 
BRANCH  27  31
HETATM   31  C   UNL     1     -40.287  53.048 -54.628  1.00  0.00     0.273 C 
BRANCH  31  32
HETATM   32  C   UNL     1     -40.050  51.875 -53.715  1.00  0.00    -0.033 A 
HETATM   33  C   UNL     1     -39.844  52.071 -52.340  1.00  0.00     0.009 A 
HETATM   34  C   UNL     1     -39.578  50.987 -51.502  1.00  0.00     0.001 A 
HETATM   35  C   UNL     1     -39.520  49.698 -52.027  1.00  0.00     0.000 A 
HETATM   36  C   UNL     1     -39.736  49.488 -53.387  1.00  0.00     0.001 A 
HETATM   37  C   UNL     1     -39.999  50.570 -54.229  1.00  0.00     0.009 A 
ENDBRANCH  31  32
ENDBRANCH  27  31
ENDBRANCH   3  24
BRANCH   5  38
HETATM   38  N   UNL     1     -41.691  60.410 -55.516  1.00  0.00    -0.284 NA
HETATM   39  H   UNL     1     -40.712  60.132 -55.508  1.00  0.00     0.125 HD
HETATM   40  H   UNL     1     -41.908  60.992 -54.710  1.00  0.00     0.125 HD
ENDBRANCH   5  38
TORSDOF 8
ENDMDL
