MODEL 1
REMARK VINA RESULT:      -9.0      0.000      0.000
REMARK  3 active torsions:
REMARK  status: ('A' for Active; 'I' for Inactive)
REMARK    1  A    between atoms: O_2  and  C_3 
REMARK    2  A    between atoms: C_5  and  N_6 
REMARK       I    between atoms: N_6  and  C_7 
REMARK       I    between atoms: C_7  and  N_8 
REMARK    3  A    between atoms: C_11  and  C_12 
ROOT
HETATM    1  N   UNL     1     -43.200  57.179 -57.889  1.00  0.00    -0.306 N 
HETATM    2  C   UNL     1     -42.497  57.567 -56.770  1.00  0.00     0.323 C 
HETATM    3  N   UNL     1     -42.116  56.522 -55.917  1.00  0.00    -0.330 N 
HETATM    4  C   UNL     1     -42.525  55.134 -56.119  1.00  0.00     0.155 C 
HETATM    5  C   UNL     1     -41.955  54.177 -55.124  1.00  0.00     0.001 C 
HETATM    6  C   UNL     1     -41.134  54.505 -54.113  1.00  0.00    -0.046 C 
HETATM    7  C   UNL     1     -40.705  55.936 -53.935  1.00  0.00     0.059 C 
HETATM    8  C   UNL     1     -41.707  56.903 -54.564  1.00  0.00     0.132 C 
HETATM    9  O   UNL     1     -42.241  58.738 -56.496  1.00  0.00    -0.247 OA
HETATM   10  H   UNL     1     -43.441  56.206 -57.988  1.00  0.00     0.171 HD
ENDROOT
BRANCH   1  11
HETATM   11  C   UNL     1     -43.786  58.002 -58.881  1.00  0.00     0.077 A 
HETATM   12  C   UNL     1     -43.075  58.720 -59.846  1.00  0.00     0.069 A 
HETATM   13  C   UNL     1     -43.755  59.526 -60.769  1.00  0.00     0.070 A 
HETATM   14  C   UNL     1     -45.150  59.619 -60.717  1.00  0.00     0.040 A 
HETATM   15  C   UNL     1     -45.870  58.901 -59.768  1.00  0.00     0.047 A 
HETATM   16  C   UNL     1     -45.184  58.097 -58.866  1.00  0.00     0.143 A 
HETATM   17  F   UNL     1     -45.881  57.412 -57.945  1.00  0.00    -0.204 F 
BRANCH  13  18
HETATM   18  O   UNL     1     -43.177  60.274 -61.759  1.00  0.00    -0.356 OA
HETATM   19  C   UNL     1     -41.855  60.742 -61.522  1.00  0.00     0.210 C 
ENDBRANCH  13  18
ENDBRANCH   1  11
BRANCH   6  20
HETATM   20  C   UNL     1     -40.639  53.575 -53.141  1.00  0.00    -0.002 A 
HETATM   21  C   UNL     1     -40.316  52.188 -53.324  1.00  0.00     0.003 A 
HETATM   22  C   UNL     1     -39.863  51.707 -52.093  1.00  0.00     0.043 A 
HETATM   23  C   UNL     1     -40.372  51.285 -54.409  1.00  0.00     0.014 A 
HETATM   24  C   UNL     1     -39.448  50.383 -51.900  1.00  0.00     0.030 A 
HETATM   25  N   UNL     1     -39.922  52.752 -51.200  1.00  0.00    -0.364 N 
HETATM   26  C   UNL     1     -39.500  49.518 -52.996  1.00  0.00     0.002 A 
HETATM   27  C   UNL     1     -39.958  49.959 -54.235  1.00  0.00     0.001 A 
HETATM   28  H   UNL     1     -39.659  52.688 -50.228  1.00  0.00     0.165 HD
HETATM   29  C   UNL     1     -40.390  53.881 -51.820  1.00  0.00     0.101 A 
ENDBRANCH   6  20
TORSDOF 3
ENDMDL
MODEL 2
REMARK VINA RESULT:      -8.9      1.304      1.922
REMARK  3 active torsions:
REMARK  status: ('A' for Active; 'I' for Inactive)
REMARK    1  A    between atoms: O_2  and  C_3 
REMARK    2  A    between atoms: C_5  and  N_6 
REMARK       I    between atoms: N_6  and  C_7 
REMARK       I    between atoms: C_7  and  N_8 
REMARK    3  A    between atoms: C_11  and  C_12 
ROOT
HETATM    1  N   UNL     1     -43.223  57.138 -57.707  1.00  0.00    -0.306 N 
HETATM    2  C   UNL     1     -42.489  57.512 -56.603  1.00  0.00     0.323 C 
HETATM    3  N   UNL     1     -42.117  56.460 -55.753  1.00  0.00    -0.330 N 
HETATM    4  C   UNL     1     -42.565  55.082 -55.943  1.00  0.00     0.155 C 
HETATM    5  C   UNL     1     -42.000  54.115 -54.955  1.00  0.00     0.001 C 
HETATM    6  C   UNL     1     -41.151  54.425 -53.961  1.00  0.00    -0.046 C 
HETATM    7  C   UNL     1     -40.684  55.846 -53.797  1.00  0.00     0.059 C 
HETATM    8  C   UNL     1     -41.673  56.836 -54.410  1.00  0.00     0.132 C 
HETATM    9  O   UNL     1     -42.199  58.677 -56.338  1.00  0.00    -0.247 OA
HETATM   10  H   UNL     1     -43.489  56.171 -57.798  1.00  0.00     0.171 HD
ENDROOT
BRANCH   1  11
HETATM   11  C   UNL     1     -43.807  57.972 -58.690  1.00  0.00     0.077 A 
HETATM   12  C   UNL     1     -45.146  58.373 -58.704  1.00  0.00     0.069 A 
HETATM   13  C   UNL     1     -45.629  59.183 -59.741  1.00  0.00     0.070 A 
HETATM   14  C   UNL     1     -44.770  59.582 -60.771  1.00  0.00     0.040 A 
HETATM   15  C   UNL     1     -43.433  59.197 -60.763  1.00  0.00     0.047 A 
HETATM   16  C   UNL     1     -42.965  58.403 -59.723  1.00  0.00     0.143 A 
HETATM   17  F   UNL     1     -41.676  58.027 -59.723  1.00  0.00    -0.204 F 
BRANCH  13  18
HETATM   18  O   UNL     1     -46.912  59.644 -59.867  1.00  0.00    -0.356 OA
HETATM   19  C   UNL     1     -47.668  59.145 -60.964  1.00  0.00     0.210 C 
ENDBRANCH  13  18
ENDBRANCH   1  11
BRANCH   6  20
HETATM   20  C   UNL     1     -40.661  53.486 -52.996  1.00  0.00    -0.002 A 
HETATM   21  C   UNL     1     -40.296  52.113 -53.199  1.00  0.00     0.003 A 
HETATM   22  C   UNL     1     -39.867  51.615 -51.966  1.00  0.00     0.043 A 
HETATM   23  C   UNL     1     -40.296  51.233 -54.305  1.00  0.00     0.014 A 
HETATM   24  C   UNL     1     -39.424  50.298 -51.791  1.00  0.00     0.030 A 
HETATM   25  N   UNL     1     -39.981  52.638 -51.053  1.00  0.00    -0.364 N 
HETATM   26  C   UNL     1     -39.420  49.457 -52.906  1.00  0.00     0.002 A 
HETATM   27  C   UNL     1     -39.852  49.915 -54.148  1.00  0.00     0.001 A 
HETATM   28  H   UNL     1     -39.746  52.558 -50.074  1.00  0.00     0.165 HD
HETATM   29  C   UNL     1     -40.460  53.768 -51.661  1.00  0.00     0.101 A 
ENDBRANCH   6  20
TORSDOF 3
ENDMDL
MODEL 3
REMARK VINA RESULT:      -8.6      2.067      2.443
REMARK  3 active torsions:
REMARK  status: ('A' for Active; 'I' for Inactive)
REMARK    1  A    between atoms: O_2  and  C_3 
REMARK    2  A    between atoms: C_5  and  N_6 
REMARK       I    between atoms: N_6  and  C_7 
REMARK       I    between atoms: C_7  and  N_8 
REMARK    3  A    between atoms: C_11  and  C_12 
ROOT
HETATM    1  N   UNL     1     -44.887  57.286 -56.690  1.00  0.00    -0.306 N 
HETATM    2  C   UNL     1     -43.512  57.208 -56.665  1.00  0.00     0.323 C 
HETATM    3  N   UNL     1     -42.984  56.326 -55.711  1.00  0.00    -0.330 N 
HETATM    4  C   UNL     1     -43.808  55.626 -54.728  1.00  0.00     0.155 C 
HETATM    5  C   UNL     1     -43.045  54.692 -53.847  1.00  0.00     0.001 C 
HETATM    6  C   UNL     1     -41.721  54.473 -53.907  1.00  0.00    -0.046 C 
HETATM    7  C   UNL     1     -40.894  55.187 -54.941  1.00  0.00     0.059 C 
HETATM    8  C   UNL     1     -41.563  56.483 -55.397  1.00  0.00     0.132 C 
HETATM    9  O   UNL     1     -42.776  57.876 -57.390  1.00  0.00    -0.247 OA
HETATM   10  H   UNL     1     -45.407  56.768 -56.000  1.00  0.00     0.171 HD
ENDROOT
BRANCH   1  11
HETATM   11  C   UNL     1     -45.699  58.139 -57.475  1.00  0.00     0.077 A 
HETATM   12  C   UNL     1     -46.166  59.393 -57.070  1.00  0.00     0.069 A 
HETATM   13  C   UNL     1     -46.986  60.147 -57.919  1.00  0.00     0.070 A 
HETATM   14  C   UNL     1     -47.347  59.640 -59.172  1.00  0.00     0.040 A 
HETATM   15  C   UNL     1     -46.881  58.397 -59.591  1.00  0.00     0.047 A 
HETATM   16  C   UNL     1     -46.059  57.665 -58.744  1.00  0.00     0.143 A 
HETATM   17  F   UNL     1     -45.616  56.462 -59.147  1.00  0.00    -0.204 F 
BRANCH  13  18
HETATM   18  O   UNL     1     -47.505  61.384 -57.643  1.00  0.00    -0.356 OA
HETATM   19  C   UNL     1     -48.316  61.980 -58.648  1.00  0.00     0.210 C 
ENDBRANCH  13  18
ENDBRANCH   1  11
BRANCH   6  20
HETATM   20  C   UNL     1     -41.005  53.608 -53.017  1.00  0.00    -0.002 A 
HETATM   21  C   UNL     1     -40.561  52.263 -53.252  1.00  0.00     0.003 A 
HETATM   22  C   UNL     1     -39.900  51.841 -52.096  1.00  0.00     0.043 A 
HETATM   23  C   UNL     1     -40.663  51.352 -54.328  1.00  0.00     0.014 A 
HETATM   24  C   UNL     1     -39.324  50.570 -51.971  1.00  0.00     0.030 A 
HETATM   25  N   UNL     1     -39.954  52.878 -51.194  1.00  0.00    -0.364 N 
HETATM   26  C   UNL     1     -39.427  49.698 -53.058  1.00  0.00     0.002 A 
HETATM   27  C   UNL     1     -40.089  50.080 -54.221  1.00  0.00     0.001 A 
HETATM   28  H   UNL     1     -39.559  52.849 -50.265  1.00  0.00     0.165 HD
HETATM   29  C   UNL     1     -40.618  53.946 -51.737  1.00  0.00     0.101 A 
ENDBRANCH   6  20
TORSDOF 3
ENDMDL
MODEL 4
REMARK VINA RESULT:      -8.6      5.783      7.772
REMARK  3 active torsions:
REMARK  status: ('A' for Active; 'I' for Inactive)
REMARK    1  A    between atoms: O_2  and  C_3 
REMARK    2  A    between atoms: C_5  and  N_6 
REMARK       I    between atoms: N_6  and  C_7 
REMARK       I    between atoms: C_7  and  N_8 
REMARK    3  A    between atoms: C_11  and  C_12 
ROOT
HETATM    1  N   UNL     1     -43.790  59.821 -50.338  1.00  0.00    -0.306 N 
HETATM    2  C   UNL     1     -44.304  59.084 -51.382  1.00  0.00     0.323 C 
HETATM    3  N   UNL     1     -43.463  58.071 -51.865  1.00  0.00    -0.330 N 
HETATM    4  C   UNL     1     -42.095  57.874 -51.391  1.00  0.00     0.155 C 
HETATM    5  C   UNL     1     -41.401  56.699 -52.000  1.00  0.00     0.001 C 
HETATM    6  C   UNL     1     -41.937  55.864 -52.905  1.00  0.00    -0.046 C 
HETATM    7  C   UNL     1     -43.355  56.070 -53.363  1.00  0.00     0.059 C 
HETATM    8  C   UNL     1     -43.797  57.521 -53.180  1.00  0.00     0.132 C 
HETATM    9  O   UNL     1     -45.400  59.299 -51.895  1.00  0.00    -0.247 OA
HETATM   10  H   UNL     1     -42.846  59.631 -50.039  1.00  0.00     0.171 HD
ENDROOT
BRANCH   1  11
HETATM   11  C   UNL     1     -44.359  60.950 -49.702  1.00  0.00     0.077 A 
HETATM   12  C   UNL     1     -45.535  60.932 -48.946  1.00  0.00     0.069 A 
HETATM   13  C   UNL     1     -46.025  62.116 -48.378  1.00  0.00     0.070 A 
HETATM   14  C   UNL     1     -45.341  63.320 -48.576  1.00  0.00     0.040 A 
HETATM   15  C   UNL     1     -44.165  63.348 -49.318  1.00  0.00     0.047 A 
HETATM   16  C   UNL     1     -43.683  62.166 -49.867  1.00  0.00     0.143 A 
HETATM   17  F   UNL     1     -42.552  62.198 -50.589  1.00  0.00    -0.204 F 
BRANCH  13  18
HETATM   18  O   UNL     1     -47.159  62.230 -47.618  1.00  0.00    -0.356 OA
HETATM   19  C   UNL     1     -47.110  61.685 -46.305  1.00  0.00     0.210 C 
ENDBRANCH  13  18
ENDBRANCH   1  11
BRANCH   6  20
HETATM   20  C   UNL     1     -41.233  54.772 -53.511  1.00  0.00    -0.002 A 
HETATM   21  C   UNL     1     -40.687  53.606 -52.876  1.00  0.00     0.003 A 
HETATM   22  C   UNL     1     -40.106  52.827 -53.879  1.00  0.00     0.043 A 
HETATM   23  C   UNL     1     -40.617  53.135 -51.546  1.00  0.00     0.014 A 
HETATM   24  C   UNL     1     -39.480  51.600 -53.622  1.00  0.00     0.030 A 
HETATM   25  N   UNL     1     -40.279  53.498 -55.067  1.00  0.00    -0.364 N 
HETATM   26  C   UNL     1     -39.440  51.153 -52.298  1.00  0.00     0.002 A 
HETATM   27  C   UNL     1     -39.998  51.909 -51.271  1.00  0.00     0.001 A 
HETATM   28  H   UNL     1     -39.950  53.167 -55.963  1.00  0.00     0.165 HD
HETATM   29  C   UNL     1     -40.954  54.671 -54.858  1.00  0.00     0.101 A 
ENDBRANCH   6  20
TORSDOF 3
ENDMDL
MODEL 5
REMARK VINA RESULT:      -8.2      6.249     10.003
REMARK  3 active torsions:
REMARK  status: ('A' for Active; 'I' for Inactive)
REMARK    1  A    between atoms: O_2  and  C_3 
REMARK    2  A    between atoms: C_5  and  N_6 
REMARK       I    between atoms: N_6  and  C_7 
REMARK       I    between atoms: C_7  and  N_8 
REMARK    3  A    between atoms: C_11  and  C_12 
ROOT
HETATM    1  N   UNL     1     -41.429  56.260 -52.549  1.00  0.00    -0.306 N 
HETATM    2  C   UNL     1     -42.719  56.731 -52.444  1.00  0.00     0.323 C 
HETATM    3  N   UNL     1     -42.850  57.964 -51.789  1.00  0.00    -0.330 N 
HETATM    4  C   UNL     1     -41.731  58.655 -51.154  1.00  0.00     0.155 C 
HETATM    5  C   UNL     1     -42.086  59.982 -50.567  1.00  0.00     0.001 C 
HETATM    6  C   UNL     1     -43.306  60.541 -50.592  1.00  0.00    -0.046 C 
HETATM    7  C   UNL     1     -44.441  59.824 -51.271  1.00  0.00     0.059 C 
HETATM    8  C   UNL     1     -44.196  58.317 -51.332  1.00  0.00     0.132 C 
HETATM    9  O   UNL     1     -43.705  56.119 -52.852  1.00  0.00    -0.247 OA
HETATM   10  H   UNL     1     -40.692  56.786 -52.107  1.00  0.00     0.171 HD
ENDROOT
BRANCH   1  11
HETATM   11  C   UNL     1     -40.992  55.021 -53.075  1.00  0.00     0.077 A 
HETATM   12  C   UNL     1     -40.737  53.875 -52.315  1.00  0.00     0.069 A 
HETATM   13  C   UNL     1     -40.283  52.704 -52.936  1.00  0.00     0.070 A 
HETATM   14  C   UNL     1     -40.073  52.685 -54.320  1.00  0.00     0.040 A 
HETATM   15  C   UNL     1     -40.333  53.816 -55.088  1.00  0.00     0.047 A 
HETATM   16  C   UNL     1     -40.794  54.967 -54.461  1.00  0.00     0.143 A 
HETATM   17  F   UNL     1     -41.035  56.059 -55.204  1.00  0.00    -0.204 F 
BRANCH  13  18
HETATM   18  O   UNL     1     -40.001  51.521 -52.308  1.00  0.00    -0.356 OA
HETATM   19  C   UNL     1     -39.577  50.441 -53.131  1.00  0.00     0.210 C 
ENDBRANCH  13  18
ENDBRANCH   1  11
BRANCH   6  20
HETATM   20  C   UNL     1     -43.632  61.795 -49.978  1.00  0.00    -0.002 A 
HETATM   21  C   UNL     1     -44.274  62.025 -48.716  1.00  0.00     0.003 A 
HETATM   22  C   UNL     1     -44.363  63.409 -48.546  1.00  0.00     0.043 A 
HETATM   23  C   UNL     1     -44.803  61.197 -47.699  1.00  0.00     0.014 A 
HETATM   24  C   UNL     1     -44.932  64.001 -47.411  1.00  0.00     0.030 A 
HETATM   25  N   UNL     1     -43.812  63.992 -49.664  1.00  0.00    -0.364 N 
HETATM   26  C   UNL     1     -45.431  63.156 -46.416  1.00  0.00     0.002 A 
HETATM   27  C   UNL     1     -45.371  61.773 -46.556  1.00  0.00     0.001 A 
HETATM   28  H   UNL     1     -43.747  64.988 -49.816  1.00  0.00     0.165 HD
HETATM   29  C   UNL     1     -43.370  63.030 -50.534  1.00  0.00     0.101 A 
ENDBRANCH   6  20
TORSDOF 3
ENDMDL
MODEL 6
REMARK VINA RESULT:      -8.2      5.990     10.237
REMARK  3 active torsions:
REMARK  status: ('A' for Active; 'I' for Inactive)
REMARK    1  A    between atoms: O_2  and  C_3 
REMARK    2  A    between atoms: C_5  and  N_6 
REMARK       I    between atoms: N_6  and  C_7 
REMARK       I    between atoms: C_7  and  N_8 
REMARK    3  A    between atoms: C_11  and  C_12 
ROOT
HETATM    1  N   UNL     1     -41.122  55.383 -51.934  1.00  0.00    -0.306 N 
HETATM    2  C   UNL     1     -42.422  55.839 -51.952  1.00  0.00     0.323 C 
HETATM    3  N   UNL     1     -42.583  57.188 -51.608  1.00  0.00    -0.330 N 
HETATM    4  C   UNL     1     -41.484  58.033 -51.145  1.00  0.00     0.155 C 
HETATM    5  C   UNL     1     -41.870  59.453 -50.890  1.00  0.00     0.001 C 
HETATM    6  C   UNL     1     -43.100  59.965 -51.054  1.00  0.00    -0.046 C 
HETATM    7  C   UNL     1     -44.214  59.085 -51.554  1.00  0.00     0.059 C 
HETATM    8  C   UNL     1     -43.940  57.612 -51.256  1.00  0.00     0.132 C 
HETATM    9  O   UNL     1     -43.391  55.129 -52.213  1.00  0.00    -0.247 OA
HETATM   10  H   UNL     1     -40.400  56.013 -51.624  1.00  0.00     0.171 HD
ENDROOT
BRANCH   1  11
HETATM   11  C   UNL     1     -40.656  54.065 -52.151  1.00  0.00     0.077 A 
HETATM   12  C   UNL     1     -40.671  53.404 -53.383  1.00  0.00     0.069 A 
HETATM   13  C   UNL     1     -40.206  52.086 -53.482  1.00  0.00     0.070 A 
HETATM   14  C   UNL     1     -39.735  51.426 -52.342  1.00  0.00     0.040 A 
HETATM   15  C   UNL     1     -39.706  52.076 -51.112  1.00  0.00     0.047 A 
HETATM   16  C   UNL     1     -40.160  53.386 -51.030  1.00  0.00     0.143 A 
HETATM   17  F   UNL     1     -40.139  54.008 -49.840  1.00  0.00    -0.204 F 
BRANCH  13  18
HETATM   18  O   UNL     1     -40.165  51.334 -54.626  1.00  0.00    -0.356 OA
HETATM   19  C   UNL     1     -39.765  49.976 -54.487  1.00  0.00     0.210 C 
ENDBRANCH  13  18
ENDBRANCH   1  11
BRANCH   6  20
HETATM   20  C   UNL     1     -43.456  61.321 -50.755  1.00  0.00    -0.002 A 
HETATM   21  C   UNL     1     -44.049  61.839 -49.556  1.00  0.00     0.003 A 
HETATM   22  C   UNL     1     -44.195  63.218 -49.732  1.00  0.00     0.043 A 
HETATM   23  C   UNL     1     -44.490  61.277 -48.336  1.00  0.00     0.014 A 
HETATM   24  C   UNL     1     -44.738  64.057 -48.751  1.00  0.00     0.030 A 
HETATM   25  N   UNL     1     -43.725  63.519 -50.989  1.00  0.00    -0.364 N 
HETATM   26  C   UNL     1     -45.150  63.473 -47.549  1.00  0.00     0.002 A 
HETATM   27  C   UNL     1     -45.031  62.102 -47.343  1.00  0.00     0.001 A 
HETATM   28  H   UNL     1     -43.715  64.446 -51.388  1.00  0.00     0.165 HD
HETATM   29  C   UNL     1     -43.279  62.385 -51.615  1.00  0.00     0.101 A 
ENDBRANCH   6  20
TORSDOF 3
ENDMDL
MODEL 7
REMARK VINA RESULT:      -8.2      1.873      2.013
REMARK  3 active torsions:
REMARK  status: ('A' for Active; 'I' for Inactive)
REMARK    1  A    between atoms: O_2  and  C_3 
REMARK    2  A    between atoms: C_5  and  N_6 
REMARK       I    between atoms: N_6  and  C_7 
REMARK       I    between atoms: C_7  and  N_8 
REMARK    3  A    between atoms: C_11  and  C_12 
ROOT
HETATM    1  N   UNL     1     -43.007  58.168 -56.510  1.00  0.00    -0.306 N 
HETATM    2  C   UNL     1     -43.686  57.376 -55.611  1.00  0.00     0.323 C 
HETATM    3  N   UNL     1     -42.905  56.409 -54.962  1.00  0.00    -0.330 N 
HETATM    4  C   UNL     1     -41.502  56.165 -55.288  1.00  0.00     0.155 C 
HETATM    5  C   UNL     1     -40.847  55.130 -54.432  1.00  0.00     0.001 C 
HETATM    6  C   UNL     1     -41.444  54.453 -53.438  1.00  0.00    -0.046 C 
HETATM    7  C   UNL     1     -42.883  54.736 -53.102  1.00  0.00     0.059 C 
HETATM    8  C   UNL     1     -43.631  55.326 -54.297  1.00  0.00     0.132 C 
HETATM    9  O   UNL     1     -44.895  57.463 -55.401  1.00  0.00    -0.247 OA
HETATM   10  H   UNL     1     -42.035  57.967 -56.684  1.00  0.00     0.171 HD
ENDROOT
BRANCH   1  11
HETATM   11  C   UNL     1     -43.532  59.163 -57.369  1.00  0.00     0.077 A 
HETATM   12  C   UNL     1     -43.907  58.952 -58.699  1.00  0.00     0.069 A 
HETATM   13  C   UNL     1     -44.395  60.016 -59.471  1.00  0.00     0.070 A 
HETATM   14  C   UNL     1     -44.498  61.294 -58.911  1.00  0.00     0.040 A 
HETATM   15  C   UNL     1     -44.137  61.513 -57.585  1.00  0.00     0.047 A 
HETATM   16  C   UNL     1     -43.665  60.448 -56.828  1.00  0.00     0.143 A 
HETATM   17  F   UNL     1     -43.310  60.665 -55.551  1.00  0.00    -0.204 F 
BRANCH  13  18
HETATM   18  O   UNL     1     -44.797  59.940 -60.777  1.00  0.00    -0.356 OA
HETATM   19  C   UNL     1     -43.865  60.372 -61.761  1.00  0.00     0.210 C 
ENDBRANCH  13  18
ENDBRANCH   1  11
BRANCH   6  20
HETATM   20  C   UNL     1     -40.807  53.430 -52.663  1.00  0.00    -0.002 A 
HETATM   21  C   UNL     1     -40.423  52.111 -53.078  1.00  0.00     0.003 A 
HETATM   22  C   UNL     1     -39.828  51.490 -51.977  1.00  0.00     0.043 A 
HETATM   23  C   UNL     1     -40.529  51.372 -54.278  1.00  0.00     0.014 A 
HETATM   24  C   UNL     1     -39.322  50.185 -52.022  1.00  0.00     0.030 A 
HETATM   25  N   UNL     1     -39.864  52.388 -50.935  1.00  0.00    -0.364 N 
HETATM   26  C   UNL     1     -39.427  49.486 -53.227  1.00  0.00     0.002 A 
HETATM   27  C   UNL     1     -40.024  50.068 -54.341  1.00  0.00     0.001 A 
HETATM   28  H   UNL     1     -39.506  52.203 -50.009  1.00  0.00     0.165 HD
HETATM   29  C   UNL     1     -40.453  53.559 -51.336  1.00  0.00     0.101 A 
ENDBRANCH   6  20
TORSDOF 3
ENDMDL
MODEL 8
REMARK VINA RESULT:      -8.1      6.492      9.976
REMARK  3 active torsions:
REMARK  status: ('A' for Active; 'I' for Inactive)
REMARK    1  A    between atoms: O_2  and  C_3 
REMARK    2  A    between atoms: C_5  and  N_6 
REMARK       I    between atoms: N_6  and  C_7 
REMARK       I    between atoms: C_7  and  N_8 
REMARK    3  A    between atoms: C_11  and  C_12 
ROOT
HETATM    1  N   UNL     1     -42.390  56.207 -52.483  1.00  0.00    -0.306 N 
HETATM    2  C   UNL     1     -41.927  57.454 -52.128  1.00  0.00     0.323 C 
HETATM    3  N   UNL     1     -42.894  58.319 -51.597  1.00  0.00    -0.330 N 
HETATM    4  C   UNL     1     -44.315  57.984 -51.528  1.00  0.00     0.155 C 
HETATM    5  C   UNL     1     -45.157  59.027 -50.871  1.00  0.00     0.001 C 
HETATM    6  C   UNL     1     -44.706  60.188 -50.369  1.00  0.00    -0.046 C 
HETATM    7  C   UNL     1     -43.236  60.504 -50.428  1.00  0.00     0.059 C 
HETATM    8  C   UNL     1     -42.544  59.740 -51.556  1.00  0.00     0.132 C 
HETATM    9  O   UNL     1     -40.764  57.821 -52.288  1.00  0.00    -0.247 OA
HETATM   10  H   UNL     1     -43.377  56.023 -52.399  1.00  0.00     0.171 HD
ENDROOT
BRANCH   1  11
HETATM   11  C   UNL     1     -41.681  55.158 -53.116  1.00  0.00     0.077 A 
HETATM   12  C   UNL     1     -41.168  54.033 -52.463  1.00  0.00     0.069 A 
HETATM   13  C   UNL     1     -40.458  53.063 -53.183  1.00  0.00     0.070 A 
HETATM   14  C   UNL     1     -40.252  53.227 -54.557  1.00  0.00     0.040 A 
HETATM   15  C   UNL     1     -40.765  54.338 -55.220  1.00  0.00     0.047 A 
HETATM   16  C   UNL     1     -41.477  55.286 -54.496  1.00  0.00     0.143 A 
HETATM   17  F   UNL     1     -41.964  56.361 -55.137  1.00  0.00    -0.204 F 
BRANCH  13  18
HETATM   18  O   UNL     1     -39.911  51.920 -52.664  1.00  0.00    -0.356 OA
HETATM   19  C   UNL     1     -39.580  50.890 -53.588  1.00  0.00     0.210 C 
ENDBRANCH  13  18
ENDBRANCH   1  11
BRANCH   6  20
HETATM   20  C   UNL     1     -45.542  61.195 -49.786  1.00  0.00    -0.002 A 
HETATM   21  C   UNL     1     -45.697  61.527 -48.399  1.00  0.00     0.003 A 
HETATM   22  C   UNL     1     -46.612  62.581 -48.328  1.00  0.00     0.043 A 
HETATM   23  C   UNL     1     -45.161  61.033 -47.188  1.00  0.00     0.014 A 
HETATM   24  C   UNL     1     -46.999  63.172 -47.118  1.00  0.00     0.030 A 
HETATM   25  N   UNL     1     -47.006  62.865 -49.615  1.00  0.00    -0.364 N 
HETATM   26  C   UNL     1     -46.439  62.672 -45.940  1.00  0.00     0.002 A 
HETATM   27  C   UNL     1     -45.534  61.615 -45.971  1.00  0.00     0.001 A 
HETATM   28  H   UNL     1     -47.671  63.583 -49.864  1.00  0.00     0.165 HD
HETATM   29  C   UNL     1     -46.370  62.035 -50.501  1.00  0.00     0.101 A 
ENDBRANCH   6  20
TORSDOF 3
ENDMDL
MODEL 9
REMARK VINA RESULT:      -8.0      5.127      9.930
REMARK  3 active torsions:
REMARK  status: ('A' for Active; 'I' for Inactive)
REMARK    1  A    between atoms: O_2  and  C_3 
REMARK    2  A    between atoms: C_5  and  N_6 
REMARK       I    between atoms: N_6  and  C_7 
REMARK       I    between atoms: C_7  and  N_8 
REMARK    3  A    between atoms: C_11  and  C_12 
ROOT
HETATM    1  N   UNL     1     -40.902  54.758 -52.945  1.00  0.00    -0.306 N 
HETATM    2  C   UNL     1     -42.187  55.233 -52.806  1.00  0.00     0.323 C 
HETATM    3  N   UNL     1     -42.294  56.623 -52.653  1.00  0.00    -0.330 N 
HETATM    4  C   UNL     1     -41.135  57.505 -52.527  1.00  0.00     0.155 C 
HETATM    5  C   UNL     1     -41.479  58.955 -52.433  1.00  0.00     0.001 C 
HETATM    6  C   UNL     1     -42.723  59.462 -52.457  1.00  0.00    -0.046 C 
HETATM    7  C   UNL     1     -43.901  58.540 -52.610  1.00  0.00     0.059 C 
HETATM    8  C   UNL     1     -43.569  57.124 -52.138  1.00  0.00     0.132 C 
HETATM    9  O   UNL     1     -43.183  54.512 -52.778  1.00  0.00    -0.247 OA
HETATM   10  H   UNL     1     -40.140  55.414 -52.868  1.00  0.00     0.171 HD
ENDROOT
BRANCH   1  11
HETATM   11  C   UNL     1     -40.472  53.413 -53.032  1.00  0.00     0.077 A 
HETATM   12  C   UNL     1     -40.137  52.609 -51.939  1.00  0.00     0.069 A 
HETATM   13  C   UNL     1     -39.700  51.293 -52.139  1.00  0.00     0.070 A 
HETATM   14  C   UNL     1     -39.587  50.786 -53.439  1.00  0.00     0.040 A 
HETATM   15  C   UNL     1     -39.927  51.573 -54.534  1.00  0.00     0.047 A 
HETATM   16  C   UNL     1     -40.371  52.872 -54.321  1.00  0.00     0.143 A 
HETATM   17  F   UNL     1     -40.690  53.632 -55.381  1.00  0.00    -0.204 F 
BRANCH  13  18
HETATM   18  O   UNL     1     -39.346  50.407 -51.157  1.00  0.00    -0.356 OA
HETATM   19  C   UNL     1     -40.244  50.270 -50.062  1.00  0.00     0.210 C 
ENDBRANCH  13  18
ENDBRANCH   1  11
BRANCH   6  20
HETATM   20  C   UNL     1     -43.029  60.855 -52.315  1.00  0.00    -0.002 A 
HETATM   21  C   UNL     1     -43.518  61.543 -51.154  1.00  0.00     0.003 A 
HETATM   22  C   UNL     1     -43.651  62.890 -51.501  1.00  0.00     0.043 A 
HETATM   23  C   UNL     1     -43.873  61.159 -49.842  1.00  0.00     0.014 A 
HETATM   24  C   UNL     1     -44.101  63.866 -50.602  1.00  0.00     0.030 A 
HETATM   25  N   UNL     1     -43.274  63.010 -52.819  1.00  0.00    -0.364 N 
HETATM   26  C   UNL     1     -44.429  63.457 -49.307  1.00  0.00     0.002 A 
HETATM   27  C   UNL     1     -44.320  62.122 -48.930  1.00  0.00     0.001 A 
HETATM   28  H   UNL     1     -43.278  63.877 -53.337  1.00  0.00     0.165 HD
HETATM   29  C   UNL     1     -42.900  61.792 -53.320  1.00  0.00     0.101 A 
ENDBRANCH   6  20
TORSDOF 3
ENDMDL
MODEL 10
REMARK VINA RESULT:      -7.9      4.920     10.025
REMARK  3 active torsions:
REMARK  status: ('A' for Active; 'I' for Inactive)
REMARK    1  A    between atoms: O_2  and  C_3 
REMARK    2  A    between atoms: C_5  and  N_6 
REMARK       I    between atoms: N_6  and  C_7 
REMARK       I    between atoms: C_7  and  N_8 
REMARK    3  A    between atoms: C_11  and  C_12 
ROOT
HETATM    1  N   UNL     1     -40.731  54.025 -52.281  1.00  0.00    -0.306 N 
HETATM    2  C   UNL     1     -42.000  54.553 -52.367  1.00  0.00     0.323 C 
HETATM    3  N   UNL     1     -42.054  55.938 -52.573  1.00  0.00    -0.330 N 
HETATM    4  C   UNL     1     -40.869  56.793 -52.579  1.00  0.00     0.155 C 
HETATM    5  C   UNL     1     -41.154  58.229 -52.876  1.00  0.00     0.001 C 
HETATM    6  C   UNL     1     -42.368  58.746 -53.124  1.00  0.00    -0.046 C 
HETATM    7  C   UNL     1     -43.573  57.845 -53.136  1.00  0.00     0.059 C 
HETATM    8  C   UNL     1     -43.340  56.586 -52.303  1.00  0.00     0.132 C 
HETATM    9  O   UNL     1     -43.026  53.887 -52.240  1.00  0.00    -0.247 OA
HETATM   10  H   UNL     1     -39.948  54.658 -52.309  1.00  0.00     0.171 HD
ENDROOT
BRANCH   1  11
HETATM   11  C   UNL     1     -40.357  52.690 -51.996  1.00  0.00     0.077 A 
HETATM   12  C   UNL     1     -40.017  51.733 -52.957  1.00  0.00     0.069 A 
HETATM   13  C   UNL     1     -39.685  50.429 -52.566  1.00  0.00     0.070 A 
HETATM   14  C   UNL     1     -39.704  50.081 -51.211  1.00  0.00     0.040 A 
HETATM   15  C   UNL     1     -40.032  51.027 -50.245  1.00  0.00     0.047 A 
HETATM   16  C   UNL     1     -40.348  52.319 -50.645  1.00  0.00     0.143 A 
HETATM   17  F   UNL     1     -40.671  53.228 -49.711  1.00  0.00    -0.204 F 
BRANCH  13  18
HETATM   18  O   UNL     1     -39.334  49.405 -53.405  1.00  0.00    -0.356 OA
HETATM   19  C   UNL     1     -39.586  49.597 -54.792  1.00  0.00     0.210 C 
ENDBRANCH  13  18
ENDBRANCH   1  11
BRANCH   6  20
HETATM   20  C   UNL     1     -42.621  60.137 -53.358  1.00  0.00    -0.002 A 
HETATM   21  C   UNL     1     -42.873  61.168 -52.392  1.00  0.00     0.003 A 
HETATM   22  C   UNL     1     -43.048  62.360 -53.100  1.00  0.00     0.043 A 
HETATM   23  C   UNL     1     -42.983  61.212 -50.984  1.00  0.00     0.014 A 
HETATM   24  C   UNL     1     -43.306  63.586 -52.473  1.00  0.00     0.030 A 
HETATM   25  N   UNL     1     -42.922  62.061 -54.437  1.00  0.00    -0.364 N 
HETATM   26  C   UNL     1     -43.393  63.599 -51.079  1.00  0.00     0.002 A 
HETATM   27  C   UNL     1     -43.236  62.429 -50.341  1.00  0.00     0.001 A 
HETATM   28  H   UNL     1     -43.008  62.736 -55.184  1.00  0.00     0.165 HD
HETATM   29  C   UNL     1     -42.667  60.726 -54.605  1.00  0.00     0.101 A 
ENDBRANCH   6  20
TORSDOF 3
ENDMDL
