MODEL 1
REMARK VINA RESULT:      -7.6      0.000      0.000
REMARK  6 active torsions:
REMARK  status: ('A' for Active; 'I' for Inactive)
REMARK    1  A    between atoms: C_2  and  N_3 
REMARK    2  A    between atoms: C_2  and  C_21 
REMARK       I    between atoms: N_3  and  C_4 
REMARK       I    between atoms: C_4  and  N_5 
REMARK    3  A    between atoms: N_5  and  C_6 
REMARK    4  A    between atoms: C_6  and  C_7 
REMARK    5  A    between atoms: C_10  and  O_11 
REMARK    6  A    between atoms: O_11  and  C_12 
ROOT
HETATM    1  N   UNL     1     -44.980  56.544 -58.615  1.00  0.00    -0.332 N 
HETATM    2  C   UNL     1     -43.838  56.635 -57.879  1.00  0.00     0.317 C 
HETATM    3  N   UNL     1     -44.104  56.939 -56.571  1.00  0.00    -0.339 N 
HETATM    4  O   UNL     1     -42.713  56.478 -58.331  1.00  0.00    -0.247 OA
HETATM    5  H   UNL     1     -45.859  56.398 -58.141  1.00  0.00     0.165 HD
HETATM    6  H   UNL     1     -44.962  57.444 -56.411  1.00  0.00     0.164 HD
ENDROOT
BRANCH   3   7
HETATM    7  C   UNL     1     -43.008  57.218 -55.674  1.00  0.00     0.162 C 
BRANCH   7   8
HETATM    8  C   UNL     1     -42.571  55.972 -54.955  1.00  0.00    -0.040 A 
HETATM    9  C   UNL     1     -43.309  55.477 -53.872  1.00  0.00     0.011 A 
HETATM   10  C   UNL     1     -42.897  54.323 -53.192  1.00  0.00     0.037 A 
HETATM   11  C   UNL     1     -41.736  53.657 -53.579  1.00  0.00     0.069 A 
HETATM   12  C   UNL     1     -40.990  54.159 -54.648  1.00  0.00     0.037 A 
HETATM   13  C   UNL     1     -41.398  55.307 -55.330  1.00  0.00     0.011 A 
BRANCH  11  14
HETATM   14  O   UNL     1     -41.219  52.525 -53.016  1.00  0.00    -0.346 OA
BRANCH  14  15
HETATM   15  C   UNL     1     -39.799  52.376 -52.901  1.00  0.00     0.129 C 
HETATM   16  C   UNL     1     -39.396  52.112 -51.443  1.00  0.00     0.032 C 
HETATM   17  C   UNL     1     -39.959  50.792 -50.917  1.00  0.00     0.002 C 
HETATM   18  C   UNL     1     -39.563  49.618 -51.808  1.00  0.00     0.000 C 
HETATM   19  C   UNL     1     -39.953  49.857 -53.262  1.00  0.00     0.002 C 
HETATM   20  C   UNL     1     -39.397  51.183 -53.784  1.00  0.00     0.032 C 
ENDBRANCH  14  15
ENDBRANCH  11  14
ENDBRANCH   7   8
ENDBRANCH   3   7
BRANCH   1  21
HETATM   21  C   UNL     1     -44.966  56.202 -60.032  1.00  0.00     0.155 C 
HETATM   22  C   UNL     1     -44.925  54.689 -60.242  1.00  0.00     0.041 C 
BRANCH  21  23
HETATM   23  C   UNL     1     -46.187  56.804 -60.676  1.00  0.00     0.169 A 
HETATM   24  N   UNL     1     -47.000  56.116 -61.501  1.00  0.00    -0.156 NA
HETATM   25  N   UNL     1     -47.920  57.047 -61.805  1.00  0.00    -0.270 N 
HETATM   26  H   UNL     1     -48.684  56.810 -62.428  1.00  0.00     0.190 HD
HETATM   27  C   UNL     1     -47.653  58.225 -61.186  1.00  0.00     0.227 A 
HETATM   28  N   UNL     1     -46.564  58.109 -60.467  1.00  0.00    -0.223 NA
ENDBRANCH  21  23
ENDBRANCH   1  21
TORSDOF 6
ENDMDL
MODEL 2
REMARK VINA RESULT:      -7.5      1.504      2.227
REMARK  6 active torsions:
REMARK  status: ('A' for Active; 'I' for Inactive)
REMARK    1  A    between atoms: C_2  and  N_3 
REMARK    2  A    between atoms: C_2  and  C_21 
REMARK       I    between atoms: N_3  and  C_4 
REMARK       I    between atoms: C_4  and  N_5 
REMARK    3  A    between atoms: N_5  and  C_6 
REMARK    4  A    between atoms: C_6  and  C_7 
REMARK    5  A    between atoms: C_10  and  O_11 
REMARK    6  A    between atoms: O_11  and  C_12 
ROOT
HETATM    1  N   UNL     1     -43.154  58.015 -58.312  1.00  0.00    -0.332 N 
HETATM    2  C   UNL     1     -43.523  57.826 -57.015  1.00  0.00     0.317 C 
HETATM    3  N   UNL     1     -42.438  57.611 -56.208  1.00  0.00    -0.339 N 
HETATM    4  O   UNL     1     -44.680  57.834 -56.621  1.00  0.00    -0.247 OA
HETATM    5  H   UNL     1     -42.201  58.281 -58.518  1.00  0.00     0.165 HD
HETATM    6  H   UNL     1     -41.632  57.215 -56.665  1.00  0.00     0.164 HD
ENDROOT
BRANCH   3   7
HETATM    7  C   UNL     1     -42.646  57.248 -54.827  1.00  0.00     0.162 C 
BRANCH   7   8
HETATM    8  C   UNL     1     -42.122  55.865 -54.550  1.00  0.00    -0.040 A 
HETATM    9  C   UNL     1     -40.935  55.420 -55.146  1.00  0.00     0.011 A 
HETATM   10  C   UNL     1     -40.451  54.128 -54.900  1.00  0.00     0.037 A 
HETATM   11  C   UNL     1     -41.155  53.262 -54.066  1.00  0.00     0.069 A 
HETATM   12  C   UNL     1     -42.348  53.698 -53.486  1.00  0.00     0.037 A 
HETATM   13  C   UNL     1     -42.832  54.986 -53.725  1.00  0.00     0.011 A 
BRANCH  11  14
HETATM   14  O   UNL     1     -40.804  51.984 -53.735  1.00  0.00    -0.346 OA
BRANCH  14  15
HETATM   15  C   UNL     1     -39.429  51.669 -53.485  1.00  0.00     0.129 C 
HETATM   16  C   UNL     1     -39.027  52.079 -52.062  1.00  0.00     0.032 C 
HETATM   17  C   UNL     1     -39.793  51.296 -50.996  1.00  0.00     0.002 C 
HETATM   18  C   UNL     1     -39.642  49.790 -51.188  1.00  0.00     0.000 C 
HETATM   19  C   UNL     1     -40.036  49.359 -52.596  1.00  0.00     0.002 C 
HETATM   20  C   UNL     1     -39.275  50.149 -53.661  1.00  0.00     0.032 C 
ENDBRANCH  14  15
ENDBRANCH  11  14
ENDBRANCH   7   8
ENDBRANCH   3   7
BRANCH   1  21
HETATM   21  C   UNL     1     -44.125  58.292 -59.364  1.00  0.00     0.155 C 
HETATM   22  C   UNL     1     -43.495  59.076 -60.514  1.00  0.00     0.041 C 
BRANCH  21  23
HETATM   23  C   UNL     1     -44.684  56.981 -59.848  1.00  0.00     0.169 A 
HETATM   24  N   UNL     1     -45.914  56.538 -59.519  1.00  0.00    -0.156 NA
HETATM   25  N   UNL     1     -45.959  55.365 -60.173  1.00  0.00    -0.270 N 
HETATM   26  H   UNL     1     -46.791  54.790 -60.111  1.00  0.00     0.190 HD
HETATM   27  C   UNL     1     -44.805  55.133 -60.850  1.00  0.00     0.227 A 
HETATM   28  N   UNL     1     -43.977  56.132 -60.664  1.00  0.00    -0.223 NA
ENDBRANCH  21  23
ENDBRANCH   1  21
TORSDOF 6
ENDMDL
MODEL 3
REMARK VINA RESULT:      -7.4      7.223      9.917
REMARK  6 active torsions:
REMARK  status: ('A' for Active; 'I' for Inactive)
REMARK    1  A    between atoms: C_2  and  N_3 
REMARK    2  A    between atoms: C_2  and  C_21 
REMARK       I    between atoms: N_3  and  C_4 
REMARK       I    between atoms: C_4  and  N_5 
REMARK    3  A    between atoms: N_5  and  C_6 
REMARK    4  A    between atoms: C_6  and  C_7 
REMARK    5  A    between atoms: C_10  and  O_11 
REMARK    6  A    between atoms: O_11  and  C_12 
ROOT
HETATM    1  N   UNL     1     -44.655  61.118 -47.310  1.00  0.00    -0.332 N 
HETATM    2  C   UNL     1     -45.068  60.889 -48.587  1.00  0.00     0.317 C 
HETATM    3  N   UNL     1     -44.020  60.571 -49.408  1.00  0.00    -0.339 N 
HETATM    4  O   UNL     1     -46.230  60.971 -48.959  1.00  0.00    -0.247 OA
HETATM    5  H   UNL     1     -43.758  60.760 -47.013  1.00  0.00     0.165 HD
HETATM    6  H   UNL     1     -43.124  60.936 -49.124  1.00  0.00     0.164 HD
ENDROOT
BRANCH   3   7
HETATM    7  C   UNL     1     -44.248  60.438 -50.827  1.00  0.00     0.162 C 
BRANCH   7   8
HETATM    8  C   UNL     1     -43.528  59.238 -51.377  1.00  0.00    -0.040 A 
HETATM    9  C   UNL     1     -42.153  59.071 -51.162  1.00  0.00     0.011 A 
HETATM   10  C   UNL     1     -41.477  57.960 -51.684  1.00  0.00     0.037 A 
HETATM   11  C   UNL     1     -42.164  57.010 -52.437  1.00  0.00     0.069 A 
HETATM   12  C   UNL     1     -43.530  57.185 -52.667  1.00  0.00     0.037 A 
HETATM   13  C   UNL     1     -44.209  58.288 -52.146  1.00  0.00     0.011 A 
BRANCH  11  14
HETATM   14  O   UNL     1     -41.639  55.882 -53.001  1.00  0.00    -0.346 OA
BRANCH  14  15
HETATM   15  C   UNL     1     -42.402  54.669 -53.002  1.00  0.00     0.129 C 
HETATM   16  C   UNL     1     -42.262  53.941 -54.346  1.00  0.00     0.032 C 
HETATM   17  C   UNL     1     -40.827  53.485 -54.612  1.00  0.00     0.002 C 
HETATM   18  C   UNL     1     -40.292  52.624 -53.471  1.00  0.00     0.000 C 
HETATM   19  C   UNL     1     -40.421  53.327 -52.125  1.00  0.00     0.002 C 
HETATM   20  C   UNL     1     -41.855  53.791 -51.866  1.00  0.00     0.032 C 
ENDBRANCH  14  15
ENDBRANCH  11  14
ENDBRANCH   7   8
ENDBRANCH   3   7
BRANCH   1  21
HETATM   21  C   UNL     1     -45.587  61.446 -46.238  1.00  0.00     0.155 C 
HETATM   22  C   UNL     1     -46.709  62.357 -46.732  1.00  0.00     0.041 C 
BRANCH  21  23
HETATM   23  C   UNL     1     -46.140  60.160 -45.683  1.00  0.00     0.169 A 
HETATM   24  N   UNL     1     -45.532  59.457 -44.707  1.00  0.00    -0.156 NA
HETATM   25  N   UNL     1     -46.380  58.426 -44.554  1.00  0.00    -0.270 N 
HETATM   26  H   UNL     1     -46.177  57.710 -43.865  1.00  0.00     0.190 HD
HETATM   27  C   UNL     1     -47.434  58.523 -45.403  1.00  0.00     0.227 A 
HETATM   28  N   UNL     1     -47.313  59.605 -46.134  1.00  0.00    -0.223 NA
ENDBRANCH  21  23
ENDBRANCH   1  21
TORSDOF 6
ENDMDL
MODEL 4
REMARK VINA RESULT:      -7.4     15.029     16.356
REMARK  6 active torsions:
REMARK  status: ('A' for Active; 'I' for Inactive)
REMARK    1  A    between atoms: C_2  and  N_3 
REMARK    2  A    between atoms: C_2  and  C_21 
REMARK       I    between atoms: N_3  and  C_4 
REMARK       I    between atoms: C_4  and  N_5 
REMARK    3  A    between atoms: N_5  and  C_6 
REMARK    4  A    between atoms: C_6  and  C_7 
REMARK    5  A    between atoms: C_10  and  O_11 
REMARK    6  A    between atoms: O_11  and  C_12 
ROOT
HETATM    1  N   UNL     1     -38.983  39.055 -59.885  1.00  0.00    -0.332 N 
HETATM    2  C   UNL     1     -37.823  39.726 -59.644  1.00  0.00     0.317 C 
HETATM    3  N   UNL     1     -38.054  40.932 -59.041  1.00  0.00    -0.339 N 
HETATM    4  O   UNL     1     -36.712  39.309 -59.942  1.00  0.00    -0.247 OA
HETATM    5  H   UNL     1     -39.813  39.310 -59.369  1.00  0.00     0.165 HD
HETATM    6  H   UNL     1     -38.955  41.343 -59.227  1.00  0.00     0.164 HD
ENDROOT
BRANCH   3   7
HETATM    7  C   UNL     1     -36.953  41.845 -58.841  1.00  0.00     0.162 C 
BRANCH   7   8
HETATM    8  C   UNL     1     -36.557  41.899 -57.391  1.00  0.00    -0.040 A 
HETATM    9  C   UNL     1     -35.244  42.222 -57.023  1.00  0.00     0.011 A 
HETATM   10  C   UNL     1     -34.868  42.261 -55.673  1.00  0.00     0.037 A 
HETATM   11  C   UNL     1     -35.797  41.967 -54.677  1.00  0.00     0.069 A 
HETATM   12  C   UNL     1     -37.101  41.627 -55.044  1.00  0.00     0.037 A 
HETATM   13  C   UNL     1     -37.481  41.591 -56.387  1.00  0.00     0.011 A 
BRANCH  11  14
HETATM   14  O   UNL     1     -35.575  41.969 -53.329  1.00  0.00    -0.346 OA
BRANCH  14  15
HETATM   15  C   UNL     1     -35.622  40.737 -52.601  1.00  0.00     0.129 C 
HETATM   16  C   UNL     1     -34.550  39.763 -53.110  1.00  0.00     0.032 C 
HETATM   17  C   UNL     1     -33.133  40.288 -52.874  1.00  0.00     0.002 C 
HETATM   18  C   UNL     1     -32.899  40.631 -51.406  1.00  0.00     0.000 C 
HETATM   19  C   UNL     1     -33.954  41.597 -50.877  1.00  0.00     0.002 C 
HETATM   20  C   UNL     1     -35.370  41.075 -51.123  1.00  0.00     0.032 C 
ENDBRANCH  14  15
ENDBRANCH  11  14
ENDBRANCH   7   8
ENDBRANCH   3   7
BRANCH   1  21
HETATM   21  C   UNL     1     -39.003  37.730 -60.494  1.00  0.00     0.155 C 
HETATM   22  C   UNL     1     -39.560  36.681 -59.534  1.00  0.00     0.041 C 
BRANCH  21  23
HETATM   23  C   UNL     1     -39.826  37.803 -61.753  1.00  0.00     0.169 A 
HETATM   24  N   UNL     1     -39.305  37.645 -62.985  1.00  0.00    -0.156 NA
HETATM   25  N   UNL     1     -40.396  37.785 -63.757  1.00  0.00    -0.270 N 
HETATM   26  H   UNL     1     -40.308  37.712 -64.764  1.00  0.00     0.190 HD
HETATM   27  C   UNL     1     -41.504  38.016 -63.007  1.00  0.00     0.227 A 
HETATM   28  N   UNL     1     -41.180  38.037 -61.737  1.00  0.00    -0.223 NA
ENDBRANCH  21  23
ENDBRANCH   1  21
TORSDOF 6
ENDMDL
MODEL 5
REMARK VINA RESULT:      -7.2      7.585     10.353
REMARK  6 active torsions:
REMARK  status: ('A' for Active; 'I' for Inactive)
REMARK    1  A    between atoms: C_2  and  N_3 
REMARK    2  A    between atoms: C_2  and  C_21 
REMARK       I    between atoms: N_3  and  C_4 
REMARK       I    between atoms: C_4  and  N_5 
REMARK    3  A    between atoms: N_5  and  C_6 
REMARK    4  A    between atoms: C_6  and  C_7 
REMARK    5  A    between atoms: C_10  and  O_11 
REMARK    6  A    between atoms: O_11  and  C_12 
ROOT
HETATM    1  N   UNL     1     -44.628  60.951 -47.546  1.00  0.00    -0.332 N 
HETATM    2  C   UNL     1     -44.903  60.807 -48.872  1.00  0.00     0.317 C 
HETATM    3  N   UNL     1     -43.768  60.572 -49.600  1.00  0.00    -0.339 N 
HETATM    4  O   UNL     1     -46.023  60.891 -49.355  1.00  0.00    -0.247 OA
HETATM    5  H   UNL     1     -43.756  60.591 -47.184  1.00  0.00     0.165 HD
HETATM    6  H   UNL     1     -42.916  60.934 -49.200  1.00  0.00     0.164 HD
ENDROOT
BRANCH   3   7
HETATM    7  C   UNL     1     -43.847  60.538 -51.041  1.00  0.00     0.162 C 
BRANCH   7   8
HETATM    8  C   UNL     1     -43.122  59.340 -51.591  1.00  0.00    -0.040 A 
HETATM    9  C   UNL     1     -41.900  58.932 -51.041  1.00  0.00     0.011 A 
HETATM   10  C   UNL     1     -41.216  57.824 -51.559  1.00  0.00     0.037 A 
HETATM   11  C   UNL     1     -41.740  57.119 -52.641  1.00  0.00     0.069 A 
HETATM   12  C   UNL     1     -42.949  57.536 -53.201  1.00  0.00     0.037 A 
HETATM   13  C   UNL     1     -43.636  58.637 -52.686  1.00  0.00     0.011 A 
BRANCH  11  14
HETATM   14  O   UNL     1     -41.190  56.024 -53.244  1.00  0.00    -0.346 OA
BRANCH  14  15
HETATM   15  C   UNL     1     -42.041  55.055 -53.868  1.00  0.00     0.129 C 
HETATM   16  C   UNL     1     -41.488  54.653 -55.243  1.00  0.00     0.032 C 
HETATM   17  C   UNL     1     -40.133  53.954 -55.140  1.00  0.00     0.002 C 
HETATM   18  C   UNL     1     -40.192  52.748 -54.207  1.00  0.00     0.000 C 
HETATM   19  C   UNL     1     -40.738  53.124 -52.834  1.00  0.00     0.002 C 
HETATM   20  C   UNL     1     -42.090  53.832 -52.940  1.00  0.00     0.032 C 
ENDBRANCH  14  15
ENDBRANCH  11  14
ENDBRANCH   7   8
ENDBRANCH   3   7
BRANCH   1  21
HETATM   21  C   UNL     1     -45.673  61.180 -46.556  1.00  0.00     0.155 C 
HETATM   22  C   UNL     1     -46.320  59.870 -46.112  1.00  0.00     0.041 C 
BRANCH  21  23
HETATM   23  C   UNL     1     -45.063  61.905 -45.385  1.00  0.00     0.169 A 
HETATM   24  N   UNL     1     -45.207  63.230 -45.183  1.00  0.00    -0.156 NA
HETATM   25  N   UNL     1     -44.511  63.403 -44.047  1.00  0.00    -0.270 N 
HETATM   26  H   UNL     1     -44.441  64.329 -43.639  1.00  0.00     0.190 HD
HETATM   27  C   UNL     1     -43.983  62.231 -43.607  1.00  0.00     0.227 A 
HETATM   28  N   UNL     1     -44.310  61.265 -44.431  1.00  0.00    -0.223 NA
ENDBRANCH  21  23
ENDBRANCH   1  21
TORSDOF 6
ENDMDL
MODEL 6
REMARK VINA RESULT:      -7.2      5.731      8.217
REMARK  6 active torsions:
REMARK  status: ('A' for Active; 'I' for Inactive)
REMARK    1  A    between atoms: C_2  and  N_3 
REMARK    2  A    between atoms: C_2  and  C_21 
REMARK       I    between atoms: N_3  and  C_4 
REMARK       I    between atoms: C_4  and  N_5 
REMARK    3  A    between atoms: N_5  and  C_6 
REMARK    4  A    between atoms: C_6  and  C_7 
REMARK    5  A    between atoms: C_10  and  O_11 
REMARK    6  A    between atoms: O_11  and  C_12 
ROOT
HETATM    1  N   UNL     1     -45.430  59.809 -50.050  1.00  0.00    -0.332 N 
HETATM    2  C   UNL     1     -44.908  59.630 -51.295  1.00  0.00     0.317 C 
HETATM    3  N   UNL     1     -45.210  58.393 -51.796  1.00  0.00    -0.339 N 
HETATM    4  O   UNL     1     -44.241  60.466 -51.888  1.00  0.00    -0.247 OA
HETATM    5  H   UNL     1     -46.190  59.217 -49.747  1.00  0.00     0.165 HD
HETATM    6  H   UNL     1     -45.373  57.676 -51.106  1.00  0.00     0.164 HD
ENDROOT
BRANCH   3   7
HETATM    7  C   UNL     1     -44.619  57.972 -53.043  1.00  0.00     0.162 C 
BRANCH   7   8
HETATM    8  C   UNL     1     -43.825  56.707 -52.863  1.00  0.00    -0.040 A 
HETATM    9  C   UNL     1     -42.964  56.555 -51.768  1.00  0.00     0.011 A 
HETATM   10  C   UNL     1     -42.214  55.383 -51.604  1.00  0.00     0.037 A 
HETATM   11  C   UNL     1     -42.307  54.354 -52.538  1.00  0.00     0.069 A 
HETATM   12  C   UNL     1     -43.152  54.511 -53.639  1.00  0.00     0.037 A 
HETATM   13  C   UNL     1     -43.904  55.676 -53.805  1.00  0.00     0.011 A 
BRANCH  11  14
HETATM   14  O   UNL     1     -41.643  53.160 -52.506  1.00  0.00    -0.346 OA
BRANCH  14  15
HETATM   15  C   UNL     1     -40.230  53.129 -52.737  1.00  0.00     0.129 C 
HETATM   16  C   UNL     1     -39.529  52.238 -51.701  1.00  0.00     0.032 C 
HETATM   17  C   UNL     1     -39.962  50.776 -51.808  1.00  0.00     0.002 C 
HETATM   18  C   UNL     1     -39.756  50.231 -53.218  1.00  0.00     0.000 C 
HETATM   19  C   UNL     1     -40.443  51.100 -54.265  1.00  0.00     0.002 C 
HETATM   20  C   UNL     1     -40.016  52.564 -54.151  1.00  0.00     0.032 C 
ENDBRANCH  14  15
ENDBRANCH  11  14
ENDBRANCH   7   8
ENDBRANCH   3   7
BRANCH   1  21
HETATM   21  C   UNL     1     -45.272  61.057 -49.312  1.00  0.00     0.155 C 
HETATM   22  C   UNL     1     -46.290  62.104 -49.761  1.00  0.00     0.041 C 
BRANCH  21  23
HETATM   23  C   UNL     1     -45.415  60.758 -47.843  1.00  0.00     0.169 A 
HETATM   24  N   UNL     1     -46.253  59.820 -47.360  1.00  0.00    -0.156 NA
HETATM   25  N   UNL     1     -46.030  59.919 -46.039  1.00  0.00    -0.270 N 
HETATM   26  H   UNL     1     -46.535  59.315 -45.400  1.00  0.00     0.190 HD
HETATM   27  C   UNL     1     -45.104  60.873 -45.764  1.00  0.00     0.227 A 
HETATM   28  N   UNL     1     -44.697  61.426 -46.881  1.00  0.00    -0.223 NA
ENDBRANCH  21  23
ENDBRANCH   1  21
TORSDOF 6
ENDMDL
MODEL 7
REMARK VINA RESULT:      -7.1     15.368     18.572
REMARK  6 active torsions:
REMARK  status: ('A' for Active; 'I' for Inactive)
REMARK    1  A    between atoms: C_2  and  N_3 
REMARK    2  A    between atoms: C_2  and  C_21 
REMARK       I    between atoms: N_3  and  C_4 
REMARK       I    between atoms: C_4  and  N_5 
REMARK    3  A    between atoms: N_5  and  C_6 
REMARK    4  A    between atoms: C_6  and  C_7 
REMARK    5  A    between atoms: C_10  and  O_11 
REMARK    6  A    between atoms: O_11  and  C_12 
ROOT
HETATM    1  N   UNL     1     -34.714  40.874 -52.618  1.00  0.00    -0.332 N 
HETATM    2  C   UNL     1     -35.365  41.770 -53.411  1.00  0.00     0.317 C 
HETATM    3  N   UNL     1     -35.250  41.448 -54.736  1.00  0.00    -0.339 N 
HETATM    4  O   UNL     1     -35.968  42.748 -52.992  1.00  0.00    -0.247 OA
HETATM    5  H   UNL     1     -34.493  39.961 -52.989  1.00  0.00     0.165 HD
HETATM    6  H   UNL     1     -34.429  40.917 -54.982  1.00  0.00     0.164 HD
ENDROOT
BRANCH   3   7
HETATM    7  C   UNL     1     -35.753  42.364 -55.732  1.00  0.00     0.162 C 
BRANCH   7   8
HETATM    8  C   UNL     1     -36.584  41.641 -56.756  1.00  0.00    -0.040 A 
HETATM    9  C   UNL     1     -36.613  42.076 -58.087  1.00  0.00     0.011 A 
HETATM   10  C   UNL     1     -37.396  41.411 -59.041  1.00  0.00     0.037 A 
HETATM   11  C   UNL     1     -38.168  40.312 -58.672  1.00  0.00     0.069 A 
HETATM   12  C   UNL     1     -38.154  39.888 -57.342  1.00  0.00     0.037 A 
HETATM   13  C   UNL     1     -37.372  40.544 -56.388  1.00  0.00     0.011 A 
BRANCH  11  14
HETATM   14  O   UNL     1     -38.972  39.569 -59.490  1.00  0.00    -0.346 OA
BRANCH  14  15
HETATM   15  C   UNL     1     -38.711  38.170 -59.659  1.00  0.00     0.129 C 
HETATM   16  C   UNL     1     -39.970  37.438 -60.143  1.00  0.00     0.032 C 
HETATM   17  C   UNL     1     -40.419  37.909 -61.526  1.00  0.00     0.002 C 
HETATM   18  C   UNL     1     -39.296  37.789 -62.552  1.00  0.00     0.000 C 
HETATM   19  C   UNL     1     -38.033  38.509 -62.093  1.00  0.00     0.002 C 
HETATM   20  C   UNL     1     -37.591  38.043 -60.705  1.00  0.00     0.032 C 
ENDBRANCH  14  15
ENDBRANCH  11  14
ENDBRANCH   7   8
ENDBRANCH   3   7
BRANCH   1  21
HETATM   21  C   UNL     1     -34.713  40.980 -51.164  1.00  0.00     0.155 C 
HETATM   22  C   UNL     1     -35.881  40.214 -50.546  1.00  0.00     0.041 C 
BRANCH  21  23
HETATM   23  C   UNL     1     -33.395  40.459 -50.654  1.00  0.00     0.169 A 
HETATM   24  N   UNL     1     -32.233  40.618 -51.317  1.00  0.00    -0.156 NA
HETATM   25  N   UNL     1     -31.368  40.007 -50.490  1.00  0.00    -0.270 N 
HETATM   26  H   UNL     1     -30.385  39.969 -50.734  1.00  0.00     0.190 HD
HETATM   27  C   UNL     1     -31.999  39.512 -49.394  1.00  0.00     0.227 A 
HETATM   28  N   UNL     1     -33.281  39.776 -49.467  1.00  0.00    -0.223 NA
ENDBRANCH  21  23
ENDBRANCH   1  21
TORSDOF 6
ENDMDL
MODEL 8
REMARK VINA RESULT:      -6.8      6.546      8.760
REMARK  6 active torsions:
REMARK  status: ('A' for Active; 'I' for Inactive)
REMARK    1  A    between atoms: C_2  and  N_3 
REMARK    2  A    between atoms: C_2  and  C_21 
REMARK       I    between atoms: N_3  and  C_4 
REMARK       I    between atoms: C_4  and  N_5 
REMARK    3  A    between atoms: N_5  and  C_6 
REMARK    4  A    between atoms: C_6  and  C_7 
REMARK    5  A    between atoms: C_10  and  O_11 
REMARK    6  A    between atoms: O_11  and  C_12 
ROOT
HETATM    1  N   UNL     1     -44.886  61.093 -49.735  1.00  0.00    -0.332 N 
HETATM    2  C   UNL     1     -43.607  61.174 -50.196  1.00  0.00     0.317 C 
HETATM    3  N   UNL     1     -43.139  59.954 -50.603  1.00  0.00    -0.339 N 
HETATM    4  O   UNL     1     -42.953  62.207 -50.231  1.00  0.00    -0.247 OA
HETATM    5  H   UNL     1     -45.452  60.298 -49.997  1.00  0.00     0.165 HD
HETATM    6  H   UNL     1     -43.565  59.157 -50.156  1.00  0.00     0.164 HD
ENDROOT
BRANCH   3   7
HETATM    7  C   UNL     1     -41.753  59.821 -50.986  1.00  0.00     0.162 C 
BRANCH   7   8
HETATM    8  C   UNL     1     -41.479  58.452 -51.544  1.00  0.00    -0.040 A 
HETATM    9  C   UNL     1     -41.424  57.335 -50.699  1.00  0.00     0.011 A 
HETATM   10  C   UNL     1     -41.156  56.060 -51.214  1.00  0.00     0.037 A 
HETATM   11  C   UNL     1     -40.928  55.887 -52.577  1.00  0.00     0.069 A 
HETATM   12  C   UNL     1     -40.965  57.001 -53.418  1.00  0.00     0.037 A 
HETATM   13  C   UNL     1     -41.236  58.274 -52.910  1.00  0.00     0.011 A 
BRANCH  11  14
HETATM   14  O   UNL     1     -40.661  54.710 -53.217  1.00  0.00    -0.346 OA
BRANCH  14  15
HETATM   15  C   UNL     1     -41.518  53.581 -53.010  1.00  0.00     0.129 C 
HETATM   16  C   UNL     1     -41.457  52.625 -54.211  1.00  0.00     0.032 C 
HETATM   17  C   UNL     1     -40.067  52.017 -54.396  1.00  0.00     0.002 C 
HETATM   18  C   UNL     1     -39.585  51.321 -53.126  1.00  0.00     0.000 C 
HETATM   19  C   UNL     1     -39.637  52.251 -51.919  1.00  0.00     0.002 C 
HETATM   20  C   UNL     1     -41.026  52.866 -51.741  1.00  0.00     0.032 C 
ENDBRANCH  14  15
ENDBRANCH  11  14
ENDBRANCH   7   8
ENDBRANCH   3   7
BRANCH   1  21
HETATM   21  C   UNL     1     -45.621  62.263 -49.270  1.00  0.00     0.155 C 
HETATM   22  C   UNL     1     -46.664  62.711 -50.293  1.00  0.00     0.041 C 
BRANCH  21  23
HETATM   23  C   UNL     1     -46.267  61.922 -47.954  1.00  0.00     0.169 A 
HETATM   24  N   UNL     1     -47.455  62.424 -47.563  1.00  0.00    -0.156 NA
HETATM   25  N   UNL     1     -47.608  61.843 -46.362  1.00  0.00    -0.270 N 
HETATM   26  H   UNL     1     -48.439  62.038 -45.814  1.00  0.00     0.190 HD
HETATM   27  C   UNL     1     -46.556  61.039 -46.064  1.00  0.00     0.227 A 
HETATM   28  N   UNL     1     -45.688  61.068 -47.046  1.00  0.00    -0.223 NA
ENDBRANCH  21  23
ENDBRANCH   1  21
TORSDOF 6
ENDMDL
MODEL 9
REMARK VINA RESULT:      -6.8      4.586      9.509
REMARK  6 active torsions:
REMARK  status: ('A' for Active; 'I' for Inactive)
REMARK    1  A    between atoms: C_2  and  N_3 
REMARK    2  A    between atoms: C_2  and  C_21 
REMARK       I    between atoms: N_3  and  C_4 
REMARK       I    between atoms: C_4  and  N_5 
REMARK    3  A    between atoms: N_5  and  C_6 
REMARK    4  A    between atoms: C_6  and  C_7 
REMARK    5  A    between atoms: C_10  and  O_11 
REMARK    6  A    between atoms: O_11  and  C_12 
ROOT
HETATM    1  N   UNL     1     -41.865  53.904 -50.655  1.00  0.00    -0.332 N 
HETATM    2  C   UNL     1     -42.166  55.174 -51.044  1.00  0.00     0.317 C 
HETATM    3  N   UNL     1     -43.450  55.269 -51.508  1.00  0.00    -0.339 N 
HETATM    4  O   UNL     1     -41.383  56.112 -50.996  1.00  0.00    -0.247 OA
HETATM    5  H   UNL     1     -42.618  53.262 -50.451  1.00  0.00     0.165 HD
HETATM    6  H   UNL     1     -43.835  54.419 -51.890  1.00  0.00     0.164 HD
ENDROOT
BRANCH   3   7
HETATM    7  C   UNL     1     -43.899  56.507 -52.098  1.00  0.00     0.162 C 
BRANCH   7   8
HETATM    8  C   UNL     1     -43.523  56.577 -53.553  1.00  0.00    -0.040 A 
HETATM    9  C   UNL     1     -43.553  55.427 -54.353  1.00  0.00     0.011 A 
HETATM   10  C   UNL     1     -43.191  55.486 -55.706  1.00  0.00     0.037 A 
HETATM   11  C   UNL     1     -42.783  56.692 -56.271  1.00  0.00     0.069 A 
HETATM   12  C   UNL     1     -42.735  57.835 -55.470  1.00  0.00     0.037 A 
HETATM   13  C   UNL     1     -43.098  57.782 -54.123  1.00  0.00     0.011 A 
BRANCH  11  14
HETATM   14  O   UNL     1     -42.408  56.899 -57.568  1.00  0.00    -0.346 OA
BRANCH  14  15
HETATM   15  C   UNL     1     -43.241  56.425 -58.632  1.00  0.00     0.129 C 
HETATM   16  C   UNL     1     -44.498  57.297 -58.767  1.00  0.00     0.032 C 
HETATM   17  C   UNL     1     -44.164  58.735 -59.162  1.00  0.00     0.002 C 
HETATM   18  C   UNL     1     -43.329  58.788 -60.437  1.00  0.00     0.000 C 
HETATM   19  C   UNL     1     -42.075  57.929 -60.326  1.00  0.00     0.002 C 
HETATM   20  C   UNL     1     -42.410  56.493 -59.923  1.00  0.00     0.032 C 
ENDBRANCH  14  15
ENDBRANCH  11  14
ENDBRANCH   7   8
ENDBRANCH   3   7
BRANCH   1  21
HETATM   21  C   UNL     1     -40.566  53.549 -50.096  1.00  0.00     0.155 C 
HETATM   22  C   UNL     1     -40.601  53.531 -48.569  1.00  0.00     0.041 C 
BRANCH  21  23
HETATM   23  C   UNL     1     -40.168  52.204 -50.644  1.00  0.00     0.169 A 
HETATM   24  N   UNL     1     -39.640  52.035 -51.872  1.00  0.00    -0.156 NA
HETATM   25  N   UNL     1     -39.452  50.705 -51.901  1.00  0.00    -0.270 N 
HETATM   26  H   UNL     1     -39.053  50.275 -52.728  1.00  0.00     0.190 HD
HETATM   27  C   UNL     1     -39.854  50.124 -50.741  1.00  0.00     0.227 A 
HETATM   28  N   UNL     1     -40.315  51.042 -49.926  1.00  0.00    -0.223 NA
ENDBRANCH  21  23
ENDBRANCH   1  21
TORSDOF 6
ENDMDL
MODEL 10
REMARK VINA RESULT:      -6.7     15.698     19.033
REMARK  6 active torsions:
REMARK  status: ('A' for Active; 'I' for Inactive)
REMARK    1  A    between atoms: C_2  and  N_3 
REMARK    2  A    between atoms: C_2  and  C_21 
REMARK       I    between atoms: N_3  and  C_4 
REMARK       I    between atoms: C_4  and  N_5 
REMARK    3  A    between atoms: N_5  and  C_6 
REMARK    4  A    between atoms: C_6  and  C_7 
REMARK    5  A    between atoms: C_10  and  O_11 
REMARK    6  A    between atoms: O_11  and  C_12 
ROOT
HETATM    1  N   UNL     1     -33.244  40.159 -51.768  1.00  0.00    -0.332 N 
HETATM    2  C   UNL     1     -34.505  40.479 -52.169  1.00  0.00     0.317 C 
HETATM    3  N   UNL     1     -34.563  41.742 -52.693  1.00  0.00    -0.339 N 
HETATM    4  O   UNL     1     -35.470  39.736 -52.062  1.00  0.00    -0.247 OA
HETATM    5  H   UNL     1     -32.463  40.682 -52.139  1.00  0.00     0.165 HD
HETATM    6  H   UNL     1     -33.861  42.382 -52.355  1.00  0.00     0.164 HD
ENDROOT
BRANCH   3   7
HETATM    7  C   UNL     1     -35.846  42.307 -53.036  1.00  0.00     0.162 C 
BRANCH   7   8
HETATM    8  C   UNL     1     -36.219  41.969 -54.453  1.00  0.00    -0.040 A 
HETATM    9  C   UNL     1     -35.360  42.288 -55.513  1.00  0.00     0.011 A 
HETATM   10  C   UNL     1     -35.711  41.986 -56.836  1.00  0.00     0.037 A 
HETATM   11  C   UNL     1     -36.930  41.373 -57.116  1.00  0.00     0.069 A 
HETATM   12  C   UNL     1     -37.796  41.072 -56.062  1.00  0.00     0.037 A 
HETATM   13  C   UNL     1     -37.449  41.367 -54.742  1.00  0.00     0.011 A 
BRANCH  11  14
HETATM   14  O   UNL     1     -37.401  41.018 -58.348  1.00  0.00    -0.346 OA
BRANCH  14  15
HETATM   15  C   UNL     1     -36.629  40.140 -59.176  1.00  0.00     0.129 C 
HETATM   16  C   UNL     1     -36.285  38.847 -58.423  1.00  0.00     0.032 C 
HETATM   17  C   UNL     1     -37.530  38.035 -58.067  1.00  0.00     0.002 C 
HETATM   18  C   UNL     1     -38.375  37.733 -59.302  1.00  0.00     0.000 C 
HETATM   19  C   UNL     1     -38.729  39.003 -60.067  1.00  0.00     0.002 C 
HETATM   20  C   UNL     1     -37.482  39.819 -60.413  1.00  0.00     0.032 C 
ENDBRANCH  14  15
ENDBRANCH  11  14
ENDBRANCH   7   8
ENDBRANCH   3   7
BRANCH   1  21
HETATM   21  C   UNL     1     -32.915  38.856 -51.202  1.00  0.00     0.155 C 
HETATM   22  C   UNL     1     -31.971  38.073 -52.112  1.00  0.00     0.041 C 
BRANCH  21  23
HETATM   23  C   UNL     1     -32.300  39.073 -49.844  1.00  0.00     0.169 A 
HETATM   24  N   UNL     1     -31.233  39.868 -49.637  1.00  0.00    -0.156 NA
HETATM   25  N   UNL     1     -31.064  39.748 -48.310  1.00  0.00    -0.270 N 
HETATM   26  H   UNL     1     -30.311  40.251 -47.854  1.00  0.00     0.190 HD
HETATM   27  C   UNL     1     -31.991  38.917 -47.767  1.00  0.00     0.227 A 
HETATM   28  N   UNL     1     -32.786  38.470 -48.709  1.00  0.00    -0.223 NA
ENDBRANCH  21  23
ENDBRANCH   1  21
TORSDOF 6
ENDMDL
