MODEL 1
REMARK VINA RESULT:      -7.6      0.000      0.000
REMARK  5 active torsions:
REMARK  status: ('A' for Active; 'I' for Inactive)
REMARK    1  A    between atoms: C_2  and  O_3 
REMARK    2  A    between atoms: O_3  and  C_4 
REMARK    3  A    between atoms: C_9  and  C_10 
REMARK       I    between atoms: C_10  and  N_11 
REMARK    4  A    between atoms: N_11  and  C_12 
REMARK    5  A    between atoms: C_12  and  C_13 
ROOT
HETATM    1  C   UNL     1     -40.646  53.513 -54.022  1.00  0.00     0.256 C 
HETATM    2  N   UNL     1     -41.847  54.025 -53.601  1.00  0.00    -0.348 N 
HETATM    3  O   UNL     1     -39.927  54.099 -54.827  1.00  0.00    -0.267 OA
HETATM    4  H   UNL     1     -42.376  53.517 -52.899  1.00  0.00     0.163 HD
ENDROOT
BRANCH   1   5
HETATM    5  C   UNL     1     -40.231  52.184 -53.487  1.00  0.00     0.084 A 
HETATM    6  C   UNL     1     -39.767  51.947 -52.191  1.00  0.00     0.180 A 
HETATM    7  N   UNL     1     -39.411  50.719 -51.735  1.00  0.00    -0.236 NA
HETATM    8  C   UNL     1     -39.517  49.684 -52.595  1.00  0.00     0.119 A 
HETATM    9  C   UNL     1     -39.960  49.812 -53.897  1.00  0.00     0.020 A 
HETATM   10  C   UNL     1     -40.319  51.080 -54.347  1.00  0.00     0.023 A 
BRANCH   6  11
HETATM   11  O   UNL     1     -39.652  53.015 -51.322  1.00  0.00    -0.334 OA
BRANCH  11  12
HETATM   12  C   UNL     1     -40.419  52.883 -50.123  1.00  0.00     0.173 C 
HETATM   13  C   UNL     1     -40.025  54.021 -49.198  1.00  0.00     0.034 C 
ENDBRANCH  11  12
ENDBRANCH   6  11
ENDBRANCH   1   5
BRANCH   2  14
HETATM   14  C   UNL     1     -42.369  55.303 -54.047  1.00  0.00     0.114 C 
HETATM   15  C   UNL     1     -42.152  55.488 -55.550  1.00  0.00     0.037 C 
BRANCH  14  16
HETATM   16  C   UNL     1     -41.755  56.402 -53.193  1.00  0.00    -0.036 A 
HETATM   17  C   UNL     1     -41.128  57.527 -53.750  1.00  0.00     0.010 A 
HETATM   18  C   UNL     1     -40.528  58.489 -52.933  1.00  0.00     0.019 A 
HETATM   19  C   UNL     1     -40.538  58.325 -51.549  1.00  0.00     0.011 A 
HETATM   20 BR   UNL     1     -39.714  59.619 -50.446  1.00  0.00    -0.051 Br
HETATM   21  C   UNL     1     -41.139  57.209 -50.976  1.00  0.00     0.019 A 
HETATM   22  C   UNL     1     -41.741  56.250 -51.796  1.00  0.00     0.010 A 
ENDBRANCH  14  16
ENDBRANCH   2  14
TORSDOF 5
ENDMDL
MODEL 2
REMARK VINA RESULT:      -7.4      3.459      6.721
REMARK  5 active torsions:
REMARK  status: ('A' for Active; 'I' for Inactive)
REMARK    1  A    between atoms: C_2  and  O_3 
REMARK    2  A    between atoms: O_3  and  C_4 
REMARK    3  A    between atoms: C_9  and  C_10 
REMARK       I    between atoms: C_10  and  N_11 
REMARK    4  A    between atoms: N_11  and  C_12 
REMARK    5  A    between atoms: C_12  and  C_13 
ROOT
HETATM    1  C   UNL     1     -42.344  56.455 -51.841  1.00  0.00     0.256 C 
HETATM    2  N   UNL     1     -41.172  55.784 -51.599  1.00  0.00    -0.348 N 
HETATM    3  O   UNL     1     -43.432  56.041 -51.452  1.00  0.00    -0.267 OA
HETATM    4  H   UNL     1     -40.298  56.199 -51.906  1.00  0.00     0.163 HD
ENDROOT
BRANCH   1   5
HETATM    5  C   UNL     1     -42.270  57.720 -52.628  1.00  0.00     0.084 A 
HETATM    6  C   UNL     1     -41.279  58.694 -52.496  1.00  0.00     0.180 A 
HETATM    7  N   UNL     1     -41.237  59.829 -53.242  1.00  0.00    -0.236 NA
HETATM    8  C   UNL     1     -42.216  60.006 -54.155  1.00  0.00     0.119 A 
HETATM    9  C   UNL     1     -43.243  59.106 -54.362  1.00  0.00     0.020 A 
HETATM   10  C   UNL     1     -43.269  57.950 -53.586  1.00  0.00     0.023 A 
BRANCH   6  11
HETATM   11  O   UNL     1     -40.288  58.508 -51.551  1.00  0.00    -0.334 OA
BRANCH  11  12
HETATM   12  C   UNL     1     -40.210  59.544 -50.569  1.00  0.00     0.173 C 
HETATM   13  C   UNL     1     -38.740  59.791 -50.278  1.00  0.00     0.034 C 
ENDBRANCH  11  12
ENDBRANCH   6  11
ENDBRANCH   1   5
BRANCH   2  14
HETATM   14  C   UNL     1     -41.105  54.543 -50.850  1.00  0.00     0.114 C 
HETATM   15  C   UNL     1     -40.221  54.698 -49.611  1.00  0.00     0.037 C 
BRANCH  14  16
HETATM   16  C   UNL     1     -40.664  53.433 -51.791  1.00  0.00    -0.036 A 
HETATM   17  C   UNL     1     -41.004  53.420 -53.153  1.00  0.00     0.010 A 
HETATM   18  C   UNL     1     -40.626  52.354 -53.974  1.00  0.00     0.019 A 
HETATM   19  C   UNL     1     -39.915  51.284 -53.435  1.00  0.00     0.011 A 
HETATM   20 BR   UNL     1     -39.415  49.837 -54.543  1.00  0.00    -0.051 Br
HETATM   21  C   UNL     1     -39.581  51.267 -52.084  1.00  0.00     0.019 A 
HETATM   22  C   UNL     1     -39.959  52.336 -51.266  1.00  0.00     0.010 A 
ENDBRANCH  14  16
ENDBRANCH   2  14
TORSDOF 5
ENDMDL
MODEL 3
REMARK VINA RESULT:      -7.4      3.192      6.879
REMARK  5 active torsions:
REMARK  status: ('A' for Active; 'I' for Inactive)
REMARK    1  A    between atoms: C_2  and  O_3 
REMARK    2  A    between atoms: O_3  and  C_4 
REMARK    3  A    between atoms: C_9  and  C_10 
REMARK       I    between atoms: C_10  and  N_11 
REMARK    4  A    between atoms: N_11  and  C_12 
REMARK    5  A    between atoms: C_12  and  C_13 
ROOT
HETATM    1  C   UNL     1     -42.139  56.557 -51.297  1.00  0.00     0.256 C 
HETATM    2  N   UNL     1     -41.027  55.753 -51.332  1.00  0.00    -0.348 N 
HETATM    3  O   UNL     1     -43.155  56.249 -50.680  1.00  0.00    -0.267 OA
HETATM    4  H   UNL     1     -40.201  56.082 -51.821  1.00  0.00     0.163 HD
ENDROOT
BRANCH   1   5
HETATM    5  C   UNL     1     -42.096  57.835 -52.063  1.00  0.00     0.084 A 
HETATM    6  C   UNL     1     -41.698  57.963 -53.396  1.00  0.00     0.180 A 
HETATM    7  N   UNL     1     -41.685  59.144 -54.065  1.00  0.00    -0.236 NA
HETATM    8  C   UNL     1     -42.081  60.244 -53.390  1.00  0.00     0.119 A 
HETATM    9  C   UNL     1     -42.488  60.226 -52.069  1.00  0.00     0.020 A 
HETATM   10  C   UNL     1     -42.493  59.006 -51.400  1.00  0.00     0.023 A 
BRANCH   6  11
HETATM   11  O   UNL     1     -41.285  56.833 -54.076  1.00  0.00    -0.334 OA
BRANCH  11  12
HETATM   12  C   UNL     1     -42.050  56.540 -55.248  1.00  0.00     0.173 C 
HETATM   13  C   UNL     1     -43.251  55.717 -54.817  1.00  0.00     0.034 C 
ENDBRANCH  11  12
ENDBRANCH   6  11
ENDBRANCH   1   5
BRANCH   2  14
HETATM   14  C   UNL     1     -40.941  54.484 -50.634  1.00  0.00     0.114 C 
HETATM   15  C   UNL     1     -39.992  54.581 -49.438  1.00  0.00     0.037 C 
BRANCH  14  16
HETATM   16  C   UNL     1     -40.564  53.404 -51.637  1.00  0.00    -0.036 A 
HETATM   17  C   UNL     1     -40.904  53.487 -52.996  1.00  0.00     0.010 A 
HETATM   18  C   UNL     1     -40.587  52.448 -53.877  1.00  0.00     0.019 A 
HETATM   19  C   UNL     1     -39.937  51.311 -53.401  1.00  0.00     0.011 A 
HETATM   20 BR   UNL     1     -39.521  49.903 -54.590  1.00  0.00    -0.051 Br
HETATM   21  C   UNL     1     -39.604  51.201 -52.054  1.00  0.00     0.019 A 
HETATM   22  C   UNL     1     -39.921  52.242 -51.177  1.00  0.00     0.010 A 
ENDBRANCH  14  16
ENDBRANCH   2  14
TORSDOF 5
ENDMDL
MODEL 4
REMARK VINA RESULT:      -7.1      3.573      6.767
REMARK  5 active torsions:
REMARK  status: ('A' for Active; 'I' for Inactive)
REMARK    1  A    between atoms: C_2  and  O_3 
REMARK    2  A    between atoms: O_3  and  C_4 
REMARK    3  A    between atoms: C_9  and  C_10 
REMARK       I    between atoms: C_10  and  N_11 
REMARK    4  A    between atoms: N_11  and  C_12 
REMARK    5  A    between atoms: C_12  and  C_13 
ROOT
HETATM    1  C   UNL     1     -42.699  56.828 -53.495  1.00  0.00     0.256 C 
HETATM    2  N   UNL     1     -41.578  56.233 -52.974  1.00  0.00    -0.348 N 
HETATM    3  O   UNL     1     -43.833  56.519 -53.141  1.00  0.00    -0.267 OA
HETATM    4  H   UNL     1     -40.665  56.563 -53.272  1.00  0.00     0.163 HD
ENDROOT
BRANCH   1   5
HETATM    5  C   UNL     1     -42.508  57.870 -54.546  1.00  0.00     0.084 A 
HETATM    6  C   UNL     1     -41.819  59.072 -54.373  1.00  0.00     0.180 A 
HETATM    7  N   UNL     1     -41.654  59.991 -55.359  1.00  0.00    -0.236 NA
HETATM    8  C   UNL     1     -42.192  59.710 -56.564  1.00  0.00     0.119 A 
HETATM    9  C   UNL     1     -42.895  58.552 -56.838  1.00  0.00     0.020 A 
HETATM   10  C   UNL     1     -43.055  57.623 -55.814  1.00  0.00     0.023 A 
BRANCH   6  11
HETATM   11  O   UNL     1     -41.281  59.355 -53.132  1.00  0.00    -0.334 OA
BRANCH  11  12
HETATM   12  C   UNL     1     -42.085  60.218 -52.325  1.00  0.00     0.173 C 
HETATM   13  C   UNL     1     -42.244  59.559 -50.966  1.00  0.00     0.034 C 
ENDBRANCH  11  12
ENDBRANCH   6  11
ENDBRANCH   1   5
BRANCH   2  14
HETATM   14  C   UNL     1     -41.624  55.206 -51.951  1.00  0.00     0.114 C 
HETATM   15  C   UNL     1     -40.934  55.678 -50.670  1.00  0.00     0.037 C 
BRANCH  14  16
HETATM   16  C   UNL     1     -41.049  53.922 -52.528  1.00  0.00    -0.036 A 
HETATM   17  C   UNL     1     -41.358  53.471 -53.821  1.00  0.00     0.010 A 
HETATM   18  C   UNL     1     -40.852  52.258 -54.295  1.00  0.00     0.019 A 
HETATM   19  C   UNL     1     -40.041  51.477 -53.473  1.00  0.00     0.011 A 
HETATM   20 BR   UNL     1     -39.368  49.831 -54.111  1.00  0.00    -0.051 Br
HETATM   21  C   UNL     1     -39.734  51.896 -52.182  1.00  0.00     0.019 A 
HETATM   22  C   UNL     1     -40.240  53.111 -51.712  1.00  0.00     0.010 A 
ENDBRANCH  14  16
ENDBRANCH   2  14
TORSDOF 5
ENDMDL
MODEL 5
REMARK VINA RESULT:      -7.1      3.340      6.128
REMARK  5 active torsions:
REMARK  status: ('A' for Active; 'I' for Inactive)
REMARK    1  A    between atoms: C_2  and  O_3 
REMARK    2  A    between atoms: O_3  and  C_4 
REMARK    3  A    between atoms: C_9  and  C_10 
REMARK       I    between atoms: C_10  and  N_11 
REMARK    4  A    between atoms: N_11  and  C_12 
REMARK    5  A    between atoms: C_12  and  C_13 
ROOT
HETATM    1  C   UNL     1     -41.823  56.857 -53.154  1.00  0.00     0.256 C 
HETATM    2  N   UNL     1     -41.852  55.539 -53.534  1.00  0.00    -0.348 N 
HETATM    3  O   UNL     1     -40.870  57.591 -53.399  1.00  0.00    -0.267 OA
HETATM    4  H   UNL     1     -42.687  54.993 -53.344  1.00  0.00     0.163 HD
ENDROOT
BRANCH   1   5
HETATM    5  C   UNL     1     -42.993  57.388 -52.397  1.00  0.00     0.084 A 
HETATM    6  C   UNL     1     -43.805  56.641 -51.542  1.00  0.00     0.180 A 
HETATM    7  N   UNL     1     -44.856  57.163 -50.858  1.00  0.00    -0.236 NA
HETATM    8  C   UNL     1     -45.114  58.477 -51.027  1.00  0.00     0.119 A 
HETATM    9  C   UNL     1     -44.375  59.303 -51.853  1.00  0.00     0.020 A 
HETATM   10  C   UNL     1     -43.302  58.748 -52.547  1.00  0.00     0.023 A 
BRANCH   6  11
HETATM   11  O   UNL     1     -43.540  55.294 -51.383  1.00  0.00    -0.334 OA
BRANCH  11  12
HETATM   12  C   UNL     1     -43.330  54.892 -50.027  1.00  0.00     0.173 C 
HETATM   13  C   UNL     1     -41.921  55.306 -49.640  1.00  0.00     0.034 C 
ENDBRANCH  11  12
ENDBRANCH   6  11
ENDBRANCH   1   5
BRANCH   2  14
HETATM   14  C   UNL     1     -40.778  54.898 -54.270  1.00  0.00     0.114 C 
HETATM   15  C   UNL     1     -41.169  54.687 -55.734  1.00  0.00     0.037 C 
BRANCH  14  16
HETATM   16  C   UNL     1     -40.387  53.622 -53.543  1.00  0.00    -0.036 A 
HETATM   17  C   UNL     1     -40.114  52.422 -54.220  1.00  0.00     0.010 A 
HETATM   18  C   UNL     1     -39.810  51.256 -53.513  1.00  0.00     0.019 A 
HETATM   19  C   UNL     1     -39.790  51.276 -52.120  1.00  0.00     0.011 A 
HETATM   20 BR   UNL     1     -39.391  49.695 -51.164  1.00  0.00    -0.051 Br
HETATM   21  C   UNL     1     -40.073  52.449 -51.427  1.00  0.00     0.019 A 
HETATM   22  C   UNL     1     -40.374  53.615 -52.137  1.00  0.00     0.010 A 
ENDBRANCH  14  16
ENDBRANCH   2  14
TORSDOF 5
ENDMDL
MODEL 6
REMARK VINA RESULT:      -7.1      1.863      3.203
REMARK  5 active torsions:
REMARK  status: ('A' for Active; 'I' for Inactive)
REMARK    1  A    between atoms: C_2  and  O_3 
REMARK    2  A    between atoms: O_3  and  C_4 
REMARK    3  A    between atoms: C_9  and  C_10 
REMARK       I    between atoms: C_10  and  N_11 
REMARK    4  A    between atoms: N_11  and  C_12 
REMARK    5  A    between atoms: C_12  and  C_13 
ROOT
HETATM    1  C   UNL     1     -40.816  53.376 -51.461  1.00  0.00     0.256 C 
HETATM    2  N   UNL     1     -42.121  53.785 -51.576  1.00  0.00    -0.348 N 
HETATM    3  O   UNL     1     -40.003  53.962 -50.752  1.00  0.00    -0.267 OA
HETATM    4  H   UNL     1     -42.758  53.234 -52.142  1.00  0.00     0.163 HD
ENDROOT
BRANCH   1   5
HETATM    5  C   UNL     1     -40.388  52.187 -52.253  1.00  0.00     0.084 A 
HETATM    6  C   UNL     1     -40.527  52.047 -53.635  1.00  0.00     0.180 A 
HETATM    7  N   UNL     1     -40.113  50.953 -54.325  1.00  0.00    -0.236 NA
HETATM    8  C   UNL     1     -39.538  49.957 -53.618  1.00  0.00     0.119 A 
HETATM    9  C   UNL     1     -39.357  49.994 -52.249  1.00  0.00     0.020 A 
HETATM   10  C   UNL     1     -39.791  51.124 -51.560  1.00  0.00     0.023 A 
BRANCH   6  11
HETATM   11  O   UNL     1     -41.127  53.069 -54.348  1.00  0.00    -0.334 OA
BRANCH  11  12
HETATM   12  C   UNL     1     -40.218  53.860 -55.117  1.00  0.00     0.173 C 
HETATM   13  C   UNL     1     -40.405  55.308 -54.697  1.00  0.00     0.034 C 
ENDBRANCH  11  12
ENDBRANCH   6  11
ENDBRANCH   1   5
BRANCH   2  14
HETATM   14  C   UNL     1     -42.663  54.927 -50.865  1.00  0.00     0.114 C 
HETATM   15  C   UNL     1     -44.074  54.632 -50.352  1.00  0.00     0.037 C 
BRANCH  14  16
HETATM   16  C   UNL     1     -42.574  56.148 -51.767  1.00  0.00    -0.036 A 
HETATM   17  C   UNL     1     -43.459  56.360 -52.836  1.00  0.00     0.010 A 
HETATM   18  C   UNL     1     -43.311  57.467 -53.677  1.00  0.00     0.019 A 
HETATM   19  C   UNL     1     -42.268  58.365 -53.463  1.00  0.00     0.011 A 
HETATM   20 BR   UNL     1     -42.062  59.854 -54.607  1.00  0.00    -0.051 Br
HETATM   21  C   UNL     1     -41.369  58.166 -52.419  1.00  0.00     0.019 A 
HETATM   22  C   UNL     1     -41.521  57.059 -51.579  1.00  0.00     0.010 A 
ENDBRANCH  14  16
ENDBRANCH   2  14
TORSDOF 5
ENDMDL
MODEL 7
REMARK VINA RESULT:      -7.0      2.777      3.693
REMARK  5 active torsions:
REMARK  status: ('A' for Active; 'I' for Inactive)
REMARK    1  A    between atoms: C_2  and  O_3 
REMARK    2  A    between atoms: O_3  and  C_4 
REMARK    3  A    between atoms: C_9  and  C_10 
REMARK       I    between atoms: C_10  and  N_11 
REMARK    4  A    between atoms: N_11  and  C_12 
REMARK    5  A    between atoms: C_12  and  C_13 
ROOT
HETATM    1  C   UNL     1     -40.601  53.924 -53.842  1.00  0.00     0.256 C 
HETATM    2  N   UNL     1     -41.777  54.447 -53.365  1.00  0.00    -0.348 N 
HETATM    3  O   UNL     1     -39.859  54.551 -54.592  1.00  0.00    -0.267 OA
HETATM    4  H   UNL     1     -42.327  53.899 -52.711  1.00  0.00     0.163 HD
ENDROOT
BRANCH   1   5
HETATM    5  C   UNL     1     -40.246  52.533 -53.437  1.00  0.00     0.084 A 
HETATM    6  C   UNL     1     -39.802  52.151 -52.170  1.00  0.00     0.180 A 
HETATM    7  N   UNL     1     -39.500  50.870 -51.835  1.00  0.00    -0.236 NA
HETATM    8  C   UNL     1     -39.644  49.929 -52.792  1.00  0.00     0.119 A 
HETATM    9  C   UNL     1     -40.071  50.203 -54.077  1.00  0.00     0.020 A 
HETATM   10  C   UNL     1     -40.374  51.522 -54.401  1.00  0.00     0.023 A 
BRANCH   6  11
HETATM   11  O   UNL     1     -39.648  53.124 -51.199  1.00  0.00    -0.334 OA
BRANCH  11  12
HETATM   12  C   UNL     1     -40.403  52.889 -50.008  1.00  0.00     0.173 C 
HETATM   13  C   UNL     1     -41.259  54.118 -49.760  1.00  0.00     0.034 C 
ENDBRANCH  11  12
ENDBRANCH   6  11
ENDBRANCH   1   5
BRANCH   2  14
HETATM   14  C   UNL     1     -42.241  55.784 -53.684  1.00  0.00     0.114 C 
HETATM   15  C   UNL     1     -43.443  56.167 -52.818  1.00  0.00     0.037 C 
BRANCH  14  16
HETATM   16  C   UNL     1     -42.505  55.862 -55.179  1.00  0.00    -0.036 A 
HETATM   17  C   UNL     1     -42.266  57.025 -55.928  1.00  0.00     0.010 A 
HETATM   18  C   UNL     1     -42.573  57.074 -57.290  1.00  0.00     0.019 A 
HETATM   19  C   UNL     1     -43.134  55.962 -57.914  1.00  0.00     0.011 A 
HETATM   20 BR   UNL     1     -43.560  56.034 -59.754  1.00  0.00    -0.051 Br
HETATM   21  C   UNL     1     -43.394  54.803 -57.189  1.00  0.00     0.019 A 
HETATM   22  C   UNL     1     -43.085  54.757 -55.827  1.00  0.00     0.010 A 
ENDBRANCH  14  16
ENDBRANCH   2  14
TORSDOF 5
ENDMDL
MODEL 8
REMARK VINA RESULT:      -7.0     13.794     15.310
REMARK  5 active torsions:
REMARK  status: ('A' for Active; 'I' for Inactive)
REMARK    1  A    between atoms: C_2  and  O_3 
REMARK    2  A    between atoms: O_3  and  C_4 
REMARK    3  A    between atoms: C_9  and  C_10 
REMARK       I    between atoms: C_10  and  N_11 
REMARK    4  A    between atoms: N_11  and  C_12 
REMARK    5  A    between atoms: C_12  and  C_13 
ROOT
HETATM    1  C   UNL     1     -35.066  41.566 -52.280  1.00  0.00     0.256 C 
HETATM    2  N   UNL     1     -36.044  40.931 -53.005  1.00  0.00    -0.348 N 
HETATM    3  O   UNL     1     -35.110  42.766 -52.026  1.00  0.00    -0.267 OA
HETATM    4  H   UNL     1     -35.976  39.928 -53.144  1.00  0.00     0.163 HD
ENDROOT
BRANCH   1   5
HETATM    5  C   UNL     1     -33.907  40.750 -51.815  1.00  0.00     0.084 A 
HETATM    6  C   UNL     1     -33.124  39.926 -52.626  1.00  0.00     0.180 A 
HETATM    7  N   UNL     1     -32.066  39.209 -52.169  1.00  0.00    -0.236 NA
HETATM    8  C   UNL     1     -31.770  39.310 -50.855  1.00  0.00     0.119 A 
HETATM    9  C   UNL     1     -32.483  40.093 -49.968  1.00  0.00     0.020 A 
HETATM   10  C   UNL     1     -33.566  40.820 -50.456  1.00  0.00     0.023 A 
BRANCH   6  11
HETATM   11  O   UNL     1     -33.442  39.821 -53.968  1.00  0.00    -0.334 OA
BRANCH  11  12
HETATM   12  C   UNL     1     -32.449  40.352 -54.849  1.00  0.00     0.173 C 
HETATM   13  C   UNL     1     -33.008  40.286 -56.260  1.00  0.00     0.034 C 
ENDBRANCH  11  12
ENDBRANCH   6  11
ENDBRANCH   1   5
BRANCH   2  14
HETATM   14  C   UNL     1     -37.220  41.608 -53.518  1.00  0.00     0.114 C 
HETATM   15  C   UNL     1     -38.497  41.019 -52.916  1.00  0.00     0.037 C 
BRANCH  14  16
HETATM   16  C   UNL     1     -37.176  41.569 -55.038  1.00  0.00    -0.036 A 
HETATM   17  C   UNL     1     -36.174  42.212 -55.780  1.00  0.00     0.010 A 
HETATM   18  C   UNL     1     -36.199  42.199 -57.177  1.00  0.00     0.019 A 
HETATM   19  C   UNL     1     -37.236  41.551 -57.845  1.00  0.00     0.011 A 
HETATM   20 BR   UNL     1     -37.277  41.544 -59.734  1.00  0.00    -0.051 Br
HETATM   21  C   UNL     1     -38.249  40.920 -57.130  1.00  0.00     0.019 A 
HETATM   22  C   UNL     1     -38.220  40.933 -55.732  1.00  0.00     0.010 A 
ENDBRANCH  14  16
ENDBRANCH   2  14
TORSDOF 5
ENDMDL
MODEL 9
REMARK VINA RESULT:      -6.9      3.499      6.445
REMARK  5 active torsions:
REMARK  status: ('A' for Active; 'I' for Inactive)
REMARK    1  A    between atoms: C_2  and  O_3 
REMARK    2  A    between atoms: O_3  and  C_4 
REMARK    3  A    between atoms: C_9  and  C_10 
REMARK       I    between atoms: C_10  and  N_11 
REMARK    4  A    between atoms: N_11  and  C_12 
REMARK    5  A    between atoms: C_12  and  C_13 
ROOT
HETATM    1  C   UNL     1     -41.666  57.172 -53.289  1.00  0.00     0.256 C 
HETATM    2  N   UNL     1     -41.726  55.807 -53.412  1.00  0.00    -0.348 N 
HETATM    3  O   UNL     1     -40.795  57.844 -53.833  1.00  0.00    -0.267 OA
HETATM    4  H   UNL     1     -42.497  55.310 -52.977  1.00  0.00     0.163 HD
ENDROOT
BRANCH   1   5
HETATM    5  C   UNL     1     -42.695  57.839 -52.440  1.00  0.00     0.084 A 
HETATM    6  C   UNL     1     -42.474  58.961 -51.638  1.00  0.00     0.180 A 
HETATM    7  N   UNL     1     -43.441  59.550 -50.888  1.00  0.00    -0.236 NA
HETATM    8  C   UNL     1     -44.676  59.007 -50.932  1.00  0.00     0.119 A 
HETATM    9  C   UNL     1     -44.998  57.896 -51.688  1.00  0.00     0.020 A 
HETATM   10  C   UNL     1     -43.992  57.306 -52.450  1.00  0.00     0.023 A 
BRANCH   6  11
HETATM   11  O   UNL     1     -41.203  59.503 -51.592  1.00  0.00    -0.334 OA
BRANCH  11  12
HETATM   12  C   UNL     1     -40.525  59.305 -50.350  1.00  0.00     0.173 C 
HETATM   13  C   UNL     1     -39.044  59.536 -50.595  1.00  0.00     0.034 C 
ENDBRANCH  11  12
ENDBRANCH   6  11
ENDBRANCH   1   5
BRANCH   2  14
HETATM   14  C   UNL     1     -40.786  55.037 -54.204  1.00  0.00     0.114 C 
HETATM   15  C   UNL     1     -41.341  54.768 -55.604  1.00  0.00     0.037 C 
BRANCH  14  16
HETATM   16  C   UNL     1     -40.418  53.779 -53.432  1.00  0.00    -0.036 A 
HETATM   17  C   UNL     1     -40.055  52.583 -54.070  1.00  0.00     0.010 A 
HETATM   18  C   UNL     1     -39.776  51.433 -53.326  1.00  0.00     0.019 A 
HETATM   19  C   UNL     1     -39.871  51.466 -51.936  1.00  0.00     0.011 A 
HETATM   20 BR   UNL     1     -39.506  49.908 -50.933  1.00  0.00    -0.051 Br
HETATM   21  C   UNL     1     -40.245  52.637 -51.284  1.00  0.00     0.019 A 
HETATM   22  C   UNL     1     -40.521  53.786 -52.030  1.00  0.00     0.010 A 
ENDBRANCH  14  16
ENDBRANCH   2  14
TORSDOF 5
ENDMDL
MODEL 10
REMARK VINA RESULT:      -6.8      3.418      6.817
REMARK  5 active torsions:
REMARK  status: ('A' for Active; 'I' for Inactive)
REMARK    1  A    between atoms: C_2  and  O_3 
REMARK    2  A    between atoms: O_3  and  C_4 
REMARK    3  A    between atoms: C_9  and  C_10 
REMARK       I    between atoms: C_10  and  N_11 
REMARK    4  A    between atoms: N_11  and  C_12 
REMARK    5  A    between atoms: C_12  and  C_13 
ROOT
HETATM    1  C   UNL     1     -41.529  57.235 -53.287  1.00  0.00     0.256 C 
HETATM    2  N   UNL     1     -41.709  55.891 -53.496  1.00  0.00    -0.348 N 
HETATM    3  O   UNL     1     -40.526  57.831 -53.669  1.00  0.00    -0.267 OA
HETATM    4  H   UNL     1     -42.580  55.462 -53.198  1.00  0.00     0.163 HD
ENDROOT
BRANCH   1   5
HETATM    5  C   UNL     1     -42.593  57.972 -52.546  1.00  0.00     0.084 A 
HETATM    6  C   UNL     1     -43.967  57.779 -52.706  1.00  0.00     0.180 A 
HETATM    7  N   UNL     1     -44.907  58.460 -52.001  1.00  0.00    -0.236 NA
HETATM    8  C   UNL     1     -44.471  59.369 -51.103  1.00  0.00     0.119 A 
HETATM    9  C   UNL     1     -43.136  59.638 -50.872  1.00  0.00     0.020 A 
HETATM   10  C   UNL     1     -42.187  58.930 -51.605  1.00  0.00     0.023 A 
BRANCH   6  11
HETATM   11  O   UNL     1     -44.403  56.854 -53.635  1.00  0.00    -0.334 OA
BRANCH  11  12
HETATM   12  C   UNL     1     -45.131  57.418 -54.729  1.00  0.00     0.173 C 
HETATM   13  C   UNL     1     -44.166  57.563 -55.893  1.00  0.00     0.034 C 
ENDBRANCH  11  12
ENDBRANCH   6  11
ENDBRANCH   1   5
BRANCH   2  14
HETATM   14  C   UNL     1     -40.751  55.058 -54.198  1.00  0.00     0.114 C 
HETATM   15  C   UNL     1     -41.216  54.775 -55.628  1.00  0.00     0.037 C 
BRANCH  14  16
HETATM   16  C   UNL     1     -40.496  53.809 -53.370  1.00  0.00    -0.036 A 
HETATM   17  C   UNL     1     -40.501  53.820 -51.966  1.00  0.00     0.010 A 
HETATM   18  C   UNL     1     -40.209  52.662 -51.241  1.00  0.00     0.019 A 
HETATM   19  C   UNL     1     -39.896  51.484 -51.914  1.00  0.00     0.011 A 
HETATM   20 BR   UNL     1     -39.488  49.922 -50.932  1.00  0.00    -0.051 Br
HETATM   21  C   UNL     1     -39.869  51.452 -53.305  1.00  0.00     0.019 A 
HETATM   22  C   UNL     1     -40.164  52.612 -54.028  1.00  0.00     0.010 A 
ENDBRANCH  14  16
ENDBRANCH   2  14
TORSDOF 5
ENDMDL
