MODEL 1
REMARK VINA RESULT:      -8.6      0.000      0.000
REMARK  3 active torsions:
REMARK  status: ('A' for Active; 'I' for Inactive)
REMARK    1  A    between atoms: C_9  and  C_10 
REMARK    2  A    between atoms: C_10  and  C_11 
REMARK       I    between atoms: C_11  and  N_12 
REMARK    3  A    between atoms: N_12  and  C_13 
ROOT
HETATM    1  C   UNL     1     -39.690  50.065 -53.979  1.00  0.00     0.001 A 
HETATM    2  C   UNL     1     -40.029  51.371 -54.345  1.00  0.00     0.014 A 
HETATM    3  C   UNL     1     -40.221  52.347 -53.357  1.00  0.00     0.006 A 
HETATM    4  C   UNL     1     -40.082  51.998 -52.015  1.00  0.00     0.046 A 
HETATM    5  C   UNL     1     -40.310  53.020 -50.982  1.00  0.00     0.272 A 
HETATM    6  O   UNL     1     -40.200  52.760 -49.789  1.00  0.00    -0.266 OA
HETATM    7  N   UNL     1     -40.655  54.268 -51.435  1.00  0.00    -0.243 N 
HETATM    8  N   UNL     1     -40.777  54.644 -52.734  1.00  0.00    -0.175 NA
HETATM    9  C   UNL     1     -40.567  53.761 -53.665  1.00  0.00     0.074 A 
HETATM   10  C   UNL     1     -39.742  50.690 -51.650  1.00  0.00     0.018 A 
HETATM   11  C   UNL     1     -39.543  49.726 -52.635  1.00  0.00     0.001 A 
HETATM   12  H   UNL     1     -40.824  54.983 -50.732  1.00  0.00     0.192 HD
ENDROOT
BRANCH   9  13
HETATM   13  C   UNL     1     -40.683  54.177 -55.117  1.00  0.00     0.165 C 
BRANCH  13  14
HETATM   14  C   UNL     1     -42.012  54.625 -55.698  1.00  0.00     0.228 C 
HETATM   15  N   UNL     1     -41.963  55.653 -56.612  1.00  0.00    -0.326 N 
HETATM   16  H   UNL     1     -41.085  56.172 -56.658  1.00  0.00     0.169 HD
HETATM   17  O   UNL     1     -43.024  54.001 -55.382  1.00  0.00    -0.273 OA
BRANCH  15  18
HETATM   18  C   UNL     1     -43.013  56.182 -57.402  1.00  0.00     0.052 A 
HETATM   19  C   UNL     1     -43.698  57.325 -56.950  1.00  0.00     0.037 A 
HETATM   20 BR   UNL     1     -43.256  58.177 -55.307  1.00  0.00    -0.049 Br
HETATM   21  C   UNL     1     -44.736  57.890 -57.701  1.00  0.00     0.021 A 
HETATM   22  C   UNL     1     -45.102  57.322 -58.918  1.00  0.00     0.002 A 
HETATM   23  C   UNL     1     -44.430  56.195 -59.381  1.00  0.00     0.002 A 
HETATM   24  C   UNL     1     -43.393  55.631 -58.630  1.00  0.00     0.031 A 
ENDBRANCH  15  18
ENDBRANCH  13  14
ENDBRANCH   9  13
TORSDOF 3
ENDMDL
MODEL 2
REMARK VINA RESULT:      -8.1      1.994      2.328
REMARK  3 active torsions:
REMARK  status: ('A' for Active; 'I' for Inactive)
REMARK    1  A    between atoms: C_9  and  C_10 
REMARK    2  A    between atoms: C_10  and  C_11 
REMARK       I    between atoms: C_11  and  N_12 
REMARK    3  A    between atoms: N_12  and  C_13 
ROOT
HETATM    1  C   UNL     1     -39.988  51.458 -54.063  1.00  0.00     0.001 A 
HETATM    2  C   UNL     1     -41.011  52.386 -54.278  1.00  0.00     0.014 A 
HETATM    3  C   UNL     1     -41.428  53.222 -53.234  1.00  0.00     0.006 A 
HETATM    4  C   UNL     1     -40.823  53.109 -51.984  1.00  0.00     0.046 A 
HETATM    5  C   UNL     1     -41.283  53.971 -50.884  1.00  0.00     0.272 A 
HETATM    6  O   UNL     1     -40.781  53.907 -49.768  1.00  0.00    -0.266 OA
HETATM    7  N   UNL     1     -42.303  54.838 -51.185  1.00  0.00    -0.243 N 
HETATM    8  N   UNL     1     -42.898  54.987 -52.397  1.00  0.00    -0.175 NA
HETATM    9  C   UNL     1     -42.499  54.245 -53.386  1.00  0.00     0.074 A 
HETATM   10  C   UNL     1     -39.798  52.181 -51.769  1.00  0.00     0.018 A 
HETATM   11  C   UNL     1     -39.379  51.358 -52.812  1.00  0.00     0.001 A 
HETATM   12  H   UNL     1     -42.637  55.435 -50.432  1.00  0.00     0.192 HD
ENDROOT
BRANCH   9  13
HETATM   13  C   UNL     1     -43.145  54.417 -54.746  1.00  0.00     0.165 C 
BRANCH  13  14
HETATM   14  C   UNL     1     -42.524  55.317 -55.798  1.00  0.00     0.228 C 
HETATM   15  N   UNL     1     -43.303  55.598 -56.897  1.00  0.00    -0.326 N 
HETATM   16  H   UNL     1     -44.130  55.012 -57.025  1.00  0.00     0.169 HD
HETATM   17  O   UNL     1     -41.414  55.796 -55.571  1.00  0.00    -0.273 OA
BRANCH  15  18
HETATM   18  C   UNL     1     -43.040  56.499 -57.958  1.00  0.00     0.052 A 
HETATM   19  C   UNL     1     -43.471  56.169 -59.257  1.00  0.00     0.037 A 
HETATM   20 BR   UNL     1     -44.394  54.547 -59.626  1.00  0.00    -0.049 Br
HETATM   21  C   UNL     1     -43.243  57.032 -60.336  1.00  0.00     0.021 A 
HETATM   22  C   UNL     1     -42.583  58.241 -60.131  1.00  0.00     0.002 A 
HETATM   23  C   UNL     1     -42.155  58.583 -58.852  1.00  0.00     0.002 A 
HETATM   24  C   UNL     1     -42.384  57.721 -57.774  1.00  0.00     0.031 A 
ENDBRANCH  15  18
ENDBRANCH  13  14
ENDBRANCH   9  13
TORSDOF 3
ENDMDL
MODEL 3
REMARK VINA RESULT:      -7.8      1.563      2.536
REMARK  3 active torsions:
REMARK  status: ('A' for Active; 'I' for Inactive)
REMARK    1  A    between atoms: C_9  and  C_10 
REMARK    2  A    between atoms: C_10  and  C_11 
REMARK       I    between atoms: C_11  and  N_12 
REMARK    3  A    between atoms: N_12  and  C_13 
ROOT
HETATM    1  C   UNL     1     -41.021  54.889 -50.373  1.00  0.00     0.001 A 
HETATM    2  C   UNL     1     -41.012  55.031 -51.764  1.00  0.00     0.014 A 
HETATM    3  C   UNL     1     -40.632  53.953 -52.576  1.00  0.00     0.006 A 
HETATM    4  C   UNL     1     -40.252  52.751 -51.982  1.00  0.00     0.046 A 
HETATM    5  C   UNL     1     -39.828  51.632 -52.837  1.00  0.00     0.272 A 
HETATM    6  O   UNL     1     -39.486  50.556 -52.360  1.00  0.00    -0.266 OA
HETATM    7  N   UNL     1     -39.836  51.870 -54.189  1.00  0.00    -0.243 N 
HETATM    8  N   UNL     1     -40.221  53.021 -54.798  1.00  0.00    -0.175 NA
HETATM    9  C   UNL     1     -40.612  54.019 -54.062  1.00  0.00     0.074 A 
HETATM   10  C   UNL     1     -40.262  52.609 -50.589  1.00  0.00     0.018 A 
HETATM   11  C   UNL     1     -40.650  53.680 -49.787  1.00  0.00     0.001 A 
HETATM   12  H   UNL     1     -39.539  51.108 -54.793  1.00  0.00     0.192 HD
ENDROOT
BRANCH   9  13
HETATM   13  C   UNL     1     -41.059  55.301 -54.735  1.00  0.00     0.165 C 
BRANCH  13  14
HETATM   14  C   UNL     1     -42.242  55.314 -55.685  1.00  0.00     0.228 C 
HETATM   15  N   UNL     1     -42.210  56.255 -56.688  1.00  0.00    -0.326 N 
HETATM   16  H   UNL     1     -41.521  57.002 -56.581  1.00  0.00     0.169 HD
HETATM   17  O   UNL     1     -43.103  54.445 -55.553  1.00  0.00    -0.273 OA
BRANCH  15  18
HETATM   18  C   UNL     1     -43.097  56.413 -57.780  1.00  0.00     0.052 A 
HETATM   19  C   UNL     1     -44.154  57.337 -57.674  1.00  0.00     0.037 A 
HETATM   20 BR   UNL     1     -44.424  58.377 -56.103  1.00  0.00    -0.049 Br
HETATM   21  C   UNL     1     -45.051  57.534 -58.731  1.00  0.00     0.021 A 
HETATM   22  C   UNL     1     -44.902  56.813 -59.912  1.00  0.00     0.002 A 
HETATM   23  C   UNL     1     -43.859  55.900 -60.035  1.00  0.00     0.002 A 
HETATM   24  C   UNL     1     -42.963  55.703 -58.978  1.00  0.00     0.031 A 
ENDBRANCH  15  18
ENDBRANCH  13  14
ENDBRANCH   9  13
TORSDOF 3
ENDMDL
MODEL 4
REMARK VINA RESULT:      -7.6      1.518      2.583
REMARK  3 active torsions:
REMARK  status: ('A' for Active; 'I' for Inactive)
REMARK    1  A    between atoms: C_9  and  C_10 
REMARK    2  A    between atoms: C_10  and  C_11 
REMARK       I    between atoms: C_11  and  N_12 
REMARK    3  A    between atoms: N_12  and  C_13 
ROOT
HETATM    1  C   UNL     1     -41.338  55.647 -51.101  1.00  0.00     0.001 A 
HETATM    2  C   UNL     1     -41.017  55.173 -52.377  1.00  0.00     0.014 A 
HETATM    3  C   UNL     1     -40.589  53.850 -52.545  1.00  0.00     0.006 A 
HETATM    4  C   UNL     1     -40.476  53.021 -51.431  1.00  0.00     0.046 A 
HETATM    5  C   UNL     1     -40.000  51.640 -51.610  1.00  0.00     0.272 A 
HETATM    6  O   UNL     1     -39.885  50.874 -50.660  1.00  0.00    -0.266 OA
HETATM    7  N   UNL     1     -39.693  51.271 -52.895  1.00  0.00    -0.243 N 
HETATM    8  N   UNL     1     -39.813  52.048 -54.003  1.00  0.00    -0.175 NA
HETATM    9  C   UNL     1     -40.244  53.267 -53.870  1.00  0.00     0.074 A 
HETATM   10  C   UNL     1     -40.798  53.494 -50.154  1.00  0.00     0.018 A 
HETATM   11  C   UNL     1     -41.233  54.808 -49.992  1.00  0.00     0.001 A 
HETATM   12  H   UNL     1     -39.356  50.321 -53.034  1.00  0.00     0.192 HD
ENDROOT
BRANCH   9  13
HETATM   13  C   UNL     1     -40.397  54.134 -55.103  1.00  0.00     0.165 C 
BRANCH  13  14
HETATM   14  C   UNL     1     -41.762  54.624 -55.549  1.00  0.00     0.228 C 
HETATM   15  N   UNL     1     -41.787  55.806 -56.253  1.00  0.00    -0.326 N 
HETATM   16  H   UNL     1     -40.931  56.364 -56.224  1.00  0.00     0.169 HD
HETATM   17  O   UNL     1     -42.738  53.907 -55.328  1.00  0.00    -0.273 OA
BRANCH  15  18
HETATM   18  C   UNL     1     -42.884  56.428 -56.897  1.00  0.00     0.052 A 
HETATM   19  C   UNL     1     -43.662  57.356 -56.178  1.00  0.00     0.037 A 
HETATM   20 BR   UNL     1     -43.282  57.795 -54.366  1.00  0.00    -0.049 Br
HETATM   21  C   UNL     1     -44.751  58.003 -56.775  1.00  0.00     0.021 A 
HETATM   22  C   UNL     1     -45.076  57.734 -58.102  1.00  0.00     0.002 A 
HETATM   23  C   UNL     1     -44.313  56.824 -58.827  1.00  0.00     0.002 A 
HETATM   24  C   UNL     1     -43.225  56.178 -58.230  1.00  0.00     0.031 A 
ENDBRANCH  15  18
ENDBRANCH  13  14
ENDBRANCH   9  13
TORSDOF 3
ENDMDL
MODEL 5
REMARK VINA RESULT:      -7.6      2.819      7.665
REMARK  3 active torsions:
REMARK  status: ('A' for Active; 'I' for Inactive)
REMARK    1  A    between atoms: C_9  and  C_10 
REMARK    2  A    between atoms: C_10  and  C_11 
REMARK       I    between atoms: C_11  and  N_12 
REMARK    3  A    between atoms: N_12  and  C_13 
ROOT
HETATM    1  C   UNL     1     -42.727  56.362 -59.953  1.00  0.00     0.001 A 
HETATM    2  C   UNL     1     -42.854  56.020 -58.603  1.00  0.00     0.014 A 
HETATM    3  C   UNL     1     -42.614  56.980 -57.612  1.00  0.00     0.006 A 
HETATM    4  C   UNL     1     -42.236  58.269 -57.985  1.00  0.00     0.046 A 
HETATM    5  C   UNL     1     -41.958  59.266 -56.940  1.00  0.00     0.272 A 
HETATM    6  O   UNL     1     -41.623  60.411 -57.220  1.00  0.00    -0.266 OA
HETATM    7  N   UNL     1     -42.093  58.834 -55.644  1.00  0.00    -0.243 N 
HETATM    8  N   UNL     1     -42.480  57.593 -55.249  1.00  0.00    -0.175 NA
HETATM    9  C   UNL     1     -42.743  56.700 -56.156  1.00  0.00     0.074 A 
HETATM   10  C   UNL     1     -42.109  58.612 -59.336  1.00  0.00     0.018 A 
HETATM   11  C   UNL     1     -42.359  57.657 -60.319  1.00  0.00     0.001 A 
HETATM   12  H   UNL     1     -41.897  59.510 -54.910  1.00  0.00     0.192 HD
ENDROOT
BRANCH   9  13
HETATM   13  C   UNL     1     -43.192  55.319 -55.723  1.00  0.00     0.165 C 
BRANCH  13  14
HETATM   14  C   UNL     1     -42.915  54.811 -54.321  1.00  0.00     0.228 C 
HETATM   15  N   UNL     1     -41.605  54.856 -53.902  1.00  0.00    -0.326 N 
HETATM   16  H   UNL     1     -40.906  55.011 -54.631  1.00  0.00     0.169 HD
HETATM   17  O   UNL     1     -43.873  54.470 -53.626  1.00  0.00    -0.273 OA
BRANCH  15  18
HETATM   18  C   UNL     1     -41.078  54.575 -52.618  1.00  0.00     0.052 A 
HETATM   19  C   UNL     1     -40.389  53.364 -52.412  1.00  0.00     0.037 A 
HETATM   20 BR   UNL     1     -40.149  52.096 -53.810  1.00  0.00    -0.049 Br
HETATM   21  C   UNL     1     -39.842  53.047 -51.163  1.00  0.00     0.021 A 
HETATM   22  C   UNL     1     -39.973  53.937 -50.101  1.00  0.00     0.002 A 
HETATM   23  C   UNL     1     -40.647  55.140 -50.290  1.00  0.00     0.002 A 
HETATM   24  C   UNL     1     -41.193  55.457 -51.539  1.00  0.00     0.031 A 
ENDBRANCH  15  18
ENDBRANCH  13  14
ENDBRANCH   9  13
TORSDOF 3
ENDMDL
MODEL 6
REMARK VINA RESULT:      -7.5      2.555      7.988
REMARK  3 active torsions:
REMARK  status: ('A' for Active; 'I' for Inactive)
REMARK    1  A    between atoms: C_9  and  C_10 
REMARK    2  A    between atoms: C_10  and  C_11 
REMARK       I    between atoms: C_11  and  N_12 
REMARK    3  A    between atoms: N_12  and  C_13 
ROOT
HETATM    1  C   UNL     1     -42.010  60.416 -57.011  1.00  0.00     0.001 A 
HETATM    2  C   UNL     1     -42.298  59.191 -56.402  1.00  0.00     0.014 A 
HETATM    3  C   UNL     1     -42.450  58.039 -57.184  1.00  0.00     0.006 A 
HETATM    4  C   UNL     1     -42.326  58.131 -58.569  1.00  0.00     0.046 A 
HETATM    5  C   UNL     1     -42.513  56.924 -59.388  1.00  0.00     0.272 A 
HETATM    6  O   UNL     1     -42.413  56.956 -60.609  1.00  0.00    -0.266 OA
HETATM    7  N   UNL     1     -42.809  55.772 -58.703  1.00  0.00    -0.243 N 
HETATM    8  N   UNL     1     -42.916  55.645 -57.355  1.00  0.00    -0.175 NA
HETATM    9  C   UNL     1     -42.741  56.696 -56.611  1.00  0.00     0.074 A 
HETATM   10  C   UNL     1     -42.037  59.358 -59.179  1.00  0.00     0.018 A 
HETATM   11  C   UNL     1     -41.876  60.499 -58.397  1.00  0.00     0.001 A 
HETATM   12  H   UNL     1     -42.949  54.930 -59.256  1.00  0.00     0.192 HD
ENDROOT
BRANCH   9  13
HETATM   13  C   UNL     1     -42.841  56.560 -55.105  1.00  0.00     0.165 C 
BRANCH  13  14
HETATM   14  C   UNL     1     -42.559  55.236 -54.420  1.00  0.00     0.228 C 
HETATM   15  N   UNL     1     -41.244  54.976 -54.109  1.00  0.00    -0.326 N 
HETATM   16  H   UNL     1     -40.550  55.578 -54.557  1.00  0.00     0.169 HD
HETATM   17  O   UNL     1     -43.516  54.523 -54.118  1.00  0.00    -0.273 OA
BRANCH  15  18
HETATM   18  C   UNL     1     -40.709  53.898 -53.364  1.00  0.00     0.052 A 
HETATM   19  C   UNL     1     -40.644  54.003 -51.961  1.00  0.00     0.037 A 
HETATM   20 BR   UNL     1     -41.252  55.554 -51.041  1.00  0.00    -0.049 Br
HETATM   21  C   UNL     1     -40.132  52.959 -51.181  1.00  0.00     0.021 A 
HETATM   22  C   UNL     1     -39.680  51.792 -51.792  1.00  0.00     0.002 A 
HETATM   23  C   UNL     1     -39.743  51.671 -53.176  1.00  0.00     0.002 A 
HETATM   24  C   UNL     1     -40.256  52.714 -53.955  1.00  0.00     0.031 A 
ENDBRANCH  15  18
ENDBRANCH  13  14
ENDBRANCH   9  13
TORSDOF 3
ENDMDL
MODEL 7
REMARK VINA RESULT:      -7.5      2.807      7.614
REMARK  3 active torsions:
REMARK  status: ('A' for Active; 'I' for Inactive)
REMARK    1  A    between atoms: C_9  and  C_10 
REMARK    2  A    between atoms: C_10  and  C_11 
REMARK       I    between atoms: C_11  and  N_12 
REMARK    3  A    between atoms: N_12  and  C_13 
ROOT
HETATM    1  C   UNL     1     -42.974  55.723 -59.047  1.00  0.00     0.001 A 
HETATM    2  C   UNL     1     -42.879  55.936 -57.668  1.00  0.00     0.014 A 
HETATM    3  C   UNL     1     -42.584  57.215 -57.176  1.00  0.00     0.006 A 
HETATM    4  C   UNL     1     -42.375  58.261 -58.072  1.00  0.00     0.046 A 
HETATM    5  C   UNL     1     -42.039  59.595 -57.551  1.00  0.00     0.272 A 
HETATM    6  O   UNL     1     -41.846  60.545 -58.301  1.00  0.00    -0.266 OA
HETATM    7  N   UNL     1     -41.951  59.704 -56.186  1.00  0.00    -0.243 N 
HETATM    8  N   UNL     1     -42.171  58.710 -55.287  1.00  0.00    -0.175 NA
HETATM    9  C   UNL     1     -42.482  57.526 -55.724  1.00  0.00     0.074 A 
HETATM   10  C   UNL     1     -42.470  58.048 -59.452  1.00  0.00     0.018 A 
HETATM   11  C   UNL     1     -42.774  56.777 -59.937  1.00  0.00     0.001 A 
HETATM   12  H   UNL     1     -41.713  60.618 -55.811  1.00  0.00     0.192 HD
ENDROOT
BRANCH   9  13
HETATM   13  C   UNL     1     -42.745  56.416 -54.727  1.00  0.00     0.165 C 
BRANCH  13  14
HETATM   14  C   UNL     1     -41.611  55.564 -54.189  1.00  0.00     0.228 C 
HETATM   15  N   UNL     1     -41.956  54.324 -53.702  1.00  0.00    -0.326 N 
HETATM   16  H   UNL     1     -42.953  54.168 -53.536  1.00  0.00     0.169 HD
HETATM   17  O   UNL     1     -40.462  55.993 -54.292  1.00  0.00    -0.273 OA
BRANCH  15  18
HETATM   18  C   UNL     1     -41.107  53.278 -53.265  1.00  0.00     0.052 A 
HETATM   19  C   UNL     1     -40.728  53.228 -51.910  1.00  0.00     0.037 A 
HETATM   20 BR   UNL     1     -41.323  54.526 -50.652  1.00  0.00    -0.049 Br
HETATM   21  C   UNL     1     -39.897  52.209 -51.429  1.00  0.00     0.021 A 
HETATM   22  C   UNL     1     -39.436  51.221 -52.296  1.00  0.00     0.002 A 
HETATM   23  C   UNL     1     -39.806  51.255 -53.637  1.00  0.00     0.002 A 
HETATM   24  C   UNL     1     -40.636  52.274 -54.116  1.00  0.00     0.031 A 
ENDBRANCH  15  18
ENDBRANCH  13  14
ENDBRANCH   9  13
TORSDOF 3
ENDMDL
MODEL 8
REMARK VINA RESULT:      -7.4      2.545      3.078
REMARK  3 active torsions:
REMARK  status: ('A' for Active; 'I' for Inactive)
REMARK    1  A    between atoms: C_9  and  C_10 
REMARK    2  A    between atoms: C_10  and  C_11 
REMARK       I    between atoms: C_11  and  N_12 
REMARK    3  A    between atoms: N_12  and  C_13 
ROOT
HETATM    1  C   UNL     1     -40.491  52.174 -53.818  1.00  0.00     0.001 A 
HETATM    2  C   UNL     1     -41.178  53.082 -54.629  1.00  0.00     0.014 A 
HETATM    3  C   UNL     1     -41.518  54.346 -54.131  1.00  0.00     0.006 A 
HETATM    4  C   UNL     1     -41.178  54.680 -52.822  1.00  0.00     0.046 A 
HETATM    5  C   UNL     1     -41.562  55.999 -52.295  1.00  0.00     0.272 A 
HETATM    6  O   UNL     1     -41.284  56.337 -51.150  1.00  0.00    -0.266 OA
HETATM    7  N   UNL     1     -42.248  56.816 -53.159  1.00  0.00    -0.243 N 
HETATM    8  N   UNL     1     -42.575  56.528 -54.446  1.00  0.00    -0.175 NA
HETATM    9  C   UNL     1     -42.234  55.374 -54.936  1.00  0.00     0.074 A 
HETATM   10  C   UNL     1     -40.490  53.771 -52.010  1.00  0.00     0.018 A 
HETATM   11  C   UNL     1     -40.144  52.518 -52.512  1.00  0.00     0.001 A 
HETATM   12  H   UNL     1     -42.526  57.728 -52.807  1.00  0.00     0.192 HD
ENDROOT
BRANCH   9  13
HETATM   13  C   UNL     1     -42.580  55.052 -56.376  1.00  0.00     0.165 C 
BRANCH  13  14
HETATM   14  C   UNL     1     -42.944  56.151 -57.356  1.00  0.00     0.228 C 
HETATM   15  N   UNL     1     -41.989  57.117 -57.574  1.00  0.00    -0.326 N 
HETATM   16  H   UNL     1     -41.217  57.144 -56.905  1.00  0.00     0.169 HD
HETATM   17  O   UNL     1     -44.021  56.070 -57.946  1.00  0.00    -0.273 OA
BRANCH  15  18
HETATM   18  C   UNL     1     -42.000  58.174 -58.517  1.00  0.00     0.052 A 
HETATM   19  C   UNL     1     -42.103  59.500 -58.057  1.00  0.00     0.037 A 
HETATM   20 BR   UNL     1     -42.232  59.911 -56.203  1.00  0.00    -0.049 Br
HETATM   21  C   UNL     1     -42.109  60.578 -58.950  1.00  0.00     0.021 A 
HETATM   22  C   UNL     1     -42.007  60.345 -60.319  1.00  0.00     0.002 A 
HETATM   23  C   UNL     1     -41.898  59.040 -60.790  1.00  0.00     0.002 A 
HETATM   24  C   UNL     1     -41.892  57.964 -59.896  1.00  0.00     0.031 A 
ENDBRANCH  15  18
ENDBRANCH  13  14
ENDBRANCH   9  13
TORSDOF 3
ENDMDL
MODEL 9
REMARK VINA RESULT:      -7.4     13.800     14.953
REMARK  3 active torsions:
REMARK  status: ('A' for Active; 'I' for Inactive)
REMARK    1  A    between atoms: C_9  and  C_10 
REMARK    2  A    between atoms: C_10  and  C_11 
REMARK       I    between atoms: C_11  and  N_12 
REMARK    3  A    between atoms: N_12  and  C_13 
ROOT
HETATM    1  C   UNL     1     -33.035  40.528 -50.844  1.00  0.00     0.001 A 
HETATM    2  C   UNL     1     -33.903  41.098 -51.781  1.00  0.00     0.014 A 
HETATM    3  C   UNL     1     -35.275  40.823 -51.722  1.00  0.00     0.006 A 
HETATM    4  C   UNL     1     -35.760  39.971 -50.731  1.00  0.00     0.046 A 
HETATM    5  C   UNL     1     -37.198  39.665 -50.690  1.00  0.00     0.272 A 
HETATM    6  O   UNL     1     -37.670  38.921 -49.837  1.00  0.00    -0.266 OA
HETATM    7  N   UNL     1     -37.968  40.256 -51.660  1.00  0.00    -0.243 N 
HETATM    8  N   UNL     1     -37.530  41.107 -52.623  1.00  0.00    -0.175 NA
HETATM    9  C   UNL     1     -36.265  41.402 -52.671  1.00  0.00     0.074 A 
HETATM   10  C   UNL     1     -34.891  39.401 -49.793  1.00  0.00     0.018 A 
HETATM   11  C   UNL     1     -33.528  39.685 -49.850  1.00  0.00     0.001 A 
HETATM   12  H   UNL     1     -38.963  40.048 -51.648  1.00  0.00     0.192 HD
ENDROOT
BRANCH   9  13
HETATM   13  C   UNL     1     -35.770  42.364 -53.732  1.00  0.00     0.165 C 
BRANCH  13  14
HETATM   14  C   UNL     1     -35.607  41.921 -55.174  1.00  0.00     0.228 C 
HETATM   15  N   UNL     1     -36.767  41.656 -55.866  1.00  0.00    -0.326 N 
HETATM   16  H   UNL     1     -37.614  41.561 -55.303  1.00  0.00     0.169 HD
HETATM   17  O   UNL     1     -34.473  41.903 -55.652  1.00  0.00    -0.273 OA
BRANCH  15  18
HETATM   18  C   UNL     1     -36.925  41.356 -57.241  1.00  0.00     0.052 A 
HETATM   19  C   UNL     1     -36.926  40.009 -57.650  1.00  0.00     0.037 A 
HETATM   20 BR   UNL     1     -36.717  38.582 -56.408  1.00  0.00    -0.049 Br
HETATM   21  C   UNL     1     -37.089  39.662 -58.997  1.00  0.00     0.021 A 
HETATM   22  C   UNL     1     -37.258  40.658 -59.955  1.00  0.00     0.002 A 
HETATM   23  C   UNL     1     -37.265  41.994 -59.565  1.00  0.00     0.002 A 
HETATM   24  C   UNL     1     -37.103  42.340 -58.219  1.00  0.00     0.031 A 
ENDBRANCH  15  18
ENDBRANCH  13  14
ENDBRANCH   9  13
TORSDOF 3
ENDMDL
MODEL 10
REMARK VINA RESULT:      -7.4      2.289      2.949
REMARK  3 active torsions:
REMARK  status: ('A' for Active; 'I' for Inactive)
REMARK    1  A    between atoms: C_9  and  C_10 
REMARK    2  A    between atoms: C_10  and  C_11 
REMARK       I    between atoms: C_11  and  N_12 
REMARK    3  A    between atoms: N_12  and  C_13 
ROOT
HETATM    1  C   UNL     1     -39.902  52.443 -53.613  1.00  0.00     0.001 A 
HETATM    2  C   UNL     1     -40.758  53.213 -54.407  1.00  0.00     0.014 A 
HETATM    3  C   UNL     1     -41.796  53.943 -53.813  1.00  0.00     0.006 A 
HETATM    4  C   UNL     1     -41.972  53.882 -52.432  1.00  0.00     0.046 A 
HETATM    5  C   UNL     1     -43.080  54.629 -51.817  1.00  0.00     0.272 A 
HETATM    6  O   UNL     1     -43.274  54.606 -50.607  1.00  0.00    -0.266 OA
HETATM    7  N   UNL     1     -43.877  55.342 -52.678  1.00  0.00    -0.243 N 
HETATM    8  N   UNL     1     -43.718  55.439 -54.023  1.00  0.00    -0.175 NA
HETATM    9  C   UNL     1     -42.738  54.798 -54.586  1.00  0.00     0.074 A 
HETATM   10  C   UNL     1     -41.115  53.112 -51.637  1.00  0.00     0.018 A 
HETATM   11  C   UNL     1     -40.078  52.396 -52.230  1.00  0.00     0.001 A 
HETATM   12  H   UNL     1     -44.652  55.858 -52.268  1.00  0.00     0.192 HD
ENDROOT
BRANCH   9  13
HETATM   13  C   UNL     1     -42.543  54.914 -56.085  1.00  0.00     0.165 C 
BRANCH  13  14
HETATM   14  C   UNL     1     -42.838  56.213 -56.812  1.00  0.00     0.228 C 
HETATM   15  N   UNL     1     -43.892  56.192 -57.696  1.00  0.00    -0.326 N 
HETATM   16  H   UNL     1     -44.242  55.268 -57.957  1.00  0.00     0.169 HD
HETATM   17  O   UNL     1     -42.179  57.209 -56.513  1.00  0.00    -0.273 OA
BRANCH  15  18
HETATM   18  C   UNL     1     -44.470  57.273 -58.407  1.00  0.00     0.052 A 
HETATM   19  C   UNL     1     -43.799  57.785 -59.534  1.00  0.00     0.037 A 
HETATM   20 BR   UNL     1     -42.139  57.069 -60.126  1.00  0.00    -0.049 Br
HETATM   21  C   UNL     1     -44.335  58.846 -60.274  1.00  0.00     0.021 A 
HETATM   22  C   UNL     1     -45.554  59.408 -59.900  1.00  0.00     0.002 A 
HETATM   23  C   UNL     1     -46.231  58.909 -58.792  1.00  0.00     0.002 A 
HETATM   24  C   UNL     1     -45.694  57.848 -58.053  1.00  0.00     0.031 A 
ENDBRANCH  15  18
ENDBRANCH  13  14
ENDBRANCH   9  13
TORSDOF 3
ENDMDL
