MODEL 1
REMARK VINA RESULT:      -8.4      0.000      0.000
REMARK  3 active torsions:
REMARK  status: ('A' for Active; 'I' for Inactive)
REMARK    1  A    between atoms: C_5  and  N_6 
REMARK       I    between atoms: N_6  and  C_7 
REMARK    2  A    between atoms: C_7  and  C_8 
REMARK    3  A    between atoms: C_11  and  N_12 
ROOT
HETATM    1  C   UNL     1     -39.476  51.362 -52.643  1.00  0.00     0.001 A 
HETATM    2  C   UNL     1     -39.679  52.419 -51.754  1.00  0.00     0.008 A 
HETATM    3  C   UNL     1     -40.565  53.426 -52.113  1.00  0.00    -0.043 A 
HETATM    4  C   UNL     1     -41.228  53.397 -53.340  1.00  0.00    -0.028 A 
HETATM    5  C   UNL     1     -42.144  54.571 -53.510  1.00  0.00     0.125 C 
HETATM    6  C   UNL     1     -41.818  55.450 -52.272  1.00  0.00     0.049 C 
HETATM    7  C   UNL     1     -40.926  54.634 -51.307  1.00  0.00     0.053 C 
HETATM    8  C   UNL     1     -43.065  55.789 -51.471  1.00  0.00     0.239 C 
HETATM    9  N   UNL     1     -43.179  54.664 -50.491  1.00  0.00    -0.074 N 
HETATM   10  H   UNL     1     -43.772  54.921 -49.688  1.00  0.00     0.277 HD
HETATM   11  H   UNL     1     -43.622  53.847 -50.935  1.00  0.00     0.277 HD
HETATM   12  C   UNL     1     -41.780  54.331 -50.079  1.00  0.00     0.242 C 
HETATM   13  C   UNL     1     -41.043  52.338 -54.220  1.00  0.00     0.010 A 
HETATM   14  C   UNL     1     -40.156  51.320 -53.866  1.00  0.00     0.001 A 
ENDROOT
BRANCH   5  15
HETATM   15  N   UNL     1     -41.930  55.272 -54.755  1.00  0.00    -0.348 N 
HETATM   16  C   UNL     1     -42.992  55.891 -55.384  1.00  0.00     0.252 C 
HETATM   17  O   UNL     1     -44.090  55.980 -54.841  1.00  0.00    -0.268 OA
HETATM   18  H   UNL     1     -41.108  55.038 -55.298  1.00  0.00     0.163 HD
BRANCH  16  19
HETATM   19  C   UNL     1     -42.770  56.419 -56.760  1.00  0.00     0.032 A 
HETATM   20  C   UNL     1     -42.294  57.710 -57.008  1.00  0.00     0.019 A 
HETATM   21  C   UNL     1     -42.080  58.136 -58.325  1.00  0.00     0.024 A 
HETATM   22  C   UNL     1     -42.388  57.309 -59.407  1.00  0.00     0.005 A 
HETATM   23  C   UNL     1     -42.826  56.009 -59.151  1.00  0.00     0.024 A 
HETATM   24  C   UNL     1     -43.041  55.572 -57.840  1.00  0.00     0.019 A 
BRANCH  22  25
HETATM   25  N   UNL     1     -42.040  57.690 -60.706  1.00  0.00    -0.303 NA
HETATM   26  H   UNL     1     -41.944  56.920 -61.361  1.00  0.00     0.124 HD
HETATM   27  H   UNL     1     -41.258  58.335 -60.759  1.00  0.00     0.124 HD
ENDBRANCH  22  25
ENDBRANCH  16  19
ENDBRANCH   5  15
TORSDOF 3
ENDMDL
MODEL 2
REMARK VINA RESULT:      -8.2      0.180      1.040
REMARK  3 active torsions:
REMARK  status: ('A' for Active; 'I' for Inactive)
REMARK    1  A    between atoms: C_5  and  N_6 
REMARK       I    between atoms: N_6  and  C_7 
REMARK    2  A    between atoms: C_7  and  C_8 
REMARK    3  A    between atoms: C_11  and  N_12 
ROOT
HETATM    1  C   UNL     1     -39.467  51.330 -52.674  1.00  0.00     0.001 A 
HETATM    2  C   UNL     1     -39.654  52.379 -51.772  1.00  0.00     0.008 A 
HETATM    3  C   UNL     1     -40.544  53.391 -52.107  1.00  0.00    -0.043 A 
HETATM    4  C   UNL     1     -41.226  53.374 -53.324  1.00  0.00    -0.028 A 
HETATM    5  C   UNL     1     -42.143  54.551 -53.468  1.00  0.00     0.125 C 
HETATM    6  C   UNL     1     -41.794  55.419 -52.228  1.00  0.00     0.049 C 
HETATM    7  C   UNL     1     -40.889  54.592 -51.285  1.00  0.00     0.053 C 
HETATM    8  C   UNL     1     -43.028  55.753 -51.404  1.00  0.00     0.239 C 
HETATM    9  N   UNL     1     -43.129  54.619 -50.432  1.00  0.00    -0.074 N 
HETATM   10  H   UNL     1     -43.707  54.870 -49.618  1.00  0.00     0.277 HD
HETATM   11  H   UNL     1     -43.580  53.807 -50.876  1.00  0.00     0.277 HD
HETATM   12  C   UNL     1     -41.723  54.280 -50.046  1.00  0.00     0.242 C 
HETATM   13  C   UNL     1     -41.058  52.323 -54.216  1.00  0.00     0.010 A 
HETATM   14  C   UNL     1     -40.167  51.300 -53.886  1.00  0.00     0.001 A 
ENDROOT
BRANCH   5  15
HETATM   15  N   UNL     1     -41.947  55.264 -54.710  1.00  0.00    -0.348 N 
HETATM   16  C   UNL     1     -43.020  55.884 -55.320  1.00  0.00     0.252 C 
HETATM   17  O   UNL     1     -44.111  55.964 -54.762  1.00  0.00    -0.268 OA
HETATM   18  H   UNL     1     -41.131  55.037 -55.265  1.00  0.00     0.163 HD
BRANCH  16  19
HETATM   19  C   UNL     1     -42.817  56.423 -56.694  1.00  0.00     0.032 A 
HETATM   20  C   UNL     1     -43.113  55.689 -57.847  1.00  0.00     0.019 A 
HETATM   21  C   UNL     1     -42.925  56.265 -59.111  1.00  0.00     0.024 A 
HETATM   22  C   UNL     1     -42.391  57.548 -59.244  1.00  0.00     0.005 A 
HETATM   23  C   UNL     1     -42.134  58.289 -58.089  1.00  0.00     0.024 A 
HETATM   24  C   UNL     1     -42.320  57.725 -56.822  1.00  0.00     0.019 A 
BRANCH  22  25
HETATM   25  N   UNL     1     -42.340  58.163 -60.498  1.00  0.00    -0.303 NA
HETATM   26  H   UNL     1     -41.423  58.158 -60.934  1.00  0.00     0.124 HD
HETATM   27  H   UNL     1     -42.773  59.080 -60.534  1.00  0.00     0.124 HD
ENDBRANCH  22  25
ENDBRANCH  16  19
ENDBRANCH   5  15
TORSDOF 3
ENDMDL
MODEL 3
REMARK VINA RESULT:      -7.7      1.716      7.389
REMARK  3 active torsions:
REMARK  status: ('A' for Active; 'I' for Inactive)
REMARK    1  A    between atoms: C_5  and  N_6 
REMARK       I    between atoms: N_6  and  C_7 
REMARK    2  A    between atoms: C_7  and  C_8 
REMARK    3  A    between atoms: C_11  and  N_12 
ROOT
HETATM    1  C   UNL     1     -41.821  60.129 -57.328  1.00  0.00     0.001 A 
HETATM    2  C   UNL     1     -41.954  59.367 -58.489  1.00  0.00     0.008 A 
HETATM    3  C   UNL     1     -42.350  58.041 -58.372  1.00  0.00    -0.043 A 
HETATM    4  C   UNL     1     -42.595  57.472 -57.121  1.00  0.00    -0.028 A 
HETATM    5  C   UNL     1     -43.024  56.041 -57.231  1.00  0.00     0.125 C 
HETATM    6  C   UNL     1     -42.833  55.734 -58.742  1.00  0.00     0.049 C 
HETATM    7  C   UNL     1     -42.555  57.063 -59.485  1.00  0.00     0.053 C 
HETATM    8  C   UNL     1     -44.100  55.182 -59.374  1.00  0.00     0.239 C 
HETATM    9  N   UNL     1     -44.832  56.403 -59.838  1.00  0.00    -0.074 N 
HETATM   10  H   UNL     1     -45.531  56.174 -60.559  1.00  0.00     0.277 HD
HETATM   11  H   UNL     1     -45.345  56.831 -59.055  1.00  0.00     0.277 HD
HETATM   12  C   UNL     1     -43.785  57.345 -60.343  1.00  0.00     0.242 C 
HETATM   13  C   UNL     1     -42.482  58.232 -55.963  1.00  0.00     0.010 A 
HETATM   14  C   UNL     1     -42.087  59.566 -56.073  1.00  0.00     0.001 A 
ENDROOT
BRANCH   5  15
HETATM   15  N   UNL     1     -42.250  55.158 -56.389  1.00  0.00    -0.348 N 
HETATM   16  C   UNL     1     -42.765  54.742 -55.177  1.00  0.00     0.252 C 
HETATM   17  O   UNL     1     -43.925  54.990 -54.859  1.00  0.00    -0.268 OA
HETATM   18  H   UNL     1     -41.249  55.116 -56.536  1.00  0.00     0.163 HD
BRANCH  16  19
HETATM   19  C   UNL     1     -41.854  54.008 -54.254  1.00  0.00     0.032 A 
HETATM   20  C   UNL     1     -41.922  54.136 -52.863  1.00  0.00     0.019 A 
HETATM   21  C   UNL     1     -41.053  53.397 -52.049  1.00  0.00     0.024 A 
HETATM   22  C   UNL     1     -40.077  52.569 -52.605  1.00  0.00     0.005 A 
HETATM   23  C   UNL     1     -40.040  52.417 -53.992  1.00  0.00     0.024 A 
HETATM   24  C   UNL     1     -40.903  53.147 -54.815  1.00  0.00     0.019 A 
BRANCH  22  25
HETATM   25  N   UNL     1     -39.313  51.733 -51.786  1.00  0.00    -0.303 NA
HETATM   26  H   UNL     1     -38.420  51.454 -52.183  1.00  0.00     0.124 HD
HETATM   27  H   UNL     1     -39.821  50.943 -51.401  1.00  0.00     0.124 HD
ENDBRANCH  22  25
ENDBRANCH  16  19
ENDBRANCH   5  15
TORSDOF 3
ENDMDL
MODEL 4
REMARK VINA RESULT:      -7.6      2.523      6.487
REMARK  3 active torsions:
REMARK  status: ('A' for Active; 'I' for Inactive)
REMARK    1  A    between atoms: C_5  and  N_6 
REMARK       I    between atoms: N_6  and  C_7 
REMARK    2  A    between atoms: C_7  and  C_8 
REMARK    3  A    between atoms: C_11  and  N_12 
ROOT
HETATM    1  C   UNL     1     -43.939  57.622 -57.290  1.00  0.00     0.001 A 
HETATM    2  C   UNL     1     -44.656  57.766 -56.102  1.00  0.00     0.008 A 
HETATM    3  C   UNL     1     -44.098  57.282 -54.927  1.00  0.00    -0.043 A 
HETATM    4  C   UNL     1     -42.854  56.649 -54.929  1.00  0.00    -0.028 A 
HETATM    5  C   UNL     1     -42.441  56.222 -53.554  1.00  0.00     0.125 C 
HETATM    6  C   UNL     1     -43.704  56.519 -52.701  1.00  0.00     0.049 C 
HETATM    7  C   UNL     1     -44.696  57.341 -53.557  1.00  0.00     0.053 C 
HETATM    8  C   UNL     1     -43.388  57.399 -51.503  1.00  0.00     0.239 C 
HETATM    9  N   UNL     1     -43.560  58.792 -52.023  1.00  0.00    -0.074 N 
HETATM   10  H   UNL     1     -43.697  59.467 -51.258  1.00  0.00     0.277 HD
HETATM   11  H   UNL     1     -42.716  59.089 -52.533  1.00  0.00     0.277 HD
HETATM   12  C   UNL     1     -44.731  58.742 -52.953  1.00  0.00     0.242 C 
HETATM   13  C   UNL     1     -42.128  56.519 -56.106  1.00  0.00     0.010 A 
HETATM   14  C   UNL     1     -42.681  57.006 -57.292  1.00  0.00     0.001 A 
ENDROOT
BRANCH   5  15
HETATM   15  N   UNL     1     -42.050  54.833 -53.492  1.00  0.00    -0.348 N 
HETATM   16  C   UNL     1     -41.099  54.428 -52.576  1.00  0.00     0.252 C 
HETATM   17  O   UNL     1     -40.677  55.196 -51.715  1.00  0.00    -0.268 OA
HETATM   18  H   UNL     1     -42.227  54.252 -54.303  1.00  0.00     0.163 HD
BRANCH  16  19
HETATM   19  C   UNL     1     -40.577  53.037 -52.689  1.00  0.00     0.032 A 
HETATM   20  C   UNL     1     -39.975  52.365 -51.620  1.00  0.00     0.019 A 
HETATM   21  C   UNL     1     -39.529  51.047 -51.785  1.00  0.00     0.024 A 
HETATM   22  C   UNL     1     -39.625  50.404 -53.021  1.00  0.00     0.005 A 
HETATM   23  C   UNL     1     -40.260  51.067 -54.072  1.00  0.00     0.024 A 
HETATM   24  C   UNL     1     -40.711  52.382 -53.919  1.00  0.00     0.019 A 
BRANCH  22  25
HETATM   25  N   UNL     1     -39.307  49.048 -53.136  1.00  0.00    -0.303 NA
HETATM   26  H   UNL     1     -40.076  48.459 -53.440  1.00  0.00     0.124 HD
HETATM   27  H   UNL     1     -38.826  48.660 -52.331  1.00  0.00     0.124 HD
ENDBRANCH  22  25
ENDBRANCH  16  19
ENDBRANCH   5  15
TORSDOF 3
ENDMDL
MODEL 5
REMARK VINA RESULT:      -7.5      3.279      6.039
REMARK  3 active torsions:
REMARK  status: ('A' for Active; 'I' for Inactive)
REMARK    1  A    between atoms: C_5  and  N_6 
REMARK       I    between atoms: N_6  and  C_7 
REMARK    2  A    between atoms: C_7  and  C_8 
REMARK    3  A    between atoms: C_11  and  N_12 
ROOT
HETATM    1  C   UNL     1     -40.212  52.973 -49.953  1.00  0.00     0.001 A 
HETATM    2  C   UNL     1     -40.610  52.695 -51.261  1.00  0.00     0.008 A 
HETATM    3  C   UNL     1     -41.012  53.750 -52.070  1.00  0.00    -0.043 A 
HETATM    4  C   UNL     1     -41.035  55.058 -51.587  1.00  0.00    -0.028 A 
HETATM    5  C   UNL     1     -41.484  56.034 -52.632  1.00  0.00     0.125 C 
HETATM    6  C   UNL     1     -41.922  55.113 -53.803  1.00  0.00     0.049 C 
HETATM    7  C   UNL     1     -41.467  53.667 -53.493  1.00  0.00     0.053 C 
HETATM    8  C   UNL     1     -41.226  55.479 -55.105  1.00  0.00     0.239 C 
HETATM    9  N   UNL     1     -39.975  54.657 -55.087  1.00  0.00    -0.074 N 
HETATM   10  H   UNL     1     -39.576  54.555 -56.030  1.00  0.00     0.277 HD
HETATM   11  H   UNL     1     -39.255  55.116 -54.510  1.00  0.00     0.277 HD
HETATM   12  C   UNL     1     -40.354  53.341 -54.485  1.00  0.00     0.242 C 
HETATM   13  C   UNL     1     -40.622  55.342 -50.291  1.00  0.00     0.010 A 
HETATM   14  C   UNL     1     -40.214  54.288 -49.472  1.00  0.00     0.001 A 
ENDROOT
BRANCH   5  15
HETATM   15  N   UNL     1     -42.555  56.889 -52.176  1.00  0.00    -0.348 N 
HETATM   16  C   UNL     1     -42.326  58.241 -52.005  1.00  0.00     0.252 C 
HETATM   17  O   UNL     1     -41.273  58.760 -52.366  1.00  0.00    -0.268 OA
HETATM   18  H   UNL     1     -43.335  56.460 -51.694  1.00  0.00     0.163 HD
BRANCH  16  19
HETATM   19  C   UNL     1     -43.390  59.043 -51.338  1.00  0.00     0.032 A 
HETATM   20  C   UNL     1     -44.725  58.631 -51.277  1.00  0.00     0.019 A 
HETATM   21  C   UNL     1     -45.672  59.419 -50.611  1.00  0.00     0.024 A 
HETATM   22  C   UNL     1     -45.317  60.646 -50.047  1.00  0.00     0.005 A 
HETATM   23  C   UNL     1     -43.976  61.033 -50.078  1.00  0.00     0.024 A 
HETATM   24  C   UNL     1     -43.022  60.254 -50.739  1.00  0.00     0.019 A 
BRANCH  22  25
HETATM   25  N   UNL     1     -46.234  61.354 -49.267  1.00  0.00    -0.303 NA
HETATM   26  H   UNL     1     -47.041  61.703 -49.775  1.00  0.00     0.124 HD
HETATM   27  H   UNL     1     -45.820  62.068 -48.675  1.00  0.00     0.124 HD
ENDBRANCH  22  25
ENDBRANCH  16  19
ENDBRANCH   5  15
TORSDOF 3
ENDMDL
MODEL 6
REMARK VINA RESULT:      -7.2      2.471      3.067
REMARK  3 active torsions:
REMARK  status: ('A' for Active; 'I' for Inactive)
REMARK    1  A    between atoms: C_5  and  N_6 
REMARK       I    between atoms: N_6  and  C_7 
REMARK    2  A    between atoms: C_7  and  C_8 
REMARK    3  A    between atoms: C_11  and  N_12 
ROOT
HETATM    1  C   UNL     1     -39.923  51.518 -53.540  1.00  0.00     0.001 A 
HETATM    2  C   UNL     1     -39.504  52.001 -52.299  1.00  0.00     0.008 A 
HETATM    3  C   UNL     1     -40.064  53.179 -51.823  1.00  0.00    -0.043 A 
HETATM    4  C   UNL     1     -41.012  53.878 -52.571  1.00  0.00    -0.028 A 
HETATM    5  C   UNL     1     -41.491  55.108 -51.861  1.00  0.00     0.125 C 
HETATM    6  C   UNL     1     -40.558  55.180 -50.621  1.00  0.00     0.049 C 
HETATM    7  C   UNL     1     -39.760  53.858 -50.525  1.00  0.00     0.053 C 
HETATM    8  C   UNL     1     -41.344  55.266 -49.323  1.00  0.00     0.239 C 
HETATM    9  N   UNL     1     -41.551  53.836 -48.932  1.00  0.00    -0.074 N 
HETATM   10  H   UNL     1     -41.775  53.745 -47.932  1.00  0.00     0.277 HD
HETATM   11  H   UNL     1     -42.347  53.436 -49.450  1.00  0.00     0.277 HD
HETATM   12  C   UNL     1     -40.288  53.121 -49.298  1.00  0.00     0.242 C 
HETATM   13  C   UNL     1     -41.445  53.391 -53.798  1.00  0.00     0.010 A 
HETATM   14  C   UNL     1     -40.890  52.206 -54.283  1.00  0.00     0.001 A 
ENDROOT
BRANCH   5  15
HETATM   15  N   UNL     1     -41.409  56.295 -52.680  1.00  0.00    -0.348 N 
HETATM   16  C   UNL     1     -42.388  57.264 -52.580  1.00  0.00     0.252 C 
HETATM   17  O   UNL     1     -43.253  57.209 -51.710  1.00  0.00    -0.268 OA
HETATM   18  H   UNL     1     -40.840  56.258 -53.517  1.00  0.00     0.163 HD
BRANCH  16  19
HETATM   19  C   UNL     1     -42.378  58.364 -53.586  1.00  0.00     0.032 A 
HETATM   20  C   UNL     1     -42.429  59.716 -53.231  1.00  0.00     0.019 A 
HETATM   21  C   UNL     1     -42.389  60.702 -54.225  1.00  0.00     0.024 A 
HETATM   22  C   UNL     1     -42.353  60.359 -55.578  1.00  0.00     0.005 A 
HETATM   23  C   UNL     1     -42.263  59.010 -55.923  1.00  0.00     0.024 A 
HETATM   24  C   UNL     1     -42.301  58.016 -54.940  1.00  0.00     0.019 A 
BRANCH  22  25
HETATM   25  N   UNL     1     -42.172  61.347 -56.550  1.00  0.00    -0.303 NA
HETATM   26  H   UNL     1     -42.766  61.249 -57.367  1.00  0.00     0.124 HD
HETATM   27  H   UNL     1     -41.203  61.515 -56.802  1.00  0.00     0.124 HD
ENDBRANCH  22  25
ENDBRANCH  16  19
ENDBRANCH   5  15
TORSDOF 3
ENDMDL
MODEL 7
REMARK VINA RESULT:      -7.2      2.670      3.620
REMARK  3 active torsions:
REMARK  status: ('A' for Active; 'I' for Inactive)
REMARK    1  A    between atoms: C_5  and  N_6 
REMARK       I    between atoms: N_6  and  C_7 
REMARK    2  A    between atoms: C_7  and  C_8 
REMARK    3  A    between atoms: C_11  and  N_12 
ROOT
HETATM    1  C   UNL     1     -42.025  54.471 -51.570  1.00  0.00     0.001 A 
HETATM    2  C   UNL     1     -41.202  55.583 -51.750  1.00  0.00     0.008 A 
HETATM    3  C   UNL     1     -41.522  56.492 -52.750  1.00  0.00    -0.043 A 
HETATM    4  C   UNL     1     -42.632  56.293 -53.572  1.00  0.00    -0.028 A 
HETATM    5  C   UNL     1     -42.796  57.401 -54.568  1.00  0.00     0.125 C 
HETATM    6  C   UNL     1     -41.505  58.242 -54.370  1.00  0.00     0.049 C 
HETATM    7  C   UNL     1     -40.779  57.742 -53.099  1.00  0.00     0.053 C 
HETATM    8  C   UNL     1     -41.817  59.706 -54.101  1.00  0.00     0.239 C 
HETATM    9  N   UNL     1     -41.947  59.777 -52.611  1.00  0.00    -0.074 N 
HETATM   10  H   UNL     1     -41.833  60.741 -52.268  1.00  0.00     0.277 HD
HETATM   11  H   UNL     1     -42.885  59.469 -52.320  1.00  0.00     0.277 HD
HETATM   12  C   UNL     1     -40.907  58.853 -52.061  1.00  0.00     0.242 C 
HETATM   13  C   UNL     1     -43.465  55.197 -53.386  1.00  0.00     0.010 A 
HETATM   14  C   UNL     1     -43.151  54.280 -52.381  1.00  0.00     0.001 A 
ENDROOT
BRANCH   5  15
HETATM   15  N   UNL     1     -42.936  56.919 -55.923  1.00  0.00    -0.348 N 
HETATM   16  C   UNL     1     -43.784  57.571 -56.797  1.00  0.00     0.252 C 
HETATM   17  O   UNL     1     -44.316  58.636 -56.494  1.00  0.00    -0.268 OA
HETATM   18  H   UNL     1     -42.676  55.960 -56.117  1.00  0.00     0.163 HD
BRANCH  16  19
HETATM   19  C   UNL     1     -44.056  56.921 -58.110  1.00  0.00     0.032 A 
HETATM   20  C   UNL     1     -43.271  55.881 -58.618  1.00  0.00     0.019 A 
HETATM   21  C   UNL     1     -43.597  55.294 -59.847  1.00  0.00     0.024 A 
HETATM   22  C   UNL     1     -44.667  55.768 -60.609  1.00  0.00     0.005 A 
HETATM   23  C   UNL     1     -45.468  56.781 -60.079  1.00  0.00     0.024 A 
HETATM   24  C   UNL     1     -45.154  57.373 -58.852  1.00  0.00     0.019 A 
BRANCH  22  25
HETATM   25  N   UNL     1     -45.067  55.087 -61.762  1.00  0.00    -0.303 NA
HETATM   26  H   UNL     1     -45.662  55.625 -62.385  1.00  0.00     0.124 HD
HETATM   27  H   UNL     1     -45.435  54.156 -61.594  1.00  0.00     0.124 HD
ENDBRANCH  22  25
ENDBRANCH  16  19
ENDBRANCH   5  15
TORSDOF 3
ENDMDL
MODEL 8
REMARK VINA RESULT:      -7.2      2.344      4.282
REMARK  3 active torsions:
REMARK  status: ('A' for Active; 'I' for Inactive)
REMARK    1  A    between atoms: C_5  and  N_6 
REMARK       I    between atoms: N_6  and  C_7 
REMARK    2  A    between atoms: C_7  and  C_8 
REMARK    3  A    between atoms: C_11  and  N_12 
ROOT
HETATM    1  C   UNL     1     -44.355  57.326 -52.077  1.00  0.00     0.001 A 
HETATM    2  C   UNL     1     -43.841  56.035 -51.949  1.00  0.00     0.008 A 
HETATM    3  C   UNL     1     -43.262  55.438 -53.061  1.00  0.00    -0.043 A 
HETATM    4  C   UNL     1     -43.207  56.102 -54.287  1.00  0.00    -0.028 A 
HETATM    5  C   UNL     1     -42.528  55.280 -55.339  1.00  0.00     0.125 C 
HETATM    6  C   UNL     1     -42.324  53.911 -54.636  1.00  0.00     0.049 C 
HETATM    7  C   UNL     1     -42.652  54.074 -53.132  1.00  0.00     0.053 C 
HETATM    8  C   UNL     1     -40.873  53.459 -54.680  1.00  0.00     0.239 C 
HETATM    9  N   UNL     1     -40.275  54.048 -53.441  1.00  0.00    -0.074 N 
HETATM   10  H   UNL     1     -39.405  53.565 -53.175  1.00  0.00     0.277 HD
HETATM   11  H   UNL     1     -40.028  55.036 -53.599  1.00  0.00     0.277 HD
HETATM   12  C   UNL     1     -41.328  53.943 -52.384  1.00  0.00     0.242 C 
HETATM   13  C   UNL     1     -43.701  57.394 -54.414  1.00  0.00     0.010 A 
HETATM   14  C   UNL     1     -44.282  58.003 -53.301  1.00  0.00     0.001 A 
ENDROOT
BRANCH   5  15
HETATM   15  N   UNL     1     -43.308  55.165 -56.550  1.00  0.00    -0.348 N 
HETATM   16  C   UNL     1     -43.083  56.039 -57.595  1.00  0.00     0.252 C 
HETATM   17  O   UNL     1     -42.139  56.825 -57.577  1.00  0.00    -0.268 OA
HETATM   18  H   UNL     1     -44.195  54.679 -56.501  1.00  0.00     0.163 HD
BRANCH  16  19
HETATM   19  C   UNL     1     -44.045  56.020 -58.733  1.00  0.00     0.032 A 
HETATM   20  C   UNL     1     -44.155  54.938 -59.613  1.00  0.00     0.019 A 
HETATM   21  C   UNL     1     -45.100  54.971 -60.647  1.00  0.00     0.024 A 
HETATM   22  C   UNL     1     -45.903  56.095 -60.852  1.00  0.00     0.005 A 
HETATM   23  C   UNL     1     -45.814  57.154 -59.947  1.00  0.00     0.024 A 
HETATM   24  C   UNL     1     -44.877  57.131 -58.910  1.00  0.00     0.019 A 
BRANCH  22  25
HETATM   25  N   UNL     1     -46.934  56.061 -61.795  1.00  0.00    -0.303 NA
HETATM   26  H   UNL     1     -46.919  56.824 -62.465  1.00  0.00     0.124 HD
HETATM   27  H   UNL     1     -47.859  55.919 -61.401  1.00  0.00     0.124 HD
ENDBRANCH  22  25
ENDBRANCH  16  19
ENDBRANCH   5  15
TORSDOF 3
ENDMDL
MODEL 9
REMARK VINA RESULT:      -7.2      1.272      1.538
REMARK  3 active torsions:
REMARK  status: ('A' for Active; 'I' for Inactive)
REMARK    1  A    between atoms: C_5  and  N_6 
REMARK       I    between atoms: N_6  and  C_7 
REMARK    2  A    between atoms: C_7  and  C_8 
REMARK    3  A    between atoms: C_11  and  N_12 
ROOT
HETATM    1  C   UNL     1     -40.411  52.519 -53.101  1.00  0.00     0.001 A 
HETATM    2  C   UNL     1     -40.367  53.585 -52.200  1.00  0.00     0.008 A 
HETATM    3  C   UNL     1     -41.050  54.751 -52.518  1.00  0.00    -0.043 A 
HETATM    4  C   UNL     1     -41.752  54.868 -53.719  1.00  0.00    -0.028 A 
HETATM    5  C   UNL     1     -42.424  56.202 -53.846  1.00  0.00     0.125 C 
HETATM    6  C   UNL     1     -41.882  56.985 -52.619  1.00  0.00     0.049 C 
HETATM    7  C   UNL     1     -41.133  55.997 -51.694  1.00  0.00     0.053 C 
HETATM    8  C   UNL     1     -43.006  57.554 -51.767  1.00  0.00     0.239 C 
HETATM    9  N   UNL     1     -43.302  56.462 -50.787  1.00  0.00    -0.074 N 
HETATM   10  H   UNL     1     -43.801  56.820 -49.961  1.00  0.00     0.277 HD
HETATM   11  H   UNL     1     -43.915  55.753 -51.217  1.00  0.00     0.277 HD
HETATM   12  C   UNL     1     -41.982  55.854 -50.434  1.00  0.00     0.242 C 
HETATM   13  C   UNL     1     -41.814  53.804 -54.609  1.00  0.00     0.010 A 
HETATM   14  C   UNL     1     -41.133  52.627 -54.296  1.00  0.00     0.001 A 
ENDROOT
BRANCH   5  15
HETATM   15  N   UNL     1     -42.123  56.863 -55.095  1.00  0.00    -0.348 N 
HETATM   16  C   UNL     1     -43.153  57.273 -55.919  1.00  0.00     0.252 C 
HETATM   17  O   UNL     1     -44.324  57.217 -55.550  1.00  0.00    -0.268 OA
HETATM   18  H   UNL     1     -41.201  56.732 -55.493  1.00  0.00     0.163 HD
BRANCH  16  19
HETATM   19  C   UNL     1     -42.798  57.756 -57.283  1.00  0.00     0.032 A 
HETATM   20  C   UNL     1     -42.412  59.075 -57.542  1.00  0.00     0.019 A 
HETATM   21  C   UNL     1     -42.065  59.459 -58.844  1.00  0.00     0.024 A 
HETATM   22  C   UNL     1     -42.150  58.558 -59.907  1.00  0.00     0.005 A 
HETATM   23  C   UNL     1     -42.499  57.234 -59.634  1.00  0.00     0.024 A 
HETATM   24  C   UNL     1     -42.846  56.839 -58.339  1.00  0.00     0.019 A 
BRANCH  22  25
HETATM   25  N   UNL     1     -41.669  58.912 -61.170  1.00  0.00    -0.303 NA
HETATM   26  H   UNL     1     -41.198  58.162 -61.668  1.00  0.00     0.124 HD
HETATM   27  H   UNL     1     -41.136  59.775 -61.190  1.00  0.00     0.124 HD
ENDBRANCH  22  25
ENDBRANCH  16  19
ENDBRANCH   5  15
TORSDOF 3
ENDMDL
MODEL 10
REMARK VINA RESULT:      -7.2     14.918     15.936
REMARK  3 active torsions:
REMARK  status: ('A' for Active; 'I' for Inactive)
REMARK    1  A    between atoms: C_5  and  N_6 
REMARK       I    between atoms: N_6  and  C_7 
REMARK    2  A    between atoms: C_7  and  C_8 
REMARK    3  A    between atoms: C_11  and  N_12 
ROOT
HETATM    1  C   UNL     1     -32.272  40.736 -51.776  1.00  0.00     0.001 A 
HETATM    2  C   UNL     1     -33.423  40.934 -51.012  1.00  0.00     0.008 A 
HETATM    3  C   UNL     1     -34.653  40.610 -51.568  1.00  0.00    -0.043 A 
HETATM    4  C   UNL     1     -34.745  40.114 -52.869  1.00  0.00    -0.028 A 
HETATM    5  C   UNL     1     -36.163  39.819 -53.256  1.00  0.00     0.125 C 
HETATM    6  C   UNL     1     -36.976  40.384 -52.060  1.00  0.00     0.049 C 
HETATM    7  C   UNL     1     -35.995  40.741 -50.919  1.00  0.00     0.053 C 
HETATM    8  C   UNL     1     -37.912  39.342 -51.468  1.00  0.00     0.239 C 
HETATM    9  N   UNL     1     -37.081  38.662 -50.425  1.00  0.00    -0.074 N 
HETATM   10  H   UNL     1     -37.667  38.171 -49.735  1.00  0.00     0.277 HD
HETATM   11  H   UNL     1     -36.477  37.950 -50.860  1.00  0.00     0.277 HD
HETATM   12  C   UNL     1     -36.245  39.734 -49.800  1.00  0.00     0.242 C 
HETATM   13  C   UNL     1     -33.602  39.898 -53.627  1.00  0.00     0.010 A 
HETATM   14  C   UNL     1     -32.361  40.218 -53.075  1.00  0.00     0.001 A 
ENDROOT
BRANCH   5  15
HETATM   15  N   UNL     1     -36.538  40.428 -54.512  1.00  0.00    -0.348 N 
HETATM   16  C   UNL     1     -36.768  39.632 -55.617  1.00  0.00     0.252 C 
HETATM   17  O   UNL     1     -36.799  38.408 -55.525  1.00  0.00    -0.268 OA
HETATM   18  H   UNL     1     -36.320  41.407 -54.650  1.00  0.00     0.163 HD
BRANCH  16  19
HETATM   19  C   UNL     1     -36.945  40.310 -56.933  1.00  0.00     0.032 A 
HETATM   20  C   UNL     1     -37.719  39.769 -57.965  1.00  0.00     0.019 A 
HETATM   21  C   UNL     1     -37.867  40.470 -59.169  1.00  0.00     0.024 A 
HETATM   22  C   UNL     1     -37.207  41.682 -59.381  1.00  0.00     0.005 A 
HETATM   23  C   UNL     1     -36.468  42.233 -58.333  1.00  0.00     0.024 A 
HETATM   24  C   UNL     1     -36.314  41.544 -57.126  1.00  0.00     0.019 A 
BRANCH  22  25
HETATM   25  N   UNL     1     -37.473  42.437 -60.526  1.00  0.00    -0.303 NA
HETATM   26  H   UNL     1     -37.900  41.916 -61.286  1.00  0.00     0.124 HD
HETATM   27  H   UNL     1     -36.695  43.005 -60.845  1.00  0.00     0.124 HD
ENDBRANCH  22  25
ENDBRANCH  16  19
ENDBRANCH   5  15
TORSDOF 3
ENDMDL
