MODEL 1
REMARK VINA RESULT:      -7.7      0.000      0.000
REMARK  7 active torsions:
REMARK  status: ('A' for Active; 'I' for Inactive)
REMARK    1  A    between atoms: C_2  and  N_3 
REMARK    2  A    between atoms: C_2  and  C_17 
REMARK       I    between atoms: N_3  and  C_4 
REMARK    3  A    between atoms: C_4  and  C_5 
REMARK    4  A    between atoms: C_7  and  N_8 
REMARK    5  A    between atoms: C_17  and  O_18 
REMARK    6  A    between atoms: C_17  and  C_19 
REMARK    7  A    between atoms: C_22  and  O_23 
ROOT
HETATM    1  N   UNL     1     -42.884  56.494 -55.164  1.00  0.00    -0.349 N 
HETATM    2  C   UNL     1     -43.023  55.657 -56.252  1.00  0.00     0.270 C 
HETATM    3  O   UNL     1     -43.248  54.456 -56.165  1.00  0.00    -0.266 OA
HETATM    4  H   UNL     1     -42.547  57.432 -55.365  1.00  0.00     0.163 HD
ENDROOT
BRANCH   1   5
HETATM    5  C   UNL     1     -42.880  56.000 -53.790  1.00  0.00     0.114 C 
HETATM    6  C   UNL     1     -43.837  56.832 -52.937  1.00  0.00     0.035 C 
BRANCH   5   7
HETATM    7  C   UNL     1     -41.447  55.884 -53.192  1.00  0.00     0.173 C 
BRANCH   7   8
HETATM    8  O   UNL     1     -40.540  56.713 -53.929  1.00  0.00    -0.389 OA
HETATM    9  H   UNL     1     -39.842  56.122 -54.262  1.00  0.00     0.210 HD
ENDBRANCH   7   8
BRANCH   7  10
HETATM   10  C   UNL     1     -40.901  54.468 -53.122  1.00  0.00    -0.028 A 
HETATM   11  C   UNL     1     -40.580  53.779 -54.299  1.00  0.00     0.012 A 
HETATM   12  C   UNL     1     -40.074  52.477 -54.244  1.00  0.00     0.037 A 
HETATM   13  C   UNL     1     -39.878  51.838 -53.019  1.00  0.00     0.068 A 
HETATM   14  C   UNL     1     -40.189  52.515 -51.842  1.00  0.00     0.037 A 
HETATM   15  C   UNL     1     -40.695  53.820 -51.894  1.00  0.00     0.012 A 
BRANCH  13  16
HETATM   16  O   UNL     1     -39.383  50.566 -53.108  1.00  0.00    -0.356 OA
HETATM   17  C   UNL     1     -39.628  49.864 -54.320  1.00  0.00     0.210 C 
ENDBRANCH  13  16
ENDBRANCH   7  10
ENDBRANCH   5   7
ENDBRANCH   1   5
BRANCH   2  18
HETATM   18  C   UNL     1     -42.855  56.330 -57.580  1.00  0.00     0.126 A 
HETATM   19  N   UNL     1     -42.452  57.632 -57.548  1.00  0.00    -0.224 NA
HETATM   20  C   UNL     1     -42.296  58.249 -58.752  1.00  0.00     0.151 A 
HETATM   21  C   UNL     1     -42.533  57.607 -59.969  1.00  0.00     0.052 A 
HETATM   22  C   UNL     1     -42.941  56.275 -59.961  1.00  0.00     0.006 A 
HETATM   23  C   UNL     1     -43.104  55.619 -58.746  1.00  0.00     0.037 A 
BRANCH  20  24
HETATM   24  N   UNL     1     -41.868  59.611 -58.762  1.00  0.00    -0.227 N 
HETATM   25  N   UNL     1     -41.345  60.223 -57.663  1.00  0.00    -0.179 NA
HETATM   26  C   UNL     1     -41.078  61.465 -58.070  1.00  0.00     0.141 A 
HETATM   27  C   UNL     1     -41.415  61.678 -59.416  1.00  0.00     0.040 A 
HETATM   28  C   UNL     1     -41.919  60.473 -59.839  1.00  0.00     0.122 A 
ENDBRANCH  20  24
ENDBRANCH   2  18
TORSDOF 7
ENDMDL
MODEL 2
REMARK VINA RESULT:      -7.4      3.123      8.143
REMARK  7 active torsions:
REMARK  status: ('A' for Active; 'I' for Inactive)
REMARK    1  A    between atoms: C_2  and  N_3 
REMARK    2  A    between atoms: C_2  and  C_17 
REMARK       I    between atoms: N_3  and  C_4 
REMARK    3  A    between atoms: C_4  and  C_5 
REMARK    4  A    between atoms: C_7  and  N_8 
REMARK    5  A    between atoms: C_17  and  O_18 
REMARK    6  A    between atoms: C_17  and  C_19 
REMARK    7  A    between atoms: C_22  and  O_23 
ROOT
HETATM    1  N   UNL     1     -43.084  56.334 -52.397  1.00  0.00    -0.349 N 
HETATM    2  C   UNL     1     -41.714  56.245 -52.520  1.00  0.00     0.270 C 
HETATM    3  O   UNL     1     -41.030  57.045 -53.147  1.00  0.00    -0.266 OA
HETATM    4  H   UNL     1     -43.547  55.528 -51.986  1.00  0.00     0.163 HD
ENDROOT
BRANCH   1   5
HETATM    5  C   UNL     1     -43.871  57.340 -53.103  1.00  0.00     0.114 C 
HETATM    6  C   UNL     1     -44.772  58.081 -52.115  1.00  0.00     0.035 C 
BRANCH   5   7
HETATM    7  C   UNL     1     -44.631  56.762 -54.332  1.00  0.00     0.173 C 
BRANCH   7   8
HETATM    8  O   UNL     1     -44.570  55.331 -54.318  1.00  0.00    -0.389 OA
HETATM    9  H   UNL     1     -44.600  55.068 -53.381  1.00  0.00     0.210 HD
ENDBRANCH   7   8
BRANCH   7  10
HETATM   10  C   UNL     1     -44.150  57.280 -55.677  1.00  0.00    -0.028 A 
HETATM   11  C   UNL     1     -42.911  56.870 -56.186  1.00  0.00     0.012 A 
HETATM   12  C   UNL     1     -42.461  57.339 -57.424  1.00  0.00     0.037 A 
HETATM   13  C   UNL     1     -43.235  58.222 -58.177  1.00  0.00     0.068 A 
HETATM   14  C   UNL     1     -44.472  58.632 -57.684  1.00  0.00     0.037 A 
HETATM   15  C   UNL     1     -44.925  58.164 -56.444  1.00  0.00     0.012 A 
BRANCH  13  16
HETATM   16  O   UNL     1     -42.676  58.605 -59.366  1.00  0.00    -0.356 OA
HETATM   17  C   UNL     1     -42.004  57.599 -60.113  1.00  0.00     0.210 C 
ENDBRANCH  13  16
ENDBRANCH   7  10
ENDBRANCH   5   7
ENDBRANCH   1   5
BRANCH   2  18
HETATM   18  C   UNL     1     -41.103  55.059 -51.837  1.00  0.00     0.126 A 
HETATM   19  N   UNL     1     -40.886  53.962 -52.615  1.00  0.00    -0.224 NA
HETATM   20  C   UNL     1     -40.330  52.881 -52.001  1.00  0.00     0.151 A 
HETATM   21  C   UNL     1     -39.993  52.870 -50.647  1.00  0.00     0.052 A 
HETATM   22  C   UNL     1     -40.226  54.012 -49.884  1.00  0.00     0.006 A 
HETATM   23  C   UNL     1     -40.789  55.131 -50.487  1.00  0.00     0.037 A 
BRANCH  20  24
HETATM   24  N   UNL     1     -40.081  51.713 -52.784  1.00  0.00    -0.227 N 
HETATM   25  N   UNL     1     -39.625  50.551 -52.240  1.00  0.00    -0.179 NA
HETATM   26  C   UNL     1     -39.517  49.718 -53.277  1.00  0.00     0.141 A 
HETATM   27  C   UNL     1     -39.895  50.314 -54.491  1.00  0.00     0.040 A 
HETATM   28  C   UNL     1     -40.253  51.594 -54.148  1.00  0.00     0.122 A 
ENDBRANCH  20  24
ENDBRANCH   2  18
TORSDOF 7
ENDMDL
MODEL 3
REMARK VINA RESULT:      -7.3      2.142      3.414
REMARK  7 active torsions:
REMARK  status: ('A' for Active; 'I' for Inactive)
REMARK    1  A    between atoms: C_2  and  N_3 
REMARK    2  A    between atoms: C_2  and  C_17 
REMARK       I    between atoms: N_3  and  C_4 
REMARK    3  A    between atoms: C_4  and  C_5 
REMARK    4  A    between atoms: C_7  and  N_8 
REMARK    5  A    between atoms: C_17  and  O_18 
REMARK    6  A    between atoms: C_17  and  C_19 
REMARK    7  A    between atoms: C_22  and  O_23 
ROOT
HETATM    1  N   UNL     1     -42.508  57.058 -54.337  1.00  0.00    -0.349 N 
HETATM    2  C   UNL     1     -43.535  57.627 -55.059  1.00  0.00     0.270 C 
HETATM    3  O   UNL     1     -44.616  57.944 -54.576  1.00  0.00    -0.266 OA
HETATM    4  H   UNL     1     -41.727  56.700 -54.881  1.00  0.00     0.163 HD
ENDROOT
BRANCH   1   5
HETATM    5  C   UNL     1     -42.653  56.672 -52.937  1.00  0.00     0.114 C 
HETATM    6  C   UNL     1     -41.357  56.964 -52.181  1.00  0.00     0.035 C 
BRANCH   5   7
HETATM    7  C   UNL     1     -43.166  55.213 -52.761  1.00  0.00     0.173 C 
BRANCH   7   8
HETATM    8  O   UNL     1     -43.809  55.069 -51.488  1.00  0.00    -0.389 OA
HETATM    9  H   UNL     1     -44.689  54.693 -51.670  1.00  0.00     0.210 HD
ENDBRANCH   7   8
BRANCH   7  10
HETATM   10  C   UNL     1     -42.100  54.141 -52.918  1.00  0.00    -0.028 A 
HETATM   11  C   UNL     1     -41.825  53.604 -54.182  1.00  0.00     0.012 A 
HETATM   12  C   UNL     1     -40.844  52.620 -54.337  1.00  0.00     0.037 A 
HETATM   13  C   UNL     1     -40.119  52.154 -53.239  1.00  0.00     0.068 A 
HETATM   14  C   UNL     1     -40.381  52.686 -51.978  1.00  0.00     0.037 A 
HETATM   15  C   UNL     1     -41.363  53.672 -51.820  1.00  0.00     0.012 A 
BRANCH  13  16
HETATM   16  O   UNL     1     -39.194  51.189 -53.529  1.00  0.00    -0.356 OA
HETATM   17  C   UNL     1     -39.653  50.058 -54.257  1.00  0.00     0.210 C 
ENDBRANCH  13  16
ENDBRANCH   7  10
ENDBRANCH   5   7
ENDBRANCH   1   5
BRANCH   2  18
HETATM   18  C   UNL     1     -43.242  57.817 -56.516  1.00  0.00     0.126 A 
HETATM   19  N   UNL     1     -44.010  57.100 -57.383  1.00  0.00    -0.224 NA
HETATM   20  C   UNL     1     -43.750  57.268 -58.709  1.00  0.00     0.151 A 
HETATM   21  C   UNL     1     -42.752  58.123 -59.182  1.00  0.00     0.052 A 
HETATM   22  C   UNL     1     -41.990  58.843 -58.266  1.00  0.00     0.006 A 
HETATM   23  C   UNL     1     -42.237  58.693 -56.906  1.00  0.00     0.037 A 
BRANCH  20  24
HETATM   24  N   UNL     1     -44.538  56.540 -59.650  1.00  0.00    -0.227 N 
HETATM   25  N   UNL     1     -43.995  55.650 -60.527  1.00  0.00    -0.179 NA
HETATM   26  C   UNL     1     -45.036  55.193 -61.224  1.00  0.00     0.141 A 
HETATM   27  C   UNL     1     -46.252  55.765 -60.820  1.00  0.00     0.040 A 
HETATM   28  C   UNL     1     -45.906  56.626 -59.807  1.00  0.00     0.122 A 
ENDBRANCH  20  24
ENDBRANCH   2  18
TORSDOF 7
ENDMDL
MODEL 4
REMARK VINA RESULT:      -7.3      2.332      3.564
REMARK  7 active torsions:
REMARK  status: ('A' for Active; 'I' for Inactive)
REMARK    1  A    between atoms: C_2  and  N_3 
REMARK    2  A    between atoms: C_2  and  C_17 
REMARK       I    between atoms: N_3  and  C_4 
REMARK    3  A    between atoms: C_4  and  C_5 
REMARK    4  A    between atoms: C_7  and  N_8 
REMARK    5  A    between atoms: C_17  and  O_18 
REMARK    6  A    between atoms: C_17  and  C_19 
REMARK    7  A    between atoms: C_22  and  O_23 
ROOT
HETATM    1  N   UNL     1     -42.489  55.290 -56.472  1.00  0.00    -0.349 N 
HETATM    2  C   UNL     1     -42.456  56.667 -56.411  1.00  0.00     0.270 C 
HETATM    3  O   UNL     1     -42.209  57.300 -55.391  1.00  0.00    -0.266 OA
HETATM    4  H   UNL     1     -42.857  54.892 -57.331  1.00  0.00     0.163 HD
ENDROOT
BRANCH   1   5
HETATM    5  C   UNL     1     -42.341  54.449 -55.288  1.00  0.00     0.114 C 
HETATM    6  C   UNL     1     -43.553  54.625 -54.372  1.00  0.00     0.035 C 
BRANCH   5   7
HETATM    7  C   UNL     1     -40.976  54.651 -54.567  1.00  0.00     0.173 C 
BRANCH   7   8
HETATM    8  O   UNL     1     -39.966  55.003 -55.520  1.00  0.00    -0.389 OA
HETATM    9  H   UNL     1     -39.337  54.260 -55.535  1.00  0.00     0.210 HD
ENDBRANCH   7   8
BRANCH   7  10
HETATM   10  C   UNL     1     -40.510  53.461 -53.745  1.00  0.00    -0.028 A 
HETATM   11  C   UNL     1     -40.515  53.529 -52.346  1.00  0.00     0.012 A 
HETATM   12  C   UNL     1     -40.091  52.438 -51.581  1.00  0.00     0.037 A 
HETATM   13  C   UNL     1     -39.655  51.262 -52.193  1.00  0.00     0.068 A 
HETATM   14  C   UNL     1     -39.651  51.182 -53.584  1.00  0.00     0.037 A 
HETATM   15  C   UNL     1     -40.076  52.273 -54.353  1.00  0.00     0.012 A 
BRANCH  13  16
HETATM   16  O   UNL     1     -39.264  50.276 -51.329  1.00  0.00    -0.356 OA
HETATM   17  C   UNL     1     -40.074  50.072 -50.179  1.00  0.00     0.210 C 
ENDBRANCH  13  16
ENDBRANCH   7  10
ENDBRANCH   5   7
ENDBRANCH   1   5
BRANCH   2  18
HETATM   18  C   UNL     1     -42.772  57.355 -57.704  1.00  0.00     0.126 A 
HETATM   19  N   UNL     1     -43.987  57.072 -58.254  1.00  0.00    -0.224 NA
HETATM   20  C   UNL     1     -44.282  57.694 -59.429  1.00  0.00     0.151 A 
HETATM   21  C   UNL     1     -43.404  58.579 -60.058  1.00  0.00     0.052 A 
HETATM   22  C   UNL     1     -42.174  58.847 -59.463  1.00  0.00     0.006 A 
HETATM   23  C   UNL     1     -41.848  58.228 -58.262  1.00  0.00     0.037 A 
BRANCH  20  24
HETATM   24  N   UNL     1     -45.547  57.430 -60.035  1.00  0.00    -0.227 N 
HETATM   25  N   UNL     1     -46.377  58.422 -60.459  1.00  0.00    -0.179 NA
HETATM   26  C   UNL     1     -47.438  57.780 -60.952  1.00  0.00     0.141 A 
HETATM   27  C   UNL     1     -47.317  56.385 -60.860  1.00  0.00     0.040 A 
HETATM   28  C   UNL     1     -46.094  56.185 -60.268  1.00  0.00     0.122 A 
ENDBRANCH  20  24
ENDBRANCH   2  18
TORSDOF 7
ENDMDL
MODEL 5
REMARK VINA RESULT:      -7.3      1.407      1.552
REMARK  7 active torsions:
REMARK  status: ('A' for Active; 'I' for Inactive)
REMARK    1  A    between atoms: C_2  and  N_3 
REMARK    2  A    between atoms: C_2  and  C_17 
REMARK       I    between atoms: N_3  and  C_4 
REMARK    3  A    between atoms: C_4  and  C_5 
REMARK    4  A    between atoms: C_7  and  N_8 
REMARK    5  A    between atoms: C_17  and  O_18 
REMARK    6  A    between atoms: C_17  and  C_19 
REMARK    7  A    between atoms: C_22  and  O_23 
ROOT
HETATM    1  N   UNL     1     -42.430  56.740 -55.007  1.00  0.00    -0.349 N 
HETATM    2  C   UNL     1     -43.442  57.129 -55.859  1.00  0.00     0.270 C 
HETATM    3  O   UNL     1     -44.561  57.459 -55.485  1.00  0.00    -0.266 OA
HETATM    4  H   UNL     1     -41.605  56.343 -55.448  1.00  0.00     0.163 HD
ENDROOT
BRANCH   1   5
HETATM    5  C   UNL     1     -42.634  56.576 -53.570  1.00  0.00     0.114 C 
HETATM    6  C   UNL     1     -41.376  57.006 -52.816  1.00  0.00     0.035 C 
BRANCH   5   7
HETATM    7  C   UNL     1     -43.139  55.154 -53.189  1.00  0.00     0.173 C 
BRANCH   7   8
HETATM    8  O   UNL     1     -43.770  55.187 -51.903  1.00  0.00    -0.389 OA
HETATM    9  H   UNL     1     -44.518  55.806 -51.983  1.00  0.00     0.210 HD
ENDBRANCH   7   8
BRANCH   7  10
HETATM   10  C   UNL     1     -42.069  54.075 -53.205  1.00  0.00    -0.028 A 
HETATM   11  C   UNL     1     -41.773  53.398 -54.395  1.00  0.00     0.012 A 
HETATM   12  C   UNL     1     -40.788  52.405 -54.420  1.00  0.00     0.037 A 
HETATM   13  C   UNL     1     -40.082  52.070 -53.264  1.00  0.00     0.068 A 
HETATM   14  C   UNL     1     -40.365  52.741 -52.077  1.00  0.00     0.037 A 
HETATM   15  C   UNL     1     -41.350  53.735 -52.048  1.00  0.00     0.012 A 
BRANCH  13  16
HETATM   16  O   UNL     1     -39.151  51.080 -53.428  1.00  0.00    -0.356 OA
HETATM   17  C   UNL     1     -39.506  49.999 -54.280  1.00  0.00     0.210 C 
ENDBRANCH  13  16
ENDBRANCH   7  10
ENDBRANCH   5   7
ENDBRANCH   1   5
BRANCH   2  18
HETATM   18  C   UNL     1     -43.078  57.099 -57.312  1.00  0.00     0.126 A 
HETATM   19  N   UNL     1     -42.745  58.295 -57.873  1.00  0.00    -0.224 NA
HETATM   20  C   UNL     1     -42.412  58.275 -59.194  1.00  0.00     0.151 A 
HETATM   21  C   UNL     1     -42.406  57.106 -59.956  1.00  0.00     0.052 A 
HETATM   22  C   UNL     1     -42.750  55.901 -59.346  1.00  0.00     0.006 A 
HETATM   23  C   UNL     1     -43.090  55.892 -57.998  1.00  0.00     0.037 A 
BRANCH  20  24
HETATM   24  N   UNL     1     -42.049  59.507 -59.818  1.00  0.00    -0.227 N 
HETATM   25  N   UNL     1     -41.708  60.616 -59.105  1.00  0.00    -0.179 NA
HETATM   26  C   UNL     1     -41.446  61.539 -60.033  1.00  0.00     0.141 A 
HETATM   27  C   UNL     1     -41.608  61.054 -61.340  1.00  0.00     0.040 A 
HETATM   28  C   UNL     1     -41.995  59.747 -61.176  1.00  0.00     0.122 A 
ENDBRANCH  20  24
ENDBRANCH   2  18
TORSDOF 7
ENDMDL
MODEL 6
REMARK VINA RESULT:      -7.2      3.913      8.704
REMARK  7 active torsions:
REMARK  status: ('A' for Active; 'I' for Inactive)
REMARK    1  A    between atoms: C_2  and  N_3 
REMARK    2  A    between atoms: C_2  and  C_17 
REMARK       I    between atoms: N_3  and  C_4 
REMARK    3  A    between atoms: C_4  and  C_5 
REMARK    4  A    between atoms: C_7  and  N_8 
REMARK    5  A    between atoms: C_17  and  O_18 
REMARK    6  A    between atoms: C_17  and  C_19 
REMARK    7  A    between atoms: C_22  and  O_23 
ROOT
HETATM    1  N   UNL     1     -41.621  56.904 -53.442  1.00  0.00    -0.349 N 
HETATM    2  C   UNL     1     -42.135  56.373 -52.278  1.00  0.00     0.270 C 
HETATM    3  O   UNL     1     -43.172  56.758 -51.751  1.00  0.00    -0.266 OA
HETATM    4  H   UNL     1     -40.681  56.606 -53.690  1.00  0.00     0.163 HD
ENDROOT
BRANCH   1   5
HETATM    5  C   UNL     1     -42.211  58.065 -54.102  1.00  0.00     0.114 C 
HETATM    6  C   UNL     1     -42.286  57.821 -55.609  1.00  0.00     0.035 C 
BRANCH   5   7
HETATM    7  C   UNL     1     -41.512  59.401 -53.717  1.00  0.00     0.173 C 
BRANCH   7   8
HETATM    8  O   UNL     1     -40.128  59.167 -53.433  1.00  0.00    -0.389 OA
HETATM    9  H   UNL     1     -39.988  58.208 -53.536  1.00  0.00     0.210 HD
ENDBRANCH   7   8
BRANCH   7  10
HETATM   10  C   UNL     1     -42.154  60.141 -52.555  1.00  0.00    -0.028 A 
HETATM   11  C   UNL     1     -43.229  61.010 -52.783  1.00  0.00     0.012 A 
HETATM   12  C   UNL     1     -43.827  61.693 -51.720  1.00  0.00     0.037 A 
HETATM   13  C   UNL     1     -43.368  61.524 -50.413  1.00  0.00     0.068 A 
HETATM   14  C   UNL     1     -42.303  60.658 -50.174  1.00  0.00     0.037 A 
HETATM   15  C   UNL     1     -41.702  59.972 -51.237  1.00  0.00     0.012 A 
BRANCH  13  16
HETATM   16  O   UNL     1     -44.039  62.254 -49.470  1.00  0.00    -0.356 OA
HETATM   17  C   UNL     1     -45.041  61.574 -48.725  1.00  0.00     0.210 C 
ENDBRANCH  13  16
ENDBRANCH   7  10
ENDBRANCH   5   7
ENDBRANCH   1   5
BRANCH   2  18
HETATM   18  C   UNL     1     -41.308  55.279 -51.675  1.00  0.00     0.126 A 
HETATM   19  N   UNL     1     -41.114  54.175 -52.450  1.00  0.00    -0.224 NA
HETATM   20  C   UNL     1     -40.362  53.176 -51.909  1.00  0.00     0.151 A 
HETATM   21  C   UNL     1     -39.810  53.253 -50.628  1.00  0.00     0.052 A 
HETATM   22  C   UNL     1     -40.028  54.399 -49.867  1.00  0.00     0.006 A 
HETATM   23  C   UNL     1     -40.789  55.435 -50.397  1.00  0.00     0.037 A 
BRANCH  20  24
HETATM   24  N   UNL     1     -40.128  52.006 -52.691  1.00  0.00    -0.227 N 
HETATM   25  N   UNL     1     -39.592  50.869 -52.167  1.00  0.00    -0.179 NA
HETATM   26  C   UNL     1     -39.531  50.024 -53.197  1.00  0.00     0.141 A 
HETATM   27  C   UNL     1     -40.018  50.586 -54.388  1.00  0.00     0.040 A 
HETATM   28  C   UNL     1     -40.396  51.859 -54.037  1.00  0.00     0.122 A 
ENDBRANCH  20  24
ENDBRANCH   2  18
TORSDOF 7
ENDMDL
MODEL 7
REMARK VINA RESULT:      -7.1     15.360     17.266
REMARK  7 active torsions:
REMARK  status: ('A' for Active; 'I' for Inactive)
REMARK    1  A    between atoms: C_2  and  N_3 
REMARK    2  A    between atoms: C_2  and  C_17 
REMARK       I    between atoms: N_3  and  C_4 
REMARK    3  A    between atoms: C_4  and  C_5 
REMARK    4  A    between atoms: C_7  and  N_8 
REMARK    5  A    between atoms: C_17  and  O_18 
REMARK    6  A    between atoms: C_17  and  C_19 
REMARK    7  A    between atoms: C_22  and  O_23 
ROOT
HETATM    1  N   UNL     1     -37.256  41.161 -54.857  1.00  0.00    -0.349 N 
HETATM    2  C   UNL     1     -36.969  40.194 -55.796  1.00  0.00     0.270 C 
HETATM    3  O   UNL     1     -36.591  39.062 -55.519  1.00  0.00    -0.266 OA
HETATM    4  H   UNL     1     -37.407  42.100 -55.217  1.00  0.00     0.163 HD
ENDROOT
BRANCH   1   5
HETATM    5  C   UNL     1     -37.026  40.961 -53.429  1.00  0.00     0.114 C 
HETATM    6  C   UNL     1     -38.357  40.997 -52.679  1.00  0.00     0.035 C 
BRANCH   5   7
HETATM    7  C   UNL     1     -35.952  41.925 -52.847  1.00  0.00     0.173 C 
BRANCH   7   8
HETATM    8  O   UNL     1     -35.500  42.828 -53.864  1.00  0.00    -0.389 OA
HETATM    9  H   UNL     1     -35.435  42.304 -54.682  1.00  0.00     0.210 HD
ENDBRANCH   7   8
BRANCH   7  10
HETATM   10  C   UNL     1     -34.757  41.235 -52.209  1.00  0.00    -0.028 A 
HETATM   11  C   UNL     1     -34.564  41.302 -50.823  1.00  0.00     0.012 A 
HETATM   12  C   UNL     1     -33.470  40.667 -50.228  1.00  0.00     0.037 A 
HETATM   13  C   UNL     1     -32.549  39.957 -50.999  1.00  0.00     0.068 A 
HETATM   14  C   UNL     1     -32.734  39.879 -52.377  1.00  0.00     0.037 A 
HETATM   15  C   UNL     1     -33.830  40.513 -52.977  1.00  0.00     0.012 A 
BRANCH  13  16
HETATM   16  O   UNL     1     -31.525  39.389 -50.291  1.00  0.00    -0.356 OA
HETATM   17  C   UNL     1     -31.597  39.478 -48.874  1.00  0.00     0.210 C 
ENDBRANCH  13  16
ENDBRANCH   7  10
ENDBRANCH   5   7
ENDBRANCH   1   5
BRANCH   2  18
HETATM   18  C   UNL     1     -37.134  40.639 -57.218  1.00  0.00     0.126 A 
HETATM   19  N   UNL     1     -37.631  39.711 -58.084  1.00  0.00    -0.224 NA
HETATM   20  C   UNL     1     -37.784  40.108 -59.378  1.00  0.00     0.151 A 
HETATM   21  C   UNL     1     -37.456  41.391 -59.820  1.00  0.00     0.052 A 
HETATM   22  C   UNL     1     -36.954  42.313 -58.904  1.00  0.00     0.006 A 
HETATM   23  C   UNL     1     -36.791  41.935 -57.576  1.00  0.00     0.037 A 
BRANCH  20  24
HETATM   24  N   UNL     1     -38.309  39.169 -60.315  1.00  0.00    -0.227 N 
HETATM   25  N   UNL     1     -37.857  39.083 -61.597  1.00  0.00    -0.179 NA
HETATM   26  C   UNL     1     -38.587  38.108 -62.142  1.00  0.00     0.141 A 
HETATM   27  C   UNL     1     -39.508  37.552 -61.241  1.00  0.00     0.040 A 
HETATM   28  C   UNL     1     -39.310  38.249 -60.075  1.00  0.00     0.122 A 
ENDBRANCH  20  24
ENDBRANCH   2  18
TORSDOF 7
ENDMDL
MODEL 8
REMARK VINA RESULT:      -7.0     15.607     19.152
REMARK  7 active torsions:
REMARK  status: ('A' for Active; 'I' for Inactive)
REMARK    1  A    between atoms: C_2  and  N_3 
REMARK    2  A    between atoms: C_2  and  C_17 
REMARK       I    between atoms: N_3  and  C_4 
REMARK    3  A    between atoms: C_4  and  C_5 
REMARK    4  A    between atoms: C_7  and  N_8 
REMARK    5  A    between atoms: C_17  and  O_18 
REMARK    6  A    between atoms: C_17  and  C_19 
REMARK    7  A    between atoms: C_22  and  O_23 
ROOT
HETATM    1  N   UNL     1     -34.160  40.255 -54.242  1.00  0.00    -0.349 N 
HETATM    2  C   UNL     1     -32.791  40.165 -54.379  1.00  0.00     0.270 C 
HETATM    3  O   UNL     1     -31.992  40.688 -53.611  1.00  0.00    -0.266 OA
HETATM    4  H   UNL     1     -34.708  39.912 -55.026  1.00  0.00     0.163 HD
ENDROOT
BRANCH   1   5
HETATM    5  C   UNL     1     -34.793  41.085 -53.222  1.00  0.00     0.114 C 
HETATM    6  C   UNL     1     -35.551  40.201 -52.232  1.00  0.00     0.035 C 
BRANCH   5   7
HETATM    7  C   UNL     1     -35.655  42.233 -53.824  1.00  0.00     0.173 C 
BRANCH   7   8
HETATM    8  O   UNL     1     -36.750  42.534 -52.950  1.00  0.00    -0.389 OA
HETATM    9  H   UNL     1     -37.204  43.303 -53.340  1.00  0.00     0.210 HD
ENDBRANCH   7   8
BRANCH   7  10
HETATM   10  C   UNL     1     -36.179  41.966 -55.225  1.00  0.00    -0.028 A 
HETATM   11  C   UNL     1     -35.391  42.279 -56.341  1.00  0.00     0.012 A 
HETATM   12  C   UNL     1     -35.863  42.034 -57.634  1.00  0.00     0.037 A 
HETATM   13  C   UNL     1     -37.125  41.474 -57.840  1.00  0.00     0.068 A 
HETATM   14  C   UNL     1     -37.914  41.154 -56.738  1.00  0.00     0.037 A 
HETATM   15  C   UNL     1     -37.444  41.398 -55.441  1.00  0.00     0.012 A 
BRANCH  13  16
HETATM   16  O   UNL     1     -37.464  41.292 -59.153  1.00  0.00    -0.356 OA
HETATM   17  C   UNL     1     -37.360  42.425 -60.006  1.00  0.00     0.210 C 
ENDBRANCH  13  16
ENDBRANCH   7  10
ENDBRANCH   5   7
ENDBRANCH   1   5
BRANCH   2  18
HETATM   18  C   UNL     1     -32.334  39.383 -55.572  1.00  0.00     0.126 A 
HETATM   19  N   UNL     1     -30.996  39.133 -55.652  1.00  0.00    -0.224 NA
HETATM   20  C   UNL     1     -30.574  38.422 -56.733  1.00  0.00     0.151 A 
HETATM   21  C   UNL     1     -31.443  37.963 -57.724  1.00  0.00     0.052 A 
HETATM   22  C   UNL     1     -32.805  38.234 -57.607  1.00  0.00     0.006 A 
HETATM   23  C   UNL     1     -33.264  38.956 -56.510  1.00  0.00     0.037 A 
BRANCH  20  24
HETATM   24  N   UNL     1     -29.181  38.133 -56.850  1.00  0.00    -0.227 N 
HETATM   25  N   UNL     1     -28.533  38.121 -58.048  1.00  0.00    -0.179 NA
HETATM   26  C   UNL     1     -27.273  37.811 -57.741  1.00  0.00     0.141 A 
HETATM   27  C   UNL     1     -27.081  37.619 -56.364  1.00  0.00     0.040 A 
HETATM   28  C   UNL     1     -28.321  37.832 -55.813  1.00  0.00     0.122 A 
ENDBRANCH  20  24
ENDBRANCH   2  18
TORSDOF 7
ENDMDL
MODEL 9
REMARK VINA RESULT:      -6.7     15.569     18.453
REMARK  7 active torsions:
REMARK  status: ('A' for Active; 'I' for Inactive)
REMARK    1  A    between atoms: C_2  and  N_3 
REMARK    2  A    between atoms: C_2  and  C_17 
REMARK       I    between atoms: N_3  and  C_4 
REMARK    3  A    between atoms: C_4  and  C_5 
REMARK    4  A    between atoms: C_7  and  N_8 
REMARK    5  A    between atoms: C_17  and  O_18 
REMARK    6  A    between atoms: C_17  and  C_19 
REMARK    7  A    between atoms: C_22  and  O_23 
ROOT
HETATM    1  N   UNL     1     -36.339  40.370 -51.468  1.00  0.00    -0.349 N 
HETATM    2  C   UNL     1     -36.987  39.179 -51.716  1.00  0.00     0.270 C 
HETATM    3  O   UNL     1     -36.804  38.496 -52.717  1.00  0.00    -0.266 OA
HETATM    4  H   UNL     1     -36.692  40.914 -50.684  1.00  0.00     0.163 HD
ENDROOT
BRANCH   1   5
HETATM    5  C   UNL     1     -35.446  40.994 -52.439  1.00  0.00     0.114 C 
HETATM    6  C   UNL     1     -34.135  41.390 -51.759  1.00  0.00     0.035 C 
BRANCH   5   7
HETATM    7  C   UNL     1     -36.121  42.157 -53.224  1.00  0.00     0.173 C 
BRANCH   7   8
HETATM    8  O   UNL     1     -37.407  42.447 -52.662  1.00  0.00    -0.389 OA
HETATM    9  H   UNL     1     -37.825  41.586 -52.484  1.00  0.00     0.210 HD
ENDBRANCH   7   8
BRANCH   7  10
HETATM   10  C   UNL     1     -36.260  41.918 -54.718  1.00  0.00    -0.028 A 
HETATM   11  C   UNL     1     -35.251  42.339 -55.594  1.00  0.00     0.012 A 
HETATM   12  C   UNL     1     -35.368  42.121 -56.970  1.00  0.00     0.037 A 
HETATM   13  C   UNL     1     -36.489  41.481 -57.499  1.00  0.00     0.068 A 
HETATM   14  C   UNL     1     -37.496  41.052 -56.636  1.00  0.00     0.037 A 
HETATM   15  C   UNL     1     -37.381  41.269 -55.258  1.00  0.00     0.012 A 
BRANCH  13  16
HETATM   16  O   UNL     1     -36.479  41.336 -58.859  1.00  0.00    -0.356 OA
HETATM   17  C   UNL     1     -37.249  42.266 -59.610  1.00  0.00     0.210 C 
ENDBRANCH  13  16
ENDBRANCH   7  10
ENDBRANCH   5   7
ENDBRANCH   1   5
BRANCH   2  18
HETATM   18  C   UNL     1     -37.973  38.775 -50.662  1.00  0.00     0.126 A 
HETATM   19  N   UNL     1     -39.240  38.514 -51.091  1.00  0.00    -0.224 NA
HETATM   20  C   UNL     1     -40.141  38.145 -50.139  1.00  0.00     0.151 A 
HETATM   21  C   UNL     1     -39.811  38.035 -48.787  1.00  0.00     0.052 A 
HETATM   22  C   UNL     1     -38.505  38.306 -48.387  1.00  0.00     0.006 A 
HETATM   23  C   UNL     1     -37.564  38.681 -49.339  1.00  0.00     0.037 A 
BRANCH  20  24
HETATM   24  N   UNL     1     -41.477  37.856 -50.549  1.00  0.00    -0.227 N 
HETATM   25  N   UNL     1     -41.780  37.416 -51.802  1.00  0.00    -0.179 NA
HETATM   26  C   UNL     1     -43.106  37.269 -51.791  1.00  0.00     0.141 A 
HETATM   27  C   UNL     1     -43.678  37.602 -50.553  1.00  0.00     0.040 A 
HETATM   28  C   UNL     1     -42.612  37.976 -49.772  1.00  0.00     0.122 A 
ENDBRANCH  20  24
ENDBRANCH   2  18
TORSDOF 7
ENDMDL
MODEL 10
REMARK VINA RESULT:      -6.7      4.701      7.174
REMARK  7 active torsions:
REMARK  status: ('A' for Active; 'I' for Inactive)
REMARK    1  A    between atoms: C_2  and  N_3 
REMARK    2  A    between atoms: C_2  and  C_17 
REMARK       I    between atoms: N_3  and  C_4 
REMARK    3  A    between atoms: C_4  and  C_5 
REMARK    4  A    between atoms: C_7  and  N_8 
REMARK    5  A    between atoms: C_17  and  O_18 
REMARK    6  A    between atoms: C_17  and  C_19 
REMARK    7  A    between atoms: C_22  and  O_23 
ROOT
HETATM    1  N   UNL     1     -43.201  57.804 -52.485  1.00  0.00    -0.349 N 
HETATM    2  C   UNL     1     -43.034  58.794 -51.540  1.00  0.00     0.270 C 
HETATM    3  O   UNL     1     -42.030  58.917 -50.850  1.00  0.00    -0.266 OA
HETATM    4  H   UNL     1     -44.136  57.716 -52.877  1.00  0.00     0.163 HD
ENDROOT
BRANCH   1   5
HETATM    5  C   UNL     1     -42.231  56.730 -52.676  1.00  0.00     0.114 C 
HETATM    6  C   UNL     1     -41.188  57.151 -53.712  1.00  0.00     0.035 C 
BRANCH   5   7
HETATM    7  C   UNL     1     -42.898  55.357 -52.981  1.00  0.00     0.173 C 
BRANCH   7   8
HETATM    8  O   UNL     1     -43.861  55.044 -51.967  1.00  0.00    -0.389 OA
HETATM    9  H   UNL     1     -43.938  54.073 -51.957  1.00  0.00     0.210 HD
ENDBRANCH   7   8
BRANCH   7  10
HETATM   10  C   UNL     1     -41.926  54.199 -53.137  1.00  0.00    -0.028 A 
HETATM   11  C   UNL     1     -41.136  53.795 -52.053  1.00  0.00     0.012 A 
HETATM   12  C   UNL     1     -40.241  52.729 -52.186  1.00  0.00     0.037 A 
HETATM   13  C   UNL     1     -40.117  52.047 -53.397  1.00  0.00     0.068 A 
HETATM   14  C   UNL     1     -40.902  52.437 -54.480  1.00  0.00     0.037 A 
HETATM   15  C   UNL     1     -41.799  53.504 -54.350  1.00  0.00     0.012 A 
BRANCH  13  16
HETATM   16  O   UNL     1     -39.203  51.029 -53.391  1.00  0.00    -0.356 OA
HETATM   17  C   UNL     1     -39.497  49.898 -54.201  1.00  0.00     0.210 C 
ENDBRANCH  13  16
ENDBRANCH   7  10
ENDBRANCH   5   7
ENDBRANCH   1   5
BRANCH   2  18
HETATM   18  C   UNL     1     -44.204  59.719 -51.395  1.00  0.00     0.126 A 
HETATM   19  N   UNL     1     -44.398  60.253 -50.156  1.00  0.00    -0.224 NA
HETATM   20  C   UNL     1     -45.458  61.096 -50.016  1.00  0.00     0.151 A 
HETATM   21  C   UNL     1     -46.318  61.412 -51.070  1.00  0.00     0.052 A 
HETATM   22  C   UNL     1     -46.086  60.849 -52.323  1.00  0.00     0.006 A 
HETATM   23  C   UNL     1     -45.007  59.988 -52.494  1.00  0.00     0.037 A 
BRANCH  20  24
HETATM   24  N   UNL     1     -45.692  61.682 -48.736  1.00  0.00    -0.227 N 
HETATM   25  N   UNL     1     -44.909  61.414 -47.654  1.00  0.00    -0.179 NA
HETATM   26  C   UNL     1     -45.445  62.136 -46.669  1.00  0.00     0.141 A 
HETATM   27  C   UNL     1     -46.565  62.874 -47.085  1.00  0.00     0.040 A 
HETATM   28  C   UNL     1     -46.702  62.566 -48.416  1.00  0.00     0.122 A 
ENDBRANCH  20  24
ENDBRANCH   2  18
TORSDOF 7
ENDMDL
