MODEL 1
REMARK VINA RESULT:      -9.1      0.000      0.000
REMARK  8 active torsions:
REMARK  status: ('A' for Active; 'I' for Inactive)
REMARK    1  A    between atoms: C_8  and  C_9 
REMARK    2  A    between atoms: C_9  and  C_10 
REMARK       I    between atoms: C_10  and  N_11 
REMARK    3  A    between atoms: N_11  and  C_27 
REMARK    4  A    between atoms: N_11  and  C_12 
REMARK    5  A    between atoms: C_12  and  C_13 
REMARK    6  A    between atoms: C_12  and  C_22 
REMARK       I    between atoms: C_13  and  N_14 
REMARK    7  A    between atoms: N_14  and  C_15 
REMARK    8  A    between atoms: C_27  and  C_28 
ROOT
HETATM    1  C   UNL     1     -42.213  54.755 -53.474  1.00  0.00     0.225 C 
HETATM    2  N   UNL     1     -42.999  55.870 -53.175  1.00  0.00    -0.330 N 
HETATM    3  O   UNL     1     -42.574  53.913 -54.301  1.00  0.00    -0.273 OA
ENDROOT
BRANCH   2   4
HETATM    4  C   UNL     1     -44.239  56.047 -53.953  1.00  0.00     0.165 C 
BRANCH   4   5
HETATM    5  C   UNL     1     -44.118  57.080 -55.052  1.00  0.00    -0.037 A 
HETATM    6  C   UNL     1     -43.077  56.992 -55.994  1.00  0.00     0.048 A 
HETATM    7  C   UNL     1     -42.979  57.980 -56.952  1.00  0.00     0.105 A 
HETATM    8  C   UNL     1     -43.876  59.019 -57.018  1.00  0.00     0.105 A 
HETATM    9  O   UNL     1     -42.015  58.068 -57.909  1.00  0.00    -0.323 OA
HETATM   10  O   UNL     1     -43.595  59.888 -58.025  1.00  0.00    -0.323 OA
HETATM   11  C   UNL     1     -44.927  59.123 -56.137  1.00  0.00     0.040 A 
HETATM   12  C   UNL     1     -42.415  59.278 -58.587  1.00  0.00     0.352 A 
HETATM   13  C   UNL     1     -45.047  58.140 -55.151  1.00  0.00     0.012 A 
ENDBRANCH   4   5
ENDBRANCH   2   4
BRANCH   2  14
HETATM   14  C   UNL     1     -42.812  56.661 -51.928  1.00  0.00     0.219 C 
BRANCH  14  15
HETATM   15  C   UNL     1     -44.148  57.238 -51.356  1.00  0.00     0.246 C 
HETATM   16  N   UNL     1     -44.509  58.517 -51.710  1.00  0.00    -0.354 N 
HETATM   17  H   UNL     1     -43.822  59.055 -52.227  1.00  0.00     0.162 HD
HETATM   18  O   UNL     1     -44.884  56.519 -50.679  1.00  0.00    -0.271 OA
BRANCH  16  19
HETATM   19  C   UNL     1     -45.637  59.288 -51.182  1.00  0.00     0.084 C 
HETATM   20  C   UNL     1     -45.415  59.925 -49.800  1.00  0.00     0.025 C 
HETATM   21  C   UNL     1     -44.934  61.373 -49.796  1.00  0.00     0.002 C 
HETATM   22  C   UNL     1     -45.689  62.246 -50.789  1.00  0.00     0.000 C 
HETATM   23  C   UNL     1     -45.664  61.656 -52.192  1.00  0.00     0.002 C 
HETATM   24  C   UNL     1     -46.242  60.245 -52.217  1.00  0.00     0.025 C 
ENDBRANCH  16  19
ENDBRANCH  14  15
BRANCH  14  25
HETATM   25  C   UNL     1     -41.661  57.652 -52.026  1.00  0.00     0.014 A 
HETATM   26  S   UNL     1     -40.861  58.162 -50.580  1.00  0.00    -0.104 SA
HETATM   27  C   UNL     1     -39.764  59.146 -51.439  1.00  0.00     0.050 A 
HETATM   28  C   UNL     1     -39.947  59.055 -52.797  1.00  0.00     0.008 A 
HETATM   29  C   UNL     1     -41.017  58.179 -53.133  1.00  0.00     0.017 A 
ENDBRANCH  14  25
ENDBRANCH   2  14
BRANCH   1  30
HETATM   30  C   UNL     1     -40.827  54.636 -52.860  1.00  0.00     0.144 C 
BRANCH  30  31
HETATM   31  C   UNL     1     -40.471  53.367 -52.143  1.00  0.00    -0.021 A 
HETATM   32  C   UNL     1     -40.090  52.072 -52.639  1.00  0.00    -0.001 A 
HETATM   33  C   UNL     1     -39.883  51.511 -53.916  1.00  0.00     0.014 A 
HETATM   34  C   UNL     1     -39.941  51.230 -51.531  1.00  0.00     0.042 A 
HETATM   35  C   UNL     1     -39.576  50.149 -54.042  1.00  0.00     0.001 A 
HETATM   36  C   UNL     1     -39.451  49.341 -52.917  1.00  0.00     0.002 A 
HETATM   37  C   UNL     1     -39.622  49.870 -51.638  1.00  0.00     0.030 A 
HETATM   38  N   UNL     1     -40.164  51.987 -50.409  1.00  0.00    -0.365 N 
HETATM   39  H   UNL     1     -40.109  51.636 -49.462  1.00  0.00     0.165 HD
HETATM   40  C   UNL     1     -40.491  53.264 -50.761  1.00  0.00     0.097 A 
ENDBRANCH  30  31
ENDBRANCH   1  30
TORSDOF 8
ENDMDL
MODEL 2
REMARK VINA RESULT:      -8.7      1.724      2.593
REMARK  8 active torsions:
REMARK  status: ('A' for Active; 'I' for Inactive)
REMARK    1  A    between atoms: C_8  and  C_9 
REMARK    2  A    between atoms: C_9  and  C_10 
REMARK       I    between atoms: C_10  and  N_11 
REMARK    3  A    between atoms: N_11  and  C_27 
REMARK    4  A    between atoms: N_11  and  C_12 
REMARK    5  A    between atoms: C_12  and  C_13 
REMARK    6  A    between atoms: C_12  and  C_22 
REMARK       I    between atoms: C_13  and  N_14 
REMARK    7  A    between atoms: N_14  and  C_15 
REMARK    8  A    between atoms: C_27  and  C_28 
ROOT
HETATM    1  C   UNL     1     -43.242  56.193 -50.809  1.00  0.00     0.225 C 
HETATM    2  N   UNL     1     -43.485  57.455 -51.355  1.00  0.00    -0.330 N 
HETATM    3  O   UNL     1     -44.067  55.279 -50.900  1.00  0.00    -0.273 OA
ENDROOT
BRANCH   2   4
HETATM    4  C   UNL     1     -44.732  57.626 -52.123  1.00  0.00     0.165 C 
BRANCH   4   5
HETATM    5  C   UNL     1     -44.528  57.578 -53.622  1.00  0.00    -0.037 A 
HETATM    6  C   UNL     1     -43.809  56.519 -54.205  1.00  0.00     0.048 A 
HETATM    7  C   UNL     1     -43.609  56.539 -55.569  1.00  0.00     0.105 A 
HETATM    8  C   UNL     1     -44.109  57.544 -56.362  1.00  0.00     0.105 A 
HETATM    9  O   UNL     1     -42.907  55.618 -56.284  1.00  0.00    -0.323 OA
HETATM   10  O   UNL     1     -43.791  57.382 -57.674  1.00  0.00    -0.323 OA
HETATM   11  C   UNL     1     -44.846  58.580 -55.836  1.00  0.00     0.040 A 
HETATM   12  C   UNL     1     -43.030  56.159 -57.618  1.00  0.00     0.352 A 
HETATM   13  C   UNL     1     -45.058  58.589 -54.455  1.00  0.00     0.012 A 
ENDBRANCH   4   5
ENDBRANCH   2   4
BRANCH   2  14
HETATM   14  C   UNL     1     -42.734  58.665 -50.923  1.00  0.00     0.219 C 
BRANCH  14  15
HETATM   15  C   UNL     1     -43.597  59.968 -50.944  1.00  0.00     0.246 C 
HETATM   16  N   UNL     1     -44.180  60.383 -49.769  1.00  0.00    -0.354 N 
HETATM   17  H   UNL     1     -44.114  59.747 -48.982  1.00  0.00     0.162 HD
HETATM   18  O   UNL     1     -43.666  60.638 -51.976  1.00  0.00    -0.271 OA
BRANCH  16  19
HETATM   19  C   UNL     1     -45.127  61.487 -49.603  1.00  0.00     0.084 C 
HETATM   20  C   UNL     1     -45.847  61.543 -48.245  1.00  0.00     0.025 C 
HETATM   21  C   UNL     1     -45.218  62.444 -47.185  1.00  0.00     0.002 C 
HETATM   22  C   UNL     1     -44.794  63.796 -47.740  1.00  0.00     0.000 C 
HETATM   23  C   UNL     1     -43.887  63.649 -48.955  1.00  0.00     0.002 C 
HETATM   24  C   UNL     1     -44.556  62.837 -50.058  1.00  0.00     0.025 C 
ENDBRANCH  16  19
ENDBRANCH  14  15
BRANCH  14  25
HETATM   25  C   UNL     1     -41.367  58.776 -51.583  1.00  0.00     0.014 A 
HETATM   26  S   UNL     1     -40.033  59.379 -50.663  1.00  0.00    -0.104 SA
HETATM   27  C   UNL     1     -38.944  59.181 -51.962  1.00  0.00     0.050 A 
HETATM   28  C   UNL     1     -39.549  58.613 -53.056  1.00  0.00     0.008 A 
HETATM   29  C   UNL     1     -40.931  58.358 -52.829  1.00  0.00     0.017 A 
ENDBRANCH  14  25
ENDBRANCH   2  14
BRANCH   1  30
HETATM   30  C   UNL     1     -41.883  55.898 -50.195  1.00  0.00     0.144 C 
BRANCH  30  31
HETATM   31  C   UNL     1     -41.188  54.625 -50.576  1.00  0.00    -0.021 A 
HETATM   32  C   UNL     1     -40.827  54.090 -51.861  1.00  0.00    -0.001 A 
HETATM   33  C   UNL     1     -40.948  54.526 -53.197  1.00  0.00     0.014 A 
HETATM   34  C   UNL     1     -40.261  52.829 -51.643  1.00  0.00     0.042 A 
HETATM   35  C   UNL     1     -40.540  53.693 -54.247  1.00  0.00     0.001 A 
HETATM   36  C   UNL     1     -39.995  52.439 -53.989  1.00  0.00     0.002 A 
HETATM   37  C   UNL     1     -39.835  51.988 -52.679  1.00  0.00     0.030 A 
HETATM   38  N   UNL     1     -40.224  52.626 -50.286  1.00  0.00    -0.365 N 
HETATM   39  H   UNL     1     -39.850  51.800 -49.841  1.00  0.00     0.165 HD
HETATM   40  C   UNL     1     -40.784  53.689 -49.637  1.00  0.00     0.097 A 
ENDBRANCH  30  31
ENDBRANCH   1  30
TORSDOF 8
ENDMDL
MODEL 3
REMARK VINA RESULT:      -8.6      2.105      4.739
REMARK  8 active torsions:
REMARK  status: ('A' for Active; 'I' for Inactive)
REMARK    1  A    between atoms: C_8  and  C_9 
REMARK    2  A    between atoms: C_9  and  C_10 
REMARK       I    between atoms: C_10  and  N_11 
REMARK    3  A    between atoms: N_11  and  C_27 
REMARK    4  A    between atoms: N_11  and  C_12 
REMARK    5  A    between atoms: C_12  and  C_13 
REMARK    6  A    between atoms: C_12  and  C_22 
REMARK       I    between atoms: C_13  and  N_14 
REMARK    7  A    between atoms: N_14  and  C_15 
REMARK    8  A    between atoms: C_27  and  C_28 
ROOT
HETATM    1  C   UNL     1     -42.558  55.403 -53.642  1.00  0.00     0.225 C 
HETATM    2  N   UNL     1     -43.189  56.172 -54.623  1.00  0.00    -0.330 N 
HETATM    3  O   UNL     1     -43.157  55.031 -52.628  1.00  0.00    -0.273 OA
ENDROOT
BRANCH   2   4
HETATM    4  C   UNL     1     -44.626  56.446 -54.441  1.00  0.00     0.165 C 
BRANCH   4   5
HETATM    5  C   UNL     1     -44.903  57.683 -53.614  1.00  0.00    -0.037 A 
HETATM    6  C   UNL     1     -44.977  57.596 -52.213  1.00  0.00     0.048 A 
HETATM    7  C   UNL     1     -45.276  58.739 -51.502  1.00  0.00     0.105 A 
HETATM    8  C   UNL     1     -45.478  59.948 -52.123  1.00  0.00     0.105 A 
HETATM    9  O   UNL     1     -45.423  58.821 -50.152  1.00  0.00    -0.323 OA
HETATM   10  O   UNL     1     -45.772  60.944 -51.246  1.00  0.00    -0.323 OA
HETATM   11  C   UNL     1     -45.382  60.084 -53.489  1.00  0.00     0.040 A 
HETATM   12  C   UNL     1     -45.734  60.223 -49.997  1.00  0.00     0.352 A 
HETATM   13  C   UNL     1     -45.087  58.939 -54.235  1.00  0.00     0.012 A 
ENDBRANCH   4   5
ENDBRANCH   2   4
BRANCH   2  14
HETATM   14  C   UNL     1     -42.423  56.969 -55.619  1.00  0.00     0.219 C 
BRANCH  14  15
HETATM   15  C   UNL     1     -41.832  58.291 -55.029  1.00  0.00     0.246 C 
HETATM   16  N   UNL     1     -41.322  58.264 -53.751  1.00  0.00    -0.354 N 
HETATM   17  H   UNL     1     -41.473  57.412 -53.222  1.00  0.00     0.162 HD
HETATM   18  O   UNL     1     -41.754  59.295 -55.738  1.00  0.00    -0.271 OA
BRANCH  16  19
HETATM   19  C   UNL     1     -40.852  59.410 -52.971  1.00  0.00     0.084 C 
HETATM   20  C   UNL     1     -41.928  60.133 -52.143  1.00  0.00     0.025 C 
HETATM   21  C   UNL     1     -42.063  59.698 -50.686  1.00  0.00     0.002 C 
HETATM   22  C   UNL     1     -40.717  59.546 -49.992  1.00  0.00     0.000 C 
HETATM   23  C   UNL     1     -39.785  58.621 -50.764  1.00  0.00     0.002 C 
HETATM   24  C   UNL     1     -39.565  59.113 -52.190  1.00  0.00     0.025 C 
ENDBRANCH  16  19
ENDBRANCH  14  15
BRANCH  14  25
HETATM   25  C   UNL     1     -43.157  57.117 -56.944  1.00  0.00     0.014 A 
HETATM   26  S   UNL     1     -43.140  55.804 -58.069  1.00  0.00    -0.104 SA
HETATM   27  C   UNL     1     -44.122  56.642 -59.185  1.00  0.00     0.050 A 
HETATM   28  C   UNL     1     -44.514  57.866 -58.704  1.00  0.00     0.008 A 
HETATM   29  C   UNL     1     -43.982  58.127 -57.410  1.00  0.00     0.017 A 
ENDBRANCH  14  25
ENDBRANCH   2  14
BRANCH   1  30
HETATM   30  C   UNL     1     -41.141  54.910 -53.880  1.00  0.00     0.144 C 
BRANCH  30  31
HETATM   31  C   UNL     1     -40.600  53.832 -52.988  1.00  0.00    -0.021 A 
HETATM   32  C   UNL     1     -40.292  52.452 -53.248  1.00  0.00    -0.001 A 
HETATM   33  C   UNL     1     -40.344  51.610 -54.379  1.00  0.00     0.014 A 
HETATM   34  C   UNL     1     -39.883  51.881 -52.037  1.00  0.00     0.042 A 
HETATM   35  C   UNL     1     -40.029  50.250 -54.256  1.00  0.00     0.001 A 
HETATM   36  C   UNL     1     -39.641  49.718 -53.031  1.00  0.00     0.002 A 
HETATM   37  C   UNL     1     -39.551  50.528 -51.899  1.00  0.00     0.030 A 
HETATM   38  N   UNL     1     -39.886  52.878 -51.094  1.00  0.00    -0.365 N 
HETATM   39  H   UNL     1     -39.620  52.752 -50.127  1.00  0.00     0.165 HD
HETATM   40  C   UNL     1     -40.321  54.047 -51.647  1.00  0.00     0.097 A 
ENDBRANCH  30  31
ENDBRANCH   1  30
TORSDOF 8
ENDMDL
MODEL 4
REMARK VINA RESULT:      -8.6      2.445      5.667
REMARK  8 active torsions:
REMARK  status: ('A' for Active; 'I' for Inactive)
REMARK    1  A    between atoms: C_8  and  C_9 
REMARK    2  A    between atoms: C_9  and  C_10 
REMARK       I    between atoms: C_10  and  N_11 
REMARK    3  A    between atoms: N_11  and  C_27 
REMARK    4  A    between atoms: N_11  and  C_12 
REMARK    5  A    between atoms: C_12  and  C_13 
REMARK    6  A    between atoms: C_12  and  C_22 
REMARK       I    between atoms: C_13  and  N_14 
REMARK    7  A    between atoms: N_14  and  C_15 
REMARK    8  A    between atoms: C_27  and  C_28 
ROOT
HETATM    1  C   UNL     1     -41.514  55.979 -54.205  1.00  0.00     0.225 C 
HETATM    2  N   UNL     1     -42.320  57.110 -54.065  1.00  0.00    -0.330 N 
HETATM    3  O   UNL     1     -40.322  56.069 -54.516  1.00  0.00    -0.273 OA
ENDROOT
BRANCH   2   4
HETATM    4  C   UNL     1     -41.668  58.424 -54.216  1.00  0.00     0.165 C 
BRANCH   4   5
HETATM    5  C   UNL     1     -40.998  58.913 -52.950  1.00  0.00    -0.037 A 
HETATM    6  C   UNL     1     -39.608  58.776 -52.787  1.00  0.00     0.048 A 
HETATM    7  C   UNL     1     -39.045  59.195 -51.599  1.00  0.00     0.105 A 
HETATM    8  C   UNL     1     -39.800  59.754 -50.597  1.00  0.00     0.105 A 
HETATM    9  O   UNL     1     -37.730  59.100 -51.264  1.00  0.00    -0.323 OA
HETATM   10  O   UNL     1     -39.058  60.087 -49.507  1.00  0.00    -0.323 OA
HETATM   11  C   UNL     1     -41.157  59.937 -50.729  1.00  0.00     0.040 A 
HETATM   12  C   UNL     1     -37.746  59.671 -49.938  1.00  0.00     0.352 A 
HETATM   13  C   UNL     1     -41.755  59.515 -51.920  1.00  0.00     0.012 A 
ENDBRANCH   4   5
ENDBRANCH   2   4
BRANCH   2  14
HETATM   14  C   UNL     1     -43.806  57.035 -54.105  1.00  0.00     0.219 C 
BRANCH  14  15
HETATM   15  C   UNL     1     -44.404  57.367 -55.510  1.00  0.00     0.246 C 
HETATM   16  N   UNL     1     -43.752  56.894 -56.625  1.00  0.00    -0.354 N 
HETATM   17  H   UNL     1     -42.850  56.458 -56.470  1.00  0.00     0.162 HD
HETATM   18  O   UNL     1     -45.479  57.964 -55.591  1.00  0.00    -0.271 OA
BRANCH  16  19
HETATM   19  C   UNL     1     -44.065  57.204 -58.021  1.00  0.00     0.084 C 
HETATM   20  C   UNL     1     -43.543  58.557 -58.532  1.00  0.00     0.025 C 
HETATM   21  C   UNL     1     -42.197  58.533 -59.252  1.00  0.00     0.002 C 
HETATM   22  C   UNL     1     -42.084  57.387 -60.247  1.00  0.00     0.000 C 
HETATM   23  C   UNL     1     -42.394  56.044 -59.599  1.00  0.00     0.002 C 
HETATM   24  C   UNL     1     -43.783  56.032 -58.971  1.00  0.00     0.025 C 
ENDBRANCH  16  19
ENDBRANCH  14  15
BRANCH  14  25
HETATM   25  C   UNL     1     -44.463  57.746 -52.931  1.00  0.00     0.014 A 
HETATM   26  S   UNL     1     -44.369  57.038 -51.355  1.00  0.00    -0.104 SA
HETATM   27  C   UNL     1     -45.226  58.327 -50.638  1.00  0.00     0.050 A 
HETATM   28  C   UNL     1     -45.530  59.311 -51.546  1.00  0.00     0.008 A 
HETATM   29  C   UNL     1     -45.070  58.988 -52.855  1.00  0.00     0.017 A 
ENDBRANCH  14  25
ENDBRANCH   2  14
BRANCH   1  30
HETATM   30  C   UNL     1     -42.079  54.613 -53.852  1.00  0.00     0.144 C 
BRANCH  30  31
HETATM   31  C   UNL     1     -41.245  53.689 -53.014  1.00  0.00    -0.021 A 
HETATM   32  C   UNL     1     -40.692  52.392 -53.298  1.00  0.00    -0.001 A 
HETATM   33  C   UNL     1     -40.686  51.529 -54.413  1.00  0.00     0.014 A 
HETATM   34  C   UNL     1     -40.058  51.947 -52.133  1.00  0.00     0.042 A 
HETATM   35  C   UNL     1     -40.090  50.264 -54.317  1.00  0.00     0.001 A 
HETATM   36  C   UNL     1     -39.482  49.851 -53.136  1.00  0.00     0.002 A 
HETATM   37  C   UNL     1     -39.447  50.691 -52.023  1.00  0.00     0.030 A 
HETATM   38  N   UNL     1     -40.168  52.946 -51.199  1.00  0.00    -0.365 N 
HETATM   39  H   UNL     1     -39.787  52.901 -50.264  1.00  0.00     0.165 HD
HETATM   40  C   UNL     1     -40.884  53.990 -51.711  1.00  0.00     0.097 A 
ENDBRANCH  30  31
ENDBRANCH   1  30
TORSDOF 8
ENDMDL
MODEL 5
REMARK VINA RESULT:      -8.6      2.347      7.526
REMARK  8 active torsions:
REMARK  status: ('A' for Active; 'I' for Inactive)
REMARK    1  A    between atoms: C_8  and  C_9 
REMARK    2  A    between atoms: C_9  and  C_10 
REMARK       I    between atoms: C_10  and  N_11 
REMARK    3  A    between atoms: N_11  and  C_27 
REMARK    4  A    between atoms: N_11  and  C_12 
REMARK    5  A    between atoms: C_12  and  C_13 
REMARK    6  A    between atoms: C_12  and  C_22 
REMARK       I    between atoms: C_13  and  N_14 
REMARK    7  A    between atoms: N_14  and  C_15 
REMARK    8  A    between atoms: C_27  and  C_28 
ROOT
HETATM    1  C   UNL     1     -43.598  59.450 -54.992  1.00  0.00     0.225 C 
HETATM    2  N   UNL     1     -43.499  58.701 -53.817  1.00  0.00    -0.330 N 
HETATM    3  O   UNL     1     -44.671  59.942 -55.356  1.00  0.00    -0.273 OA
ENDROOT
BRANCH   2   4
HETATM    4  C   UNL     1     -44.709  58.596 -52.982  1.00  0.00     0.165 C 
BRANCH   4   5
HETATM    5  C   UNL     1     -44.744  59.593 -51.844  1.00  0.00    -0.037 A 
HETATM    6  C   UNL     1     -45.387  59.267 -50.637  1.00  0.00     0.048 A 
HETATM    7  C   UNL     1     -45.434  60.223 -49.643  1.00  0.00     0.105 A 
HETATM    8  C   UNL     1     -44.854  61.459 -49.797  1.00  0.00     0.105 A 
HETATM    9  O   UNL     1     -46.046  60.086 -48.436  1.00  0.00    -0.323 OA
HETATM   10  O   UNL     1     -45.022  62.255 -48.708  1.00  0.00    -0.323 OA
HETATM   11  C   UNL     1     -44.186  61.806 -50.949  1.00  0.00     0.040 A 
HETATM   12  C   UNL     1     -45.778  61.377 -47.848  1.00  0.00     0.352 A 
HETATM   13  C   UNL     1     -44.130  60.859 -51.976  1.00  0.00     0.012 A 
ENDBRANCH   4   5
ENDBRANCH   2   4
BRANCH   2  14
HETATM   14  C   UNL     1     -42.366  57.770 -53.565  1.00  0.00     0.219 C 
BRANCH  14  15
HETATM   15  C   UNL     1     -42.791  56.265 -53.566  1.00  0.00     0.246 C 
HETATM   16  N   UNL     1     -41.963  55.354 -52.952  1.00  0.00    -0.354 N 
HETATM   17  H   UNL     1     -41.063  55.699 -52.640  1.00  0.00     0.162 HD
HETATM   18  O   UNL     1     -43.884  55.939 -54.032  1.00  0.00    -0.271 OA
BRANCH  16  19
HETATM   19  C   UNL     1     -42.106  53.897 -52.959  1.00  0.00     0.084 C 
HETATM   20  C   UNL     1     -41.724  53.200 -54.276  1.00  0.00     0.025 C 
HETATM   21  C   UNL     1     -40.297  52.667 -54.367  1.00  0.00     0.002 C 
HETATM   22  C   UNL     1     -39.863  51.932 -53.106  1.00  0.00     0.000 C 
HETATM   23  C   UNL     1     -40.060  52.785 -51.860  1.00  0.00     0.002 C 
HETATM   24  C   UNL     1     -41.510  53.232 -51.711  1.00  0.00     0.025 C 
ENDBRANCH  16  19
ENDBRANCH  14  15
BRANCH  14  25
HETATM   25  C   UNL     1     -41.499  58.202 -52.391  1.00  0.00     0.014 A 
HETATM   26  S   UNL     1     -39.978  58.966 -52.702  1.00  0.00    -0.104 SA
HETATM   27  C   UNL     1     -39.651  59.170 -51.040  1.00  0.00     0.050 A 
HETATM   28  C   UNL     1     -40.688  58.731 -50.255  1.00  0.00     0.008 A 
HETATM   29  C   UNL     1     -41.757  58.200 -51.031  1.00  0.00     0.017 A 
ENDBRANCH  14  25
ENDBRANCH   2  14
BRANCH   1  30
HETATM   30  C   UNL     1     -42.338  59.771 -55.779  1.00  0.00     0.144 C 
BRANCH  30  31
HETATM   31  C   UNL     1     -42.260  59.332 -57.211  1.00  0.00    -0.021 A 
HETATM   32  C   UNL     1     -42.534  58.063 -57.831  1.00  0.00    -0.001 A 
HETATM   33  C   UNL     1     -42.985  56.805 -57.378  1.00  0.00     0.014 A 
HETATM   34  C   UNL     1     -42.225  58.187 -59.190  1.00  0.00     0.042 A 
HETATM   35  C   UNL     1     -43.076  55.730 -58.272  1.00  0.00     0.001 A 
HETATM   36  C   UNL     1     -42.746  55.890 -59.614  1.00  0.00     0.002 A 
HETATM   37  C   UNL     1     -42.323  57.127 -60.100  1.00  0.00     0.030 A 
HETATM   38  N   UNL     1     -41.835  59.485 -59.403  1.00  0.00    -0.365 N 
HETATM   39  H   UNL     1     -41.566  59.861 -60.302  1.00  0.00     0.165 HD
HETATM   40  C   UNL     1     -41.842  60.177 -58.227  1.00  0.00     0.097 A 
ENDBRANCH  30  31
ENDBRANCH   1  30
TORSDOF 8
ENDMDL
MODEL 6
REMARK VINA RESULT:      -8.5      2.321      5.359
REMARK  8 active torsions:
REMARK  status: ('A' for Active; 'I' for Inactive)
REMARK    1  A    between atoms: C_8  and  C_9 
REMARK    2  A    between atoms: C_9  and  C_10 
REMARK       I    between atoms: C_10  and  N_11 
REMARK    3  A    between atoms: N_11  and  C_27 
REMARK    4  A    between atoms: N_11  and  C_12 
REMARK    5  A    between atoms: C_12  and  C_13 
REMARK    6  A    between atoms: C_12  and  C_22 
REMARK       I    between atoms: C_13  and  N_14 
REMARK    7  A    between atoms: N_14  and  C_15 
REMARK    8  A    between atoms: C_27  and  C_28 
ROOT
HETATM    1  C   UNL     1     -41.088  55.564 -54.450  1.00  0.00     0.225 C 
HETATM    2  N   UNL     1     -41.908  56.686 -54.307  1.00  0.00    -0.330 N 
HETATM    3  O   UNL     1     -39.892  55.669 -54.738  1.00  0.00    -0.273 OA
ENDROOT
BRANCH   2   4
HETATM    4  C   UNL     1     -41.265  58.007 -54.427  1.00  0.00     0.165 C 
BRANCH   4   5
HETATM    5  C   UNL     1     -41.604  58.947 -53.290  1.00  0.00    -0.037 A 
HETATM    6  C   UNL     1     -42.357  60.109 -53.533  1.00  0.00     0.048 A 
HETATM    7  C   UNL     1     -42.605  60.961 -52.477  1.00  0.00     0.105 A 
HETATM    8  C   UNL     1     -42.157  60.689 -51.206  1.00  0.00     0.105 A 
HETATM    9  O   UNL     1     -43.280  62.140 -52.545  1.00  0.00    -0.323 OA
HETATM   10  O   UNL     1     -42.497  61.657 -50.314  1.00  0.00    -0.323 OA
HETATM   11  C   UNL     1     -41.447  59.547 -50.919  1.00  0.00     0.040 A 
HETATM   12  C   UNL     1     -43.209  62.574 -51.170  1.00  0.00     0.352 A 
HETATM   13  C   UNL     1     -41.175  58.670 -51.972  1.00  0.00     0.012 A 
ENDBRANCH   4   5
ENDBRANCH   2   4
BRANCH   2  14
HETATM   14  C   UNL     1     -43.391  56.597 -54.374  1.00  0.00     0.219 C 
BRANCH  14  15
HETATM   15  C   UNL     1     -43.994  57.279 -55.646  1.00  0.00     0.246 C 
HETATM   16  N   UNL     1     -43.669  56.761 -56.879  1.00  0.00    -0.354 N 
HETATM   17  H   UNL     1     -42.957  56.040 -56.893  1.00  0.00     0.162 HD
HETATM   18  O   UNL     1     -44.804  58.198 -55.520  1.00  0.00    -0.271 OA
BRANCH  16  19
HETATM   19  C   UNL     1     -44.012  57.327 -58.185  1.00  0.00     0.084 C 
HETATM   20  C   UNL     1     -43.458  58.735 -58.462  1.00  0.00     0.025 C 
HETATM   21  C   UNL     1     -42.135  58.801 -59.222  1.00  0.00     0.002 C 
HETATM   22  C   UNL     1     -42.092  57.851 -60.410  1.00  0.00     0.000 C 
HETATM   23  C   UNL     1     -42.430  56.422 -60.003  1.00  0.00     0.002 C 
HETATM   24  C   UNL     1     -43.800  56.338 -59.338  1.00  0.00     0.025 C 
ENDBRANCH  16  19
ENDBRANCH  14  15
BRANCH  14  25
HETATM   25  C   UNL     1     -44.063  56.962 -53.058  1.00  0.00     0.014 A 
HETATM   26  S   UNL     1     -43.641  56.089 -51.626  1.00  0.00    -0.104 SA
HETATM   27  C   UNL     1     -44.687  57.023 -50.653  1.00  0.00     0.050 A 
HETATM   28  C   UNL     1     -45.304  58.018 -51.371  1.00  0.00     0.008 A 
HETATM   29  C   UNL     1     -44.926  57.998 -52.743  1.00  0.00     0.017 A 
ENDBRANCH  14  25
ENDBRANCH   2  14
BRANCH   1  30
HETATM   30  C   UNL     1     -41.647  54.188 -54.127  1.00  0.00     0.144 C 
BRANCH  30  31
HETATM   31  C   UNL     1     -40.897  53.321 -53.160  1.00  0.00    -0.021 A 
HETATM   32  C   UNL     1     -40.382  51.984 -53.287  1.00  0.00    -0.001 A 
HETATM   33  C   UNL     1     -40.352  51.016 -54.313  1.00  0.00     0.014 A 
HETATM   34  C   UNL     1     -39.829  51.631 -52.051  1.00  0.00     0.042 A 
HETATM   35  C   UNL     1     -39.815  49.746 -54.064  1.00  0.00     0.001 A 
HETATM   36  C   UNL     1     -39.287  49.429 -52.817  1.00  0.00     0.002 A 
HETATM   37  C   UNL     1     -39.276  50.371 -51.788  1.00  0.00     0.030 A 
HETATM   38  N   UNL     1     -39.948  52.720 -51.224  1.00  0.00    -0.365 N 
HETATM   39  H   UNL     1     -39.618  52.752 -50.269  1.00  0.00     0.165 HD
HETATM   40  C   UNL     1     -40.592  53.733 -51.872  1.00  0.00     0.097 A 
ENDBRANCH  30  31
ENDBRANCH   1  30
TORSDOF 8
ENDMDL
MODEL 7
REMARK VINA RESULT:      -8.3      2.887      4.174
REMARK  8 active torsions:
REMARK  status: ('A' for Active; 'I' for Inactive)
REMARK    1  A    between atoms: C_8  and  C_9 
REMARK    2  A    between atoms: C_9  and  C_10 
REMARK       I    between atoms: C_10  and  N_11 
REMARK    3  A    between atoms: N_11  and  C_27 
REMARK    4  A    between atoms: N_11  and  C_12 
REMARK    5  A    between atoms: C_12  and  C_13 
REMARK    6  A    between atoms: C_12  and  C_22 
REMARK       I    between atoms: C_13  and  N_14 
REMARK    7  A    between atoms: N_14  and  C_15 
REMARK    8  A    between atoms: C_27  and  C_28 
ROOT
HETATM    1  C   UNL     1     -42.833  56.309 -55.422  1.00  0.00     0.225 C 
HETATM    2  N   UNL     1     -43.055  57.556 -56.012  1.00  0.00    -0.330 N 
HETATM    3  O   UNL     1     -43.760  55.521 -55.211  1.00  0.00    -0.273 OA
ENDROOT
BRANCH   2   4
HETATM    4  C   UNL     1     -44.429  57.856 -56.454  1.00  0.00     0.165 C 
BRANCH   4   5
HETATM    5  C   UNL     1     -44.768  57.270 -57.808  1.00  0.00    -0.037 A 
HETATM    6  C   UNL     1     -46.004  57.558 -58.414  1.00  0.00     0.048 A 
HETATM    7  C   UNL     1     -46.290  56.967 -59.627  1.00  0.00     0.105 A 
HETATM    8  C   UNL     1     -45.397  56.134 -60.256  1.00  0.00     0.105 A 
HETATM    9  O   UNL     1     -47.448  57.107 -60.327  1.00  0.00    -0.323 OA
HETATM   10  O   UNL     1     -45.875  55.648 -61.432  1.00  0.00    -0.323 OA
HETATM   11  C   UNL     1     -44.164  55.853 -59.714  1.00  0.00     0.040 A 
HETATM   12  C   UNL     1     -47.176  56.270 -61.472  1.00  0.00     0.352 A 
HETATM   13  C   UNL     1     -43.851  56.432 -58.481  1.00  0.00     0.012 A 
ENDBRANCH   4   5
ENDBRANCH   2   4
BRANCH   2  14
HETATM   14  C   UNL     1     -42.073  58.669 -55.906  1.00  0.00     0.219 C 
BRANCH  14  15
HETATM   15  C   UNL     1     -42.029  59.321 -54.486  1.00  0.00     0.246 C 
HETATM   16  N   UNL     1     -43.200  59.400 -53.769  1.00  0.00    -0.354 N 
HETATM   17  H   UNL     1     -44.049  59.138 -54.258  1.00  0.00     0.162 HD
HETATM   18  O   UNL     1     -40.949  59.669 -54.007  1.00  0.00    -0.271 OA
BRANCH  16  19
HETATM   19  C   UNL     1     -43.402  60.089 -52.493  1.00  0.00     0.084 C 
HETATM   20  C   UNL     1     -44.440  61.223 -52.509  1.00  0.00     0.025 C 
HETATM   21  C   UNL     1     -45.855  60.847 -52.079  1.00  0.00     0.002 C 
HETATM   22  C   UNL     1     -45.878  59.978 -50.830  1.00  0.00     0.000 C 
HETATM   23  C   UNL     1     -44.997  58.745 -50.984  1.00  0.00     0.002 C 
HETATM   24  C   UNL     1     -43.557  59.123 -51.311  1.00  0.00     0.025 C 
ENDBRANCH  16  19
ENDBRANCH  14  15
BRANCH  14  25
HETATM   25  C   UNL     1     -42.161  59.645 -57.071  1.00  0.00     0.014 A 
HETATM   26  S   UNL     1     -42.702  61.261 -56.778  1.00  0.00    -0.104 SA
HETATM   27  C   UNL     1     -42.506  61.708 -58.413  1.00  0.00     0.050 A 
HETATM   28  C   UNL     1     -41.984  60.685 -59.165  1.00  0.00     0.008 A 
HETATM   29  C   UNL     1     -41.764  59.512 -58.391  1.00  0.00     0.017 A 
ENDBRANCH  14  25
ENDBRANCH   2  14
BRANCH   1  30
HETATM   30  C   UNL     1     -41.408  55.860 -55.144  1.00  0.00     0.144 C 
BRANCH  30  31
HETATM   31  C   UNL     1     -41.110  55.204 -53.829  1.00  0.00    -0.021 A 
HETATM   32  C   UNL     1     -40.567  53.909 -53.517  1.00  0.00    -0.001 A 
HETATM   33  C   UNL     1     -40.098  52.812 -54.270  1.00  0.00     0.014 A 
HETATM   34  C   UNL     1     -40.568  53.782 -52.123  1.00  0.00     0.042 A 
HETATM   35  C   UNL     1     -39.690  51.639 -53.621  1.00  0.00     0.001 A 
HETATM   36  C   UNL     1     -39.721  51.546 -52.233  1.00  0.00     0.002 A 
HETATM   37  C   UNL     1     -40.152  52.622 -51.458  1.00  0.00     0.030 A 
HETATM   38  N   UNL     1     -41.037  54.963 -51.605  1.00  0.00    -0.365 N 
HETATM   39  H   UNL     1     -41.132  55.157 -50.618  1.00  0.00     0.165 HD
HETATM   40  C   UNL     1     -41.373  55.818 -52.615  1.00  0.00     0.097 A 
ENDBRANCH  30  31
ENDBRANCH   1  30
TORSDOF 8
ENDMDL
MODEL 8
REMARK VINA RESULT:      -8.2      2.770      4.932
REMARK  8 active torsions:
REMARK  status: ('A' for Active; 'I' for Inactive)
REMARK    1  A    between atoms: C_8  and  C_9 
REMARK    2  A    between atoms: C_9  and  C_10 
REMARK       I    between atoms: C_10  and  N_11 
REMARK    3  A    between atoms: N_11  and  C_27 
REMARK    4  A    between atoms: N_11  and  C_12 
REMARK    5  A    between atoms: C_12  and  C_13 
REMARK    6  A    between atoms: C_12  and  C_22 
REMARK       I    between atoms: C_13  and  N_14 
REMARK    7  A    between atoms: N_14  and  C_15 
REMARK    8  A    between atoms: C_27  and  C_28 
ROOT
HETATM    1  C   UNL     1     -43.241  55.694 -55.505  1.00  0.00     0.225 C 
HETATM    2  N   UNL     1     -42.899  56.983 -55.921  1.00  0.00    -0.330 N 
HETATM    3  O   UNL     1     -43.192  54.731 -56.277  1.00  0.00    -0.273 OA
ENDROOT
BRANCH   2   4
HETATM    4  C   UNL     1     -42.389  57.132 -57.297  1.00  0.00     0.165 C 
BRANCH   4   5
HETATM    5  C   UNL     1     -43.376  56.692 -58.356  1.00  0.00    -0.037 A 
HETATM    6  C   UNL     1     -44.661  57.262 -58.408  1.00  0.00     0.048 A 
HETATM    7  C   UNL     1     -45.543  56.799 -59.361  1.00  0.00     0.105 A 
HETATM    8  C   UNL     1     -45.192  55.823 -60.262  1.00  0.00     0.105 A 
HETATM    9  O   UNL     1     -46.829  57.213 -59.523  1.00  0.00    -0.323 OA
HETATM   10  O   UNL     1     -46.207  55.502 -61.107  1.00  0.00    -0.323 OA
HETATM   11  C   UNL     1     -43.936  55.263 -60.267  1.00  0.00     0.040 A 
HETATM   12  C   UNL     1     -47.242  56.388 -60.634  1.00  0.00     0.352 A 
HETATM   13  C   UNL     1     -43.023  55.708 -59.307  1.00  0.00     0.012 A 
ENDBRANCH   4   5
ENDBRANCH   2   4
BRANCH   2  14
HETATM   14  C   UNL     1     -43.329  58.197 -55.177  1.00  0.00     0.219 C 
BRANCH  14  15
HETATM   15  C   UNL     1     -43.736  59.383 -56.111  1.00  0.00     0.246 C 
HETATM   16  N   UNL     1     -42.761  59.964 -56.888  1.00  0.00    -0.354 N 
HETATM   17  H   UNL     1     -41.807  59.665 -56.716  1.00  0.00     0.162 HD
HETATM   18  O   UNL     1     -44.919  59.714 -56.198  1.00  0.00    -0.271 OA
BRANCH  16  19
HETATM   19  C   UNL     1     -42.900  61.162 -57.719  1.00  0.00     0.084 C 
HETATM   20  C   UNL     1     -41.737  62.165 -57.634  1.00  0.00     0.025 C 
HETATM   21  C   UNL     1     -40.654  62.033 -58.701  1.00  0.00     0.002 C 
HETATM   22  C   UNL     1     -41.225  61.832 -60.097  1.00  0.00     0.000 C 
HETATM   23  C   UNL     1     -42.200  60.663 -60.145  1.00  0.00     0.002 C 
HETATM   24  C   UNL     1     -43.343  60.846 -59.153  1.00  0.00     0.025 C 
ENDBRANCH  16  19
ENDBRANCH  14  15
BRANCH  14  25
HETATM   25  C   UNL     1     -42.383  58.556 -54.040  1.00  0.00     0.014 A 
HETATM   26  S   UNL     1     -43.034  59.212 -52.577  1.00  0.00    -0.104 SA
HETATM   27  C   UNL     1     -41.497  59.306 -51.842  1.00  0.00     0.050 A 
HETATM   28  C   UNL     1     -40.509  58.798 -52.650  1.00  0.00     0.008 A 
HETATM   29  C   UNL     1     -41.022  58.346 -53.899  1.00  0.00     0.017 A 
ENDBRANCH  14  25
ENDBRANCH   2  14
BRANCH   1  30
HETATM   30  C   UNL     1     -43.567  55.447 -54.042  1.00  0.00     0.144 C 
BRANCH  30  31
HETATM   31  C   UNL     1     -42.484  54.916 -53.149  1.00  0.00    -0.021 A 
HETATM   32  C   UNL     1     -41.597  53.794 -53.298  1.00  0.00    -0.001 A 
HETATM   33  C   UNL     1     -41.378  52.816 -54.291  1.00  0.00     0.014 A 
HETATM   34  C   UNL     1     -40.831  53.711 -52.130  1.00  0.00     0.042 A 
HETATM   35  C   UNL     1     -40.449  51.790 -54.072  1.00  0.00     0.001 A 
HETATM   36  C   UNL     1     -39.718  51.733 -52.890  1.00  0.00     0.002 A 
HETATM   37  C   UNL     1     -39.889  52.700 -51.900  1.00  0.00     0.030 A 
HETATM   38  N   UNL     1     -41.192  54.764 -51.328  1.00  0.00    -0.365 N 
HETATM   39  H   UNL     1     -40.788  54.959 -50.423  1.00  0.00     0.165 HD
HETATM   40  C   UNL     1     -42.186  55.487 -51.922  1.00  0.00     0.097 A 
ENDBRANCH  30  31
ENDBRANCH   1  30
TORSDOF 8
ENDMDL
MODEL 9
REMARK VINA RESULT:      -8.1      2.520      6.525
REMARK  8 active torsions:
REMARK  status: ('A' for Active; 'I' for Inactive)
REMARK    1  A    between atoms: C_8  and  C_9 
REMARK    2  A    between atoms: C_9  and  C_10 
REMARK       I    between atoms: C_10  and  N_11 
REMARK    3  A    between atoms: N_11  and  C_27 
REMARK    4  A    between atoms: N_11  and  C_12 
REMARK    5  A    between atoms: C_12  and  C_13 
REMARK    6  A    between atoms: C_12  and  C_22 
REMARK       I    between atoms: C_13  and  N_14 
REMARK    7  A    between atoms: N_14  and  C_15 
REMARK    8  A    between atoms: C_27  and  C_28 
ROOT
HETATM    1  C   UNL     1     -42.653  57.587 -51.754  1.00  0.00     0.225 C 
HETATM    2  N   UNL     1     -42.898  58.805 -52.392  1.00  0.00    -0.330 N 
HETATM    3  O   UNL     1     -41.825  57.488 -50.844  1.00  0.00    -0.273 OA
ENDROOT
BRANCH   2   4
HETATM    4  C   UNL     1     -42.190  59.990 -51.872  1.00  0.00     0.165 C 
BRANCH   4   5
HETATM    5  C   UNL     1     -43.027  60.825 -50.927  1.00  0.00    -0.037 A 
HETATM    6  C   UNL     1     -44.046  60.226 -50.166  1.00  0.00     0.048 A 
HETATM    7  C   UNL     1     -44.814  61.033 -49.352  1.00  0.00     0.105 A 
HETATM    8  C   UNL     1     -44.592  62.385 -49.253  1.00  0.00     0.105 A 
HETATM    9  O   UNL     1     -45.859  60.624 -48.584  1.00  0.00    -0.323 OA
HETATM   10  O   UNL     1     -45.463  62.997 -48.408  1.00  0.00    -0.323 OA
HETATM   11  C   UNL     1     -43.583  63.005 -49.954  1.00  0.00     0.040 A 
HETATM   12  C   UNL     1     -46.263  61.874 -47.986  1.00  0.00     0.352 A 
HETATM   13  C   UNL     1     -42.794  62.213 -50.793  1.00  0.00     0.012 A 
ENDBRANCH   4   5
ENDBRANCH   2   4
BRANCH   2  14
HETATM   14  C   UNL     1     -43.552  58.885 -53.725  1.00  0.00     0.219 C 
BRANCH  14  15
HETATM   15  C   UNL     1     -42.591  58.534 -54.907  1.00  0.00     0.246 C 
HETATM   16  N   UNL     1     -43.127  57.945 -56.029  1.00  0.00    -0.354 N 
HETATM   17  H   UNL     1     -44.099  57.662 -55.972  1.00  0.00     0.162 HD
HETATM   18  O   UNL     1     -41.406  58.864 -54.850  1.00  0.00    -0.271 OA
BRANCH  16  19
HETATM   19  C   UNL     1     -42.389  57.417 -57.179  1.00  0.00     0.084 C 
HETATM   20  C   UNL     1     -42.860  56.046 -57.695  1.00  0.00     0.025 C 
HETATM   21  C   UNL     1     -43.860  56.068 -58.847  1.00  0.00     0.002 C 
HETATM   22  C   UNL     1     -43.484  57.065 -59.933  1.00  0.00     0.000 C 
HETATM   23  C   UNL     1     -43.260  58.460 -59.366  1.00  0.00     0.002 C 
HETATM   24  C   UNL     1     -42.183  58.459 -58.286  1.00  0.00     0.025 C 
ENDBRANCH  16  19
ENDBRANCH  14  15
BRANCH  14  25
HETATM   25  C   UNL     1     -44.370  60.157 -53.904  1.00  0.00     0.014 A 
HETATM   26  S   UNL     1     -43.751  61.424 -54.906  1.00  0.00    -0.104 SA
HETATM   27  C   UNL     1     -45.129  62.399 -54.661  1.00  0.00     0.050 A 
HETATM   28  C   UNL     1     -46.074  61.768 -53.891  1.00  0.00     0.008 A 
HETATM   29  C   UNL     1     -45.648  60.474 -53.479  1.00  0.00     0.017 A 
ENDBRANCH  14  25
ENDBRANCH   2  14
BRANCH   1  30
HETATM   30  C   UNL     1     -43.508  56.380 -52.104  1.00  0.00     0.144 C 
BRANCH  30  31
HETATM   31  C   UNL     1     -42.874  55.248 -52.857  1.00  0.00    -0.021 A 
HETATM   32  C   UNL     1     -41.854  54.309 -52.474  1.00  0.00    -0.001 A 
HETATM   33  C   UNL     1     -41.104  54.067 -51.304  1.00  0.00     0.014 A 
HETATM   34  C   UNL     1     -41.585  53.510 -53.591  1.00  0.00     0.042 A 
HETATM   35  C   UNL     1     -40.108  53.081 -51.301  1.00  0.00     0.001 A 
HETATM   36  C   UNL     1     -39.860  52.317 -52.437  1.00  0.00     0.002 A 
HETATM   37  C   UNL     1     -40.602  52.511 -53.602  1.00  0.00     0.030 A 
HETATM   38  N   UNL     1     -42.437  53.903 -54.591  1.00  0.00    -0.365 N 
HETATM   39  H   UNL     1     -42.472  53.486 -55.511  1.00  0.00     0.165 HD
HETATM   40  C   UNL     1     -43.207  54.948 -54.168  1.00  0.00     0.097 A 
ENDBRANCH  30  31
ENDBRANCH   1  30
TORSDOF 8
ENDMDL
MODEL 10
REMARK VINA RESULT:      -7.9      2.109      5.424
REMARK  8 active torsions:
REMARK  status: ('A' for Active; 'I' for Inactive)
REMARK    1  A    between atoms: C_8  and  C_9 
REMARK    2  A    between atoms: C_9  and  C_10 
REMARK       I    between atoms: C_10  and  N_11 
REMARK    3  A    between atoms: N_11  and  C_27 
REMARK    4  A    between atoms: N_11  and  C_12 
REMARK    5  A    between atoms: C_12  and  C_13 
REMARK    6  A    between atoms: C_12  and  C_22 
REMARK       I    between atoms: C_13  and  N_14 
REMARK    7  A    between atoms: N_14  and  C_15 
REMARK    8  A    between atoms: C_27  and  C_28 
ROOT
HETATM    1  C   UNL     1     -42.719  56.530 -52.517  1.00  0.00     0.225 C 
HETATM    2  N   UNL     1     -43.362  57.698 -52.933  1.00  0.00    -0.330 N 
HETATM    3  O   UNL     1     -43.328  55.631 -51.928  1.00  0.00    -0.273 OA
ENDROOT
BRANCH   2   4
HETATM    4  C   UNL     1     -44.819  57.775 -52.719  1.00  0.00     0.165 C 
BRANCH   4   5
HETATM    5  C   UNL     1     -45.270  59.088 -52.116  1.00  0.00    -0.037 A 
HETATM    6  C   UNL     1     -45.276  59.260 -50.721  1.00  0.00     0.048 A 
HETATM    7  C   UNL     1     -45.737  60.457 -50.212  1.00  0.00     0.105 A 
HETATM    8  C   UNL     1     -46.164  61.476 -51.029  1.00  0.00     0.105 A 
HETATM    9  O   UNL     1     -45.845  60.773 -48.893  1.00  0.00    -0.323 OA
HETATM   10  O   UNL     1     -46.589  62.562 -50.331  1.00  0.00    -0.323 OA
HETATM   11  C   UNL     1     -46.143  61.360 -52.400  1.00  0.00     0.040 A 
HETATM   12  C   UNL     1     -46.383  62.110 -48.977  1.00  0.00     0.352 A 
HETATM   13  C   UNL     1     -45.687  60.156 -52.943  1.00  0.00     0.012 A 
ENDBRANCH   4   5
ENDBRANCH   2   4
BRANCH   2  14
HETATM   14  C   UNL     1     -42.614  58.942 -53.256  1.00  0.00     0.219 C 
BRANCH  14  15
HETATM   15  C   UNL     1     -42.308  59.101 -54.781  1.00  0.00     0.246 C 
HETATM   16  N   UNL     1     -42.994  58.306 -55.670  1.00  0.00    -0.354 N 
HETATM   17  H   UNL     1     -43.573  57.576 -55.270  1.00  0.00     0.162 HD
HETATM   18  O   UNL     1     -41.533  59.980 -55.160  1.00  0.00    -0.271 OA
BRANCH  16  19
HETATM   19  C   UNL     1     -42.761  58.200 -57.112  1.00  0.00     0.084 C 
HETATM   20  C   UNL     1     -42.364  56.803 -57.618  1.00  0.00     0.025 C 
HETATM   21  C   UNL     1     -43.501  55.927 -58.136  1.00  0.00     0.002 C 
HETATM   22  C   UNL     1     -44.462  56.685 -59.040  1.00  0.00     0.000 C 
HETATM   23  C   UNL     1     -44.993  57.945 -58.369  1.00  0.00     0.002 C 
HETATM   24  C   UNL     1     -43.860  58.873 -57.945  1.00  0.00     0.025 C 
ENDBRANCH  16  19
ENDBRANCH  14  15
BRANCH  14  25
HETATM   25  C   UNL     1     -41.434  59.179 -52.325  1.00  0.00     0.014 A 
HETATM   26  S   UNL     1     -41.731  59.676 -50.695  1.00  0.00    -0.104 SA
HETATM   27  C   UNL     1     -40.068  59.691 -50.313  1.00  0.00     0.050 A 
HETATM   28  C   UNL     1     -39.295  59.271 -51.367  1.00  0.00     0.008 A 
HETATM   29  C   UNL     1     -40.080  58.954 -52.511  1.00  0.00     0.017 A 
ENDBRANCH  14  25
ENDBRANCH   2  14
BRANCH   1  30
HETATM   30  C   UNL     1     -41.266  56.303 -52.901  1.00  0.00     0.144 C 
BRANCH  30  31
HETATM   31  C   UNL     1     -40.896  55.012 -53.568  1.00  0.00    -0.021 A 
HETATM   32  C   UNL     1     -40.510  53.739 -53.022  1.00  0.00    -0.001 A 
HETATM   33  C   UNL     1     -40.357  53.212 -51.722  1.00  0.00     0.014 A 
HETATM   34  C   UNL     1     -40.203  52.900 -54.098  1.00  0.00     0.042 A 
HETATM   35  C   UNL     1     -39.880  51.906 -51.546  1.00  0.00     0.001 A 
HETATM   36  C   UNL     1     -39.571  51.108 -52.643  1.00  0.00     0.002 A 
HETATM   37  C   UNL     1     -39.737  51.588 -53.942  1.00  0.00     0.030 A 
HETATM   38  N   UNL     1     -40.444  53.606 -55.250  1.00  0.00    -0.365 N 
HETATM   39  H   UNL     1     -40.319  53.239 -56.183  1.00  0.00     0.165 HD
HETATM   40  C   UNL     1     -40.850  54.874 -54.946  1.00  0.00     0.097 A 
ENDBRANCH  30  31
ENDBRANCH   1  30
TORSDOF 8
ENDMDL
