MODEL 1
REMARK VINA RESULT:      -7.9      0.000      0.000
REMARK  7 active torsions:
REMARK  status: ('A' for Active; 'I' for Inactive)
REMARK    1  A    between atoms: C_2  and  N_3 
REMARK    2  A    between atoms: C_2  and  C_17 
REMARK       I    between atoms: N_3  and  C_4 
REMARK    3  A    between atoms: C_4  and  C_5 
REMARK    4  A    between atoms: C_6  and  N_7 
REMARK    5  A    between atoms: C_17  and  O_18 
REMARK    6  A    between atoms: C_17  and  C_19 
REMARK    7  A    between atoms: C_22  and  O_23 
ROOT
HETATM    1  N   UNL     1     -41.852  53.898 -54.029  1.00  0.00    -0.350 N 
HETATM    2  C   UNL     1     -40.595  53.373 -54.221  1.00  0.00     0.255 C 
HETATM    3  O   UNL     1     -39.747  53.886 -54.940  1.00  0.00    -0.268 OA
HETATM    4  H   UNL     1     -42.483  53.432 -53.387  1.00  0.00     0.163 HD
ENDROOT
BRANCH   1   5
HETATM    5  C   UNL     1     -42.327  55.166 -54.604  1.00  0.00     0.114 C 
HETATM    6  C   UNL     1     -43.147  54.902 -55.867  1.00  0.00     0.035 C 
BRANCH   5   7
HETATM    7  C   UNL     1     -43.078  56.122 -53.619  1.00  0.00     0.173 C 
BRANCH   7   8
HETATM    8  O   UNL     1     -43.879  55.425 -52.665  1.00  0.00    -0.389 OA
HETATM    9  H   UNL     1     -43.262  55.012 -52.023  1.00  0.00     0.210 HD
ENDBRANCH   7   8
BRANCH   7  10
HETATM   10  C   UNL     1     -42.175  57.138 -52.943  1.00  0.00    -0.028 A 
HETATM   11  C   UNL     1     -42.471  57.584 -51.647  1.00  0.00     0.012 A 
HETATM   12  C   UNL     1     -41.647  58.515 -51.009  1.00  0.00     0.037 A 
HETATM   13  C   UNL     1     -40.512  59.018 -51.647  1.00  0.00     0.068 A 
HETATM   14  C   UNL     1     -40.216  58.595 -52.941  1.00  0.00     0.037 A 
HETATM   15  C   UNL     1     -41.040  57.661 -53.581  1.00  0.00     0.012 A 
BRANCH  13  16
HETATM   16  O   UNL     1     -39.786  59.912 -50.909  1.00  0.00    -0.356 OA
HETATM   17  C   UNL     1     -38.484  59.498 -50.509  1.00  0.00     0.210 C 
ENDBRANCH  13  16
ENDBRANCH   7  10
ENDBRANCH   5   7
ENDBRANCH   1   5
BRANCH   2  18
HETATM   18  C   UNL     1     -40.314  52.102 -53.527  1.00  0.00     0.079 A 
HETATM   19  C   UNL     1     -40.121  51.981 -52.148  1.00  0.00     0.165 A 
HETATM   20  N   UNL     1     -39.686  50.801 -51.599  1.00  0.00    -0.241 NA
HETATM   21  C   UNL     1     -39.467  49.743 -52.405  1.00  0.00     0.119 A 
HETATM   22  C   UNL     1     -39.651  49.781 -53.771  1.00  0.00     0.020 A 
HETATM   23  C   UNL     1     -40.067  50.979 -54.340  1.00  0.00     0.022 A 
BRANCH  19  24
HETATM   24  N   UNL     1     -40.408  53.037 -51.214  1.00  0.00    -0.226 N 
HETATM   25  N   UNL     1     -41.693  53.478 -51.055  1.00  0.00    -0.179 NA
HETATM   26  C   UNL     1     -41.624  54.422 -50.119  1.00  0.00     0.141 A 
HETATM   27  C   UNL     1     -40.311  54.679 -49.714  1.00  0.00     0.040 A 
HETATM   28  C   UNL     1     -39.546  53.813 -50.459  1.00  0.00     0.122 A 
ENDBRANCH  19  24
ENDBRANCH   2  18
TORSDOF 7
ENDMDL
MODEL 2
REMARK VINA RESULT:      -7.7      1.354      1.791
REMARK  7 active torsions:
REMARK  status: ('A' for Active; 'I' for Inactive)
REMARK    1  A    between atoms: C_2  and  N_3 
REMARK    2  A    between atoms: C_2  and  C_17 
REMARK       I    between atoms: N_3  and  C_4 
REMARK    3  A    between atoms: C_4  and  C_5 
REMARK    4  A    between atoms: C_6  and  N_7 
REMARK    5  A    between atoms: C_17  and  O_18 
REMARK    6  A    between atoms: C_17  and  C_19 
REMARK    7  A    between atoms: C_22  and  O_23 
ROOT
HETATM    1  N   UNL     1     -42.151  54.553 -54.654  1.00  0.00    -0.350 N 
HETATM    2  C   UNL     1     -40.818  54.348 -54.376  1.00  0.00     0.255 C 
HETATM    3  O   UNL     1     -39.922  55.081 -54.772  1.00  0.00    -0.268 OA
HETATM    4  H   UNL     1     -42.835  53.920 -54.256  1.00  0.00     0.163 HD
ENDROOT
BRANCH   1   5
HETATM    5  C   UNL     1     -42.683  55.702 -55.403  1.00  0.00     0.114 C 
HETATM    6  C   UNL     1     -43.009  55.293 -56.840  1.00  0.00     0.035 C 
BRANCH   5   7
HETATM    7  C   UNL     1     -43.879  56.456 -54.734  1.00  0.00     0.173 C 
BRANCH   7   8
HETATM    8  O   UNL     1     -44.945  55.589 -54.351  1.00  0.00    -0.389 OA
HETATM    9  H   UNL     1     -45.706  56.162 -54.111  1.00  0.00     0.210 HD
ENDBRANCH   7   8
BRANCH   7  10
HETATM   10  C   UNL     1     -43.466  57.362 -53.587  1.00  0.00    -0.028 A 
HETATM   11  C   UNL     1     -42.129  57.763 -53.458  1.00  0.00     0.012 A 
HETATM   12  C   UNL     1     -41.734  58.602 -52.413  1.00  0.00     0.037 A 
HETATM   13  C   UNL     1     -42.663  59.059 -51.476  1.00  0.00     0.068 A 
HETATM   14  C   UNL     1     -43.992  58.655 -51.584  1.00  0.00     0.037 A 
HETATM   15  C   UNL     1     -44.389  57.816 -52.632  1.00  0.00     0.012 A 
BRANCH  13  16
HETATM   16  O   UNL     1     -42.149  59.881 -50.511  1.00  0.00    -0.356 OA
HETATM   17  C   UNL     1     -40.859  59.547 -50.012  1.00  0.00     0.210 C 
ENDBRANCH  13  16
ENDBRANCH   7  10
ENDBRANCH   5   7
ENDBRANCH   1   5
BRANCH   2  18
HETATM   18  C   UNL     1     -40.504  53.145 -53.583  1.00  0.00     0.079 A 
HETATM   19  C   UNL     1     -40.582  53.074 -52.190  1.00  0.00     0.165 A 
HETATM   20  N   UNL     1     -40.101  51.983 -51.511  1.00  0.00    -0.241 NA
HETATM   21  C   UNL     1     -39.568  50.959 -52.208  1.00  0.00     0.119 A 
HETATM   22  C   UNL     1     -39.471  50.949 -53.583  1.00  0.00     0.020 A 
HETATM   23  C   UNL     1     -39.932  52.062 -54.278  1.00  0.00     0.022 A 
BRANCH  19  24
HETATM   24  N   UNL     1     -41.208  54.087 -51.381  1.00  0.00    -0.226 N 
HETATM   25  N   UNL     1     -42.565  54.253 -51.422  1.00  0.00    -0.179 NA
HETATM   26  C   UNL     1     -42.822  55.232 -50.558  1.00  0.00     0.141 A 
HETATM   27  C   UNL     1     -41.660  55.778 -50.006  1.00  0.00     0.040 A 
HETATM   28  C   UNL     1     -40.637  55.061 -50.580  1.00  0.00     0.122 A 
ENDBRANCH  19  24
ENDBRANCH   2  18
TORSDOF 7
ENDMDL
MODEL 3
REMARK VINA RESULT:      -7.0      3.795      7.663
REMARK  7 active torsions:
REMARK  status: ('A' for Active; 'I' for Inactive)
REMARK    1  A    between atoms: C_2  and  N_3 
REMARK    2  A    between atoms: C_2  and  C_17 
REMARK       I    between atoms: N_3  and  C_4 
REMARK    3  A    between atoms: C_4  and  C_5 
REMARK    4  A    between atoms: C_6  and  N_7 
REMARK    5  A    between atoms: C_17  and  O_18 
REMARK    6  A    between atoms: C_17  and  C_19 
REMARK    7  A    between atoms: C_22  and  O_23 
ROOT
HETATM    1  N   UNL     1     -42.146  55.957 -56.348  1.00  0.00    -0.350 N 
HETATM    2  C   UNL     1     -43.073  56.969 -56.451  1.00  0.00     0.255 C 
HETATM    3  O   UNL     1     -44.055  57.066 -55.727  1.00  0.00    -0.268 OA
HETATM    4  H   UNL     1     -41.339  55.970 -56.961  1.00  0.00     0.163 HD
ENDROOT
BRANCH   1   5
HETATM    5  C   UNL     1     -42.171  54.898 -55.327  1.00  0.00     0.114 C 
HETATM    6  C   UNL     1     -43.239  53.858 -55.669  1.00  0.00     0.035 C 
BRANCH   5   7
HETATM    7  C   UNL     1     -40.795  54.227 -55.008  1.00  0.00     0.173 C 
BRANCH   7   8
HETATM    8  O   UNL     1     -39.679  55.023 -55.401  1.00  0.00    -0.389 OA
HETATM    9  H   UNL     1     -38.915  54.731 -54.856  1.00  0.00     0.210 HD
ENDBRANCH   7   8
BRANCH   7  10
HETATM   10  C   UNL     1     -40.661  53.761 -53.569  1.00  0.00    -0.028 A 
HETATM   11  C   UNL     1     -41.135  54.568 -52.525  1.00  0.00     0.012 A 
HETATM   12  C   UNL     1     -41.025  54.151 -51.196  1.00  0.00     0.037 A 
HETATM   13  C   UNL     1     -40.443  52.922 -50.880  1.00  0.00     0.068 A 
HETATM   14  C   UNL     1     -39.954  52.118 -51.907  1.00  0.00     0.037 A 
HETATM   15  C   UNL     1     -40.066  52.534 -53.239  1.00  0.00     0.012 A 
BRANCH  13  16
HETATM   16  O   UNL     1     -40.407  52.629 -49.544  1.00  0.00    -0.356 OA
HETATM   17  C   UNL     1     -40.601  53.719 -48.649  1.00  0.00     0.210 C 
ENDBRANCH  13  16
ENDBRANCH   7  10
ENDBRANCH   5   7
ENDBRANCH   1   5
BRANCH   2  18
HETATM   18  C   UNL     1     -42.842  57.947 -57.531  1.00  0.00     0.079 A 
HETATM   19  C   UNL     1     -43.136  57.721 -58.878  1.00  0.00     0.165 A 
HETATM   20  N   UNL     1     -42.727  58.603 -59.846  1.00  0.00    -0.241 NA
HETATM   21  C   UNL     1     -42.054  59.712 -59.481  1.00  0.00     0.119 A 
HETATM   22  C   UNL     1     -41.741  60.012 -58.172  1.00  0.00     0.020 A 
HETATM   23  C   UNL     1     -42.128  59.111 -57.186  1.00  0.00     0.022 A 
BRANCH  19  24
HETATM   24  N   UNL     1     -43.918  56.605 -59.340  1.00  0.00    -0.226 N 
HETATM   25  N   UNL     1     -43.458  55.329 -59.163  1.00  0.00    -0.179 NA
HETATM   26  C   UNL     1     -44.407  54.543 -59.668  1.00  0.00     0.141 A 
HETATM   27  C   UNL     1     -45.448  55.270 -60.253  1.00  0.00     0.040 A 
HETATM   28  C   UNL     1     -45.092  56.586 -60.072  1.00  0.00     0.122 A 
ENDBRANCH  19  24
ENDBRANCH   2  18
TORSDOF 7
ENDMDL
MODEL 4
REMARK VINA RESULT:      -7.0      2.992      7.110
REMARK  7 active torsions:
REMARK  status: ('A' for Active; 'I' for Inactive)
REMARK    1  A    between atoms: C_2  and  N_3 
REMARK    2  A    between atoms: C_2  and  C_17 
REMARK       I    between atoms: N_3  and  C_4 
REMARK    3  A    between atoms: C_4  and  C_5 
REMARK    4  A    between atoms: C_6  and  N_7 
REMARK    5  A    between atoms: C_17  and  O_18 
REMARK    6  A    between atoms: C_17  and  C_19 
REMARK    7  A    between atoms: C_22  and  O_23 
ROOT
HETATM    1  N   UNL     1     -43.074  56.312 -51.515  1.00  0.00    -0.350 N 
HETATM    2  C   UNL     1     -44.058  57.275 -51.517  1.00  0.00     0.255 C 
HETATM    3  O   UNL     1     -44.988  57.296 -50.721  1.00  0.00    -0.268 OA
HETATM    4  H   UNL     1     -42.317  56.388 -52.184  1.00  0.00     0.163 HD
ENDROOT
BRANCH   1   5
HETATM    5  C   UNL     1     -42.969  55.224 -50.530  1.00  0.00     0.114 C 
HETATM    6  C   UNL     1     -43.792  54.018 -50.983  1.00  0.00     0.035 C 
BRANCH   5   7
HETATM    7  C   UNL     1     -41.516  54.810 -50.126  1.00  0.00     0.173 C 
BRANCH   7   8
HETATM    8  O   UNL     1     -41.397  54.456 -48.749  1.00  0.00    -0.389 OA
HETATM    9  H   UNL     1     -41.411  55.294 -48.237  1.00  0.00     0.210 HD
ENDBRANCH   7   8
BRANCH   7  10
HETATM   10  C   UNL     1     -40.910  53.745 -51.023  1.00  0.00    -0.028 A 
HETATM   11  C   UNL     1     -40.859  53.946 -52.410  1.00  0.00     0.012 A 
HETATM   12  C   UNL     1     -40.300  52.979 -53.249  1.00  0.00     0.037 A 
HETATM   13  C   UNL     1     -39.778  51.795 -52.725  1.00  0.00     0.068 A 
HETATM   14  C   UNL     1     -39.838  51.577 -51.351  1.00  0.00     0.037 A 
HETATM   15  C   UNL     1     -40.396  52.546 -50.508  1.00  0.00     0.012 A 
BRANCH  13  16
HETATM   16  O   UNL     1     -39.251  50.939 -53.652  1.00  0.00    -0.356 OA
HETATM   17  C   UNL     1     -40.171  50.091 -54.331  1.00  0.00     0.210 C 
ENDBRANCH  13  16
ENDBRANCH   7  10
ENDBRANCH   5   7
ENDBRANCH   1   5
BRANCH   2  18
HETATM   18  C   UNL     1     -43.959  58.295 -52.577  1.00  0.00     0.079 A 
HETATM   19  C   UNL     1     -43.011  59.321 -52.601  1.00  0.00     0.165 A 
HETATM   20  N   UNL     1     -43.095  60.336 -53.521  1.00  0.00    -0.241 NA
HETATM   21  C   UNL     1     -44.095  60.323 -54.424  1.00  0.00     0.119 A 
HETATM   22  C   UNL     1     -45.058  59.337 -54.474  1.00  0.00     0.020 A 
HETATM   23  C   UNL     1     -44.997  58.318 -53.530  1.00  0.00     0.022 A 
BRANCH  19  24
HETATM   24  N   UNL     1     -41.871  59.364 -51.725  1.00  0.00    -0.226 N 
HETATM   25  N   UNL     1     -40.781  58.579 -51.982  1.00  0.00    -0.179 NA
HETATM   26  C   UNL     1     -39.909  58.867 -51.019  1.00  0.00     0.141 A 
HETATM   27  C   UNL     1     -40.426  59.763 -50.079  1.00  0.00     0.040 A 
HETATM   28  C   UNL     1     -41.698  60.032 -50.525  1.00  0.00     0.122 A 
ENDBRANCH  19  24
ENDBRANCH   2  18
TORSDOF 7
ENDMDL
MODEL 5
REMARK VINA RESULT:      -6.9      4.282      7.896
REMARK  7 active torsions:
REMARK  status: ('A' for Active; 'I' for Inactive)
REMARK    1  A    between atoms: C_2  and  N_3 
REMARK    2  A    between atoms: C_2  and  C_17 
REMARK       I    between atoms: N_3  and  C_4 
REMARK    3  A    between atoms: C_4  and  C_5 
REMARK    4  A    between atoms: C_6  and  N_7 
REMARK    5  A    between atoms: C_17  and  O_18 
REMARK    6  A    between atoms: C_17  and  C_19 
REMARK    7  A    between atoms: C_22  and  O_23 
ROOT
HETATM    1  N   UNL     1     -43.735  56.260 -56.406  1.00  0.00    -0.350 N 
HETATM    2  C   UNL     1     -43.252  56.715 -57.612  1.00  0.00     0.255 C 
HETATM    3  O   UNL     1     -42.201  57.330 -57.734  1.00  0.00    -0.268 OA
HETATM    4  H   UNL     1     -44.594  55.724 -56.396  1.00  0.00     0.163 HD
ENDROOT
BRANCH   1   5
HETATM    5  C   UNL     1     -43.034  56.393 -55.120  1.00  0.00     0.114 C 
HETATM    6  C   UNL     1     -43.119  57.835 -54.617  1.00  0.00     0.035 C 
BRANCH   5   7
HETATM    7  C   UNL     1     -43.446  55.371 -54.010  1.00  0.00     0.173 C 
BRANCH   7   8
HETATM    8  O   UNL     1     -44.689  54.724 -54.278  1.00  0.00    -0.389 OA
HETATM    9  H   UNL     1     -44.655  54.420 -55.212  1.00  0.00     0.210 HD
ENDBRANCH   7   8
BRANCH   7  10
HETATM   10  C   UNL     1     -42.361  54.364 -53.671  1.00  0.00    -0.028 A 
HETATM   11  C   UNL     1     -41.883  53.493 -54.660  1.00  0.00     0.012 A 
HETATM   12  C   UNL     1     -40.881  52.564 -54.367  1.00  0.00     0.037 A 
HETATM   13  C   UNL     1     -40.334  52.486 -53.085  1.00  0.00     0.068 A 
HETATM   14  C   UNL     1     -40.812  53.336 -52.090  1.00  0.00     0.037 A 
HETATM   15  C   UNL     1     -41.814  54.268 -52.383  1.00  0.00     0.012 A 
BRANCH  13  16
HETATM   16  O   UNL     1     -39.354  51.544 -52.934  1.00  0.00    -0.356 OA
HETATM   17  C   UNL     1     -39.554  50.306 -53.609  1.00  0.00     0.210 C 
ENDBRANCH  13  16
ENDBRANCH   7  10
ENDBRANCH   5   7
ENDBRANCH   1   5
BRANCH   2  18
HETATM   18  C   UNL     1     -44.103  56.449 -58.788  1.00  0.00     0.079 A 
HETATM   19  C   UNL     1     -45.226  57.203 -59.137  1.00  0.00     0.165 A 
HETATM   20  N   UNL     1     -46.070  56.788 -60.137  1.00  0.00    -0.241 NA
HETATM   21  C   UNL     1     -45.791  55.648 -60.800  1.00  0.00     0.119 A 
HETATM   22  C   UNL     1     -44.694  54.860 -60.524  1.00  0.00     0.020 A 
HETATM   23  C   UNL     1     -43.847  55.258 -59.496  1.00  0.00     0.022 A 
BRANCH  19  24
HETATM   24  N   UNL     1     -45.549  58.468 -58.533  1.00  0.00    -0.226 N 
HETATM   25  N   UNL     1     -44.946  59.612 -58.980  1.00  0.00    -0.179 NA
HETATM   26  C   UNL     1     -45.469  60.591 -58.245  1.00  0.00     0.141 A 
HETATM   27  C   UNL     1     -46.343  60.115 -57.263  1.00  0.00     0.040 A 
HETATM   28  C   UNL     1     -46.344  58.751 -57.436  1.00  0.00     0.122 A 
ENDBRANCH  19  24
ENDBRANCH   2  18
TORSDOF 7
ENDMDL
MODEL 6
REMARK VINA RESULT:      -6.9      3.213      7.312
REMARK  7 active torsions:
REMARK  status: ('A' for Active; 'I' for Inactive)
REMARK    1  A    between atoms: C_2  and  N_3 
REMARK    2  A    between atoms: C_2  and  C_17 
REMARK       I    between atoms: N_3  and  C_4 
REMARK    3  A    between atoms: C_4  and  C_5 
REMARK    4  A    between atoms: C_6  and  N_7 
REMARK    5  A    between atoms: C_17  and  O_18 
REMARK    6  A    between atoms: C_17  and  C_19 
REMARK    7  A    between atoms: C_22  and  O_23 
ROOT
HETATM    1  N   UNL     1     -43.074  57.172 -53.482  1.00  0.00    -0.350 N 
HETATM    2  C   UNL     1     -43.821  57.752 -52.481  1.00  0.00     0.255 C 
HETATM    3  O   UNL     1     -44.372  57.117 -51.591  1.00  0.00    -0.268 OA
HETATM    4  H   UNL     1     -42.618  57.770 -54.159  1.00  0.00     0.163 HD
ENDROOT
BRANCH   1   5
HETATM    5  C   UNL     1     -42.787  55.733 -53.585  1.00  0.00     0.114 C 
HETATM    6  C   UNL     1     -43.894  55.027 -54.370  1.00  0.00     0.035 C 
BRANCH   5   7
HETATM    7  C   UNL     1     -41.369  55.358 -54.127  1.00  0.00     0.173 C 
BRANCH   7   8
HETATM    8  O   UNL     1     -40.412  56.404 -53.964  1.00  0.00    -0.389 OA
HETATM    9  H   UNL     1     -39.552  55.975 -53.762  1.00  0.00     0.210 HD
ENDBRANCH   7   8
BRANCH   7  10
HETATM   10  C   UNL     1     -40.838  54.038 -53.595  1.00  0.00    -0.028 A 
HETATM   11  C   UNL     1     -40.402  53.049 -54.488  1.00  0.00     0.012 A 
HETATM   12  C   UNL     1     -39.906  51.832 -54.015  1.00  0.00     0.037 A 
HETATM   13  C   UNL     1     -39.831  51.576 -52.645  1.00  0.00     0.068 A 
HETATM   14  C   UNL     1     -40.276  52.545 -51.748  1.00  0.00     0.037 A 
HETATM   15  C   UNL     1     -40.772  53.766 -52.221  1.00  0.00     0.012 A 
BRANCH  13  16
HETATM   16  O   UNL     1     -39.316  50.352 -52.315  1.00  0.00    -0.356 OA
HETATM   17  C   UNL     1     -39.483  49.935 -50.965  1.00  0.00     0.210 C 
ENDBRANCH  13  16
ENDBRANCH   7  10
ENDBRANCH   5   7
ENDBRANCH   1   5
BRANCH   2  18
HETATM   18  C   UNL     1     -43.960  59.218 -52.549  1.00  0.00     0.079 A 
HETATM   19  C   UNL     1     -42.993  60.126 -52.108  1.00  0.00     0.165 A 
HETATM   20  N   UNL     1     -43.267  61.469 -52.036  1.00  0.00    -0.241 NA
HETATM   21  C   UNL     1     -44.481  61.912 -52.421  1.00  0.00     0.119 A 
HETATM   22  C   UNL     1     -45.480  61.081 -52.883  1.00  0.00     0.020 A 
HETATM   23  C   UNL     1     -45.220  59.716 -52.934  1.00  0.00     0.022 A 
BRANCH  19  24
HETATM   24  N   UNL     1     -41.651  59.743 -51.756  1.00  0.00    -0.226 N 
HETATM   25  N   UNL     1     -40.753  59.424 -52.737  1.00  0.00    -0.179 NA
HETATM   26  C   UNL     1     -39.621  59.144 -52.095  1.00  0.00     0.141 A 
HETATM   27  C   UNL     1     -39.769  59.188 -50.705  1.00  0.00     0.040 A 
HETATM   28  C   UNL     1     -41.087  59.528 -50.511  1.00  0.00     0.122 A 
ENDBRANCH  19  24
ENDBRANCH   2  18
TORSDOF 7
ENDMDL
MODEL 7
REMARK VINA RESULT:      -6.6      2.234      3.878
REMARK  7 active torsions:
REMARK  status: ('A' for Active; 'I' for Inactive)
REMARK    1  A    between atoms: C_2  and  N_3 
REMARK    2  A    between atoms: C_2  and  C_17 
REMARK       I    between atoms: N_3  and  C_4 
REMARK    3  A    between atoms: C_4  and  C_5 
REMARK    4  A    between atoms: C_6  and  N_7 
REMARK    5  A    between atoms: C_17  and  O_18 
REMARK    6  A    between atoms: C_17  and  C_19 
REMARK    7  A    between atoms: C_22  and  O_23 
ROOT
HETATM    1  N   UNL     1     -41.966  55.608 -53.368  1.00  0.00    -0.350 N 
HETATM    2  C   UNL     1     -42.434  54.726 -52.420  1.00  0.00     0.255 C 
HETATM    3  O   UNL     1     -43.519  54.164 -52.494  1.00  0.00    -0.268 OA
HETATM    4  H   UNL     1     -41.040  56.002 -53.252  1.00  0.00     0.163 HD
ENDROOT
BRANCH   1   5
HETATM    5  C   UNL     1     -42.667  55.946 -54.616  1.00  0.00     0.114 C 
HETATM    6  C   UNL     1     -42.871  54.691 -55.466  1.00  0.00     0.035 C 
BRANCH   5   7
HETATM    7  C   UNL     1     -43.997  56.753 -54.454  1.00  0.00     0.173 C 
BRANCH   7   8
HETATM    8  O   UNL     1     -45.153  55.920 -54.388  1.00  0.00    -0.389 OA
HETATM    9  H   UNL     1     -45.916  56.468 -54.678  1.00  0.00     0.210 HD
ENDBRANCH   7   8
BRANCH   7  10
HETATM   10  C   UNL     1     -43.971  57.752 -53.310  1.00  0.00    -0.028 A 
HETATM   11  C   UNL     1     -43.188  58.910 -53.411  1.00  0.00     0.012 A 
HETATM   12  C   UNL     1     -43.158  59.842 -52.370  1.00  0.00     0.037 A 
HETATM   13  C   UNL     1     -43.909  59.641 -51.211  1.00  0.00     0.068 A 
HETATM   14  C   UNL     1     -44.679  58.486 -51.092  1.00  0.00     0.037 A 
HETATM   15  C   UNL     1     -44.711  57.552 -52.135  1.00  0.00     0.012 A 
BRANCH  13  16
HETATM   16  O   UNL     1     -43.800  60.633 -50.275  1.00  0.00    -0.356 OA
HETATM   17  C   UNL     1     -45.009  61.066 -49.663  1.00  0.00     0.210 C 
ENDBRANCH  13  16
ENDBRANCH   7  10
ENDBRANCH   5   7
ENDBRANCH   1   5
BRANCH   2  18
HETATM   18  C   UNL     1     -41.557  54.507 -51.255  1.00  0.00     0.079 A 
HETATM   19  C   UNL     1     -40.617  53.478 -51.156  1.00  0.00     0.165 A 
HETATM   20  N   UNL     1     -39.967  53.229 -49.973  1.00  0.00    -0.241 NA
HETATM   21  C   UNL     1     -40.229  54.007 -48.904  1.00  0.00     0.119 A 
HETATM   22  C   UNL     1     -41.130  55.051 -48.929  1.00  0.00     0.020 A 
HETATM   23  C   UNL     1     -41.812  55.294 -50.115  1.00  0.00     0.022 A 
BRANCH  19  24
HETATM   24  N   UNL     1     -40.224  52.656 -52.269  1.00  0.00    -0.226 N 
HETATM   25  N   UNL     1     -40.387  53.114 -53.548  1.00  0.00    -0.179 NA
HETATM   26  C   UNL     1     -39.912  52.146 -54.328  1.00  0.00     0.141 A 
HETATM   27  C   UNL     1     -39.515  51.020 -53.601  1.00  0.00     0.040 A 
HETATM   28  C   UNL     1     -39.765  51.351 -52.291  1.00  0.00     0.122 A 
ENDBRANCH  19  24
ENDBRANCH   2  18
TORSDOF 7
ENDMDL
MODEL 8
REMARK VINA RESULT:      -6.6     14.563     16.595
REMARK  7 active torsions:
REMARK  status: ('A' for Active; 'I' for Inactive)
REMARK    1  A    between atoms: C_2  and  N_3 
REMARK    2  A    between atoms: C_2  and  C_17 
REMARK       I    between atoms: N_3  and  C_4 
REMARK    3  A    between atoms: C_4  and  C_5 
REMARK    4  A    between atoms: C_6  and  N_7 
REMARK    5  A    between atoms: C_17  and  O_18 
REMARK    6  A    between atoms: C_17  and  C_19 
REMARK    7  A    between atoms: C_22  and  O_23 
ROOT
HETATM    1  N   UNL     1     -35.983  40.135 -54.981  1.00  0.00    -0.350 N 
HETATM    2  C   UNL     1     -34.935  41.022 -55.071  1.00  0.00     0.255 C 
HETATM    3  O   UNL     1     -35.072  42.238 -55.048  1.00  0.00    -0.268 OA
HETATM    4  H   UNL     1     -35.782  39.142 -54.969  1.00  0.00     0.163 HD
ENDROOT
BRANCH   1   5
HETATM    5  C   UNL     1     -37.390  40.518 -54.785  1.00  0.00     0.114 C 
HETATM    6  C   UNL     1     -37.582  41.136 -53.399  1.00  0.00     0.035 C 
BRANCH   5   7
HETATM    7  C   UNL     1     -38.016  41.412 -55.906  1.00  0.00     0.173 C 
BRANCH   7   8
HETATM    8  O   UNL     1     -37.618  42.779 -55.819  1.00  0.00    -0.389 OA
HETATM    9  H   UNL     1     -37.598  43.128 -56.737  1.00  0.00     0.210 HD
ENDBRANCH   7   8
BRANCH   7  10
HETATM   10  C   UNL     1     -37.813  40.866 -57.308  1.00  0.00    -0.028 A 
HETATM   11  C   UNL     1     -37.285  41.692 -58.310  1.00  0.00     0.012 A 
HETATM   12  C   UNL     1     -37.087  41.204 -59.605  1.00  0.00     0.037 A 
HETATM   13  C   UNL     1     -37.408  39.884 -59.926  1.00  0.00     0.068 A 
HETATM   14  C   UNL     1     -37.948  39.058 -58.943  1.00  0.00     0.037 A 
HETATM   15  C   UNL     1     -38.145  39.545 -57.645  1.00  0.00     0.012 A 
BRANCH  13  16
HETATM   16  O   UNL     1     -37.155  39.530 -61.223  1.00  0.00    -0.356 OA
HETATM   17  C   UNL     1     -36.139  38.555 -61.429  1.00  0.00     0.210 C 
ENDBRANCH  13  16
ENDBRANCH   7  10
ENDBRANCH   5   7
ENDBRANCH   1   5
BRANCH   2  18
HETATM   18  C   UNL     1     -33.597  40.424 -55.237  1.00  0.00     0.079 A 
HETATM   19  C   UNL     1     -32.750  40.078 -54.181  1.00  0.00     0.165 A 
HETATM   20  N   UNL     1     -31.452  39.697 -54.414  1.00  0.00    -0.241 NA
HETATM   21  C   UNL     1     -31.005  39.635 -55.685  1.00  0.00     0.119 A 
HETATM   22  C   UNL     1     -31.786  39.944 -56.779  1.00  0.00     0.020 A 
HETATM   23  C   UNL     1     -33.093  40.357 -56.550  1.00  0.00     0.022 A 
BRANCH  19  24
HETATM   24  N   UNL     1     -33.174  40.041 -52.806  1.00  0.00    -0.226 N 
HETATM   25  N   UNL     1     -34.144  39.160 -52.414  1.00  0.00    -0.179 NA
HETATM   26  C   UNL     1     -34.285  39.358 -51.105  1.00  0.00     0.141 A 
HETATM   27  C   UNL     1     -33.492  40.408 -50.634  1.00  0.00     0.040 A 
HETATM   28  C   UNL     1     -32.823  40.860 -51.747  1.00  0.00     0.122 A 
ENDBRANCH  19  24
ENDBRANCH   2  18
TORSDOF 7
ENDMDL
MODEL 9
REMARK VINA RESULT:      -6.6      2.539      5.316
REMARK  7 active torsions:
REMARK  status: ('A' for Active; 'I' for Inactive)
REMARK    1  A    between atoms: C_2  and  N_3 
REMARK    2  A    between atoms: C_2  and  C_17 
REMARK       I    between atoms: N_3  and  C_4 
REMARK    3  A    between atoms: C_4  and  C_5 
REMARK    4  A    between atoms: C_6  and  N_7 
REMARK    5  A    between atoms: C_17  and  O_18 
REMARK    6  A    between atoms: C_17  and  C_19 
REMARK    7  A    between atoms: C_22  and  O_23 
ROOT
HETATM    1  N   UNL     1     -41.662  57.645 -51.441  1.00  0.00    -0.350 N 
HETATM    2  C   UNL     1     -42.381  56.546 -51.029  1.00  0.00     0.255 C 
HETATM    3  O   UNL     1     -43.597  56.542 -50.895  1.00  0.00    -0.268 OA
HETATM    4  H   UNL     1     -40.660  57.555 -51.564  1.00  0.00     0.163 HD
ENDROOT
BRANCH   1   5
HETATM    5  C   UNL     1     -42.254  58.933 -51.834  1.00  0.00     0.114 C 
HETATM    6  C   UNL     1     -42.047  59.971 -50.729  1.00  0.00     0.035 C 
BRANCH   5   7
HETATM    7  C   UNL     1     -41.818  59.486 -53.231  1.00  0.00     0.173 C 
BRANCH   7   8
HETATM    8  O   UNL     1     -40.403  59.496 -53.412  1.00  0.00    -0.389 OA
HETATM    9  H   UNL     1     -40.200  58.833 -54.109  1.00  0.00     0.210 HD
ENDBRANCH   7   8
BRANCH   7  10
HETATM   10  C   UNL     1     -42.519  58.817 -54.400  1.00  0.00    -0.028 A 
HETATM   11  C   UNL     1     -42.022  58.981 -55.700  1.00  0.00     0.012 A 
HETATM   12  C   UNL     1     -42.652  58.368 -56.787  1.00  0.00     0.037 A 
HETATM   13  C   UNL     1     -43.786  57.576 -56.599  1.00  0.00     0.068 A 
HETATM   14  C   UNL     1     -44.299  57.418 -55.313  1.00  0.00     0.037 A 
HETATM   15  C   UNL     1     -43.668  58.031 -54.224  1.00  0.00     0.012 A 
BRANCH  13  16
HETATM   16  O   UNL     1     -44.298  57.025 -57.741  1.00  0.00    -0.356 OA
HETATM   17  C   UNL     1     -43.385  56.826 -58.815  1.00  0.00     0.210 C 
ENDBRANCH  13  16
ENDBRANCH   7  10
ENDBRANCH   5   7
ENDBRANCH   1   5
BRANCH   2  18
HETATM   18  C   UNL     1     -41.590  55.342 -50.711  1.00  0.00     0.079 A 
HETATM   19  C   UNL     1     -41.243  54.357 -51.638  1.00  0.00     0.165 A 
HETATM   20  N   UNL     1     -40.665  53.180 -51.234  1.00  0.00    -0.241 NA
HETATM   21  C   UNL     1     -40.410  52.991 -49.923  1.00  0.00     0.119 A 
HETATM   22  C   UNL     1     -40.708  53.922 -48.951  1.00  0.00     0.020 A 
HETATM   23  C   UNL     1     -41.318  55.107 -49.349  1.00  0.00     0.022 A 
BRANCH  19  24
HETATM   24  N   UNL     1     -41.409  54.515 -53.059  1.00  0.00    -0.226 N 
HETATM   25  N   UNL     1     -40.735  55.505 -53.719  1.00  0.00    -0.179 NA
HETATM   26  C   UNL     1     -41.079  55.369 -54.998  1.00  0.00     0.141 A 
HETATM   27  C   UNL     1     -42.032  54.364 -55.191  1.00  0.00     0.040 A 
HETATM   28  C   UNL     1     -42.262  53.862 -53.932  1.00  0.00     0.122 A 
ENDBRANCH  19  24
ENDBRANCH   2  18
TORSDOF 7
ENDMDL
MODEL 10
REMARK VINA RESULT:      -6.5      4.429      7.867
REMARK  7 active torsions:
REMARK  status: ('A' for Active; 'I' for Inactive)
REMARK    1  A    between atoms: C_2  and  N_3 
REMARK    2  A    between atoms: C_2  and  C_17 
REMARK       I    between atoms: N_3  and  C_4 
REMARK    3  A    between atoms: C_4  and  C_5 
REMARK    4  A    between atoms: C_6  and  N_7 
REMARK    5  A    between atoms: C_17  and  O_18 
REMARK    6  A    between atoms: C_17  and  C_19 
REMARK    7  A    between atoms: C_22  and  O_23 
ROOT
HETATM    1  N   UNL     1     -44.025  57.211 -56.475  1.00  0.00    -0.350 N 
HETATM    2  C   UNL     1     -43.120  57.180 -57.511  1.00  0.00     0.255 C 
HETATM    3  O   UNL     1     -42.068  57.807 -57.512  1.00  0.00    -0.268 OA
HETATM    4  H   UNL     1     -44.855  56.632 -56.535  1.00  0.00     0.163 HD
ENDROOT
BRANCH   1   5
HETATM    5  C   UNL     1     -43.830  57.942 -55.214  1.00  0.00     0.114 C 
HETATM    6  C   UNL     1     -44.967  58.943 -55.001  1.00  0.00     0.035 C 
BRANCH   5   7
HETATM    7  C   UNL     1     -43.595  57.060 -53.944  1.00  0.00     0.173 C 
BRANCH   7   8
HETATM    8  O   UNL     1     -44.807  56.636 -53.323  1.00  0.00    -0.389 OA
HETATM    9  H   UNL     1     -45.067  57.345 -52.694  1.00  0.00     0.210 HD
ENDBRANCH   7   8
BRANCH   7  10
HETATM   10  C   UNL     1     -42.656  55.889 -54.178  1.00  0.00    -0.028 A 
HETATM   11  C   UNL     1     -41.291  56.120 -54.393  1.00  0.00     0.012 A 
HETATM   12  C   UNL     1     -40.413  55.053 -54.604  1.00  0.00     0.037 A 
HETATM   13  C   UNL     1     -40.876  53.736 -54.601  1.00  0.00     0.068 A 
HETATM   14  C   UNL     1     -42.234  53.495 -54.404  1.00  0.00     0.037 A 
HETATM   15  C   UNL     1     -43.115  54.563 -54.191  1.00  0.00     0.012 A 
BRANCH  13  16
HETATM   16  O   UNL     1     -39.914  52.787 -54.807  1.00  0.00    -0.356 OA
HETATM   17  C   UNL     1     -40.134  51.517 -54.204  1.00  0.00     0.210 C 
ENDBRANCH  13  16
ENDBRANCH   7  10
ENDBRANCH   5   7
ENDBRANCH   1   5
BRANCH   2  18
HETATM   18  C   UNL     1     -43.500  56.358 -58.675  1.00  0.00     0.079 A 
HETATM   19  C   UNL     1     -43.659  56.850 -59.973  1.00  0.00     0.165 A 
HETATM   20  N   UNL     1     -44.190  56.064 -60.965  1.00  0.00    -0.241 NA
HETATM   21  C   UNL     1     -44.537  54.793 -60.680  1.00  0.00     0.119 A 
HETATM   22  C   UNL     1     -44.394  54.231 -59.429  1.00  0.00     0.020 A 
HETATM   23  C   UNL     1     -43.883  55.028 -58.411  1.00  0.00     0.022 A 
BRANCH  19  24
HETATM   24  N   UNL     1     -43.240  58.167 -60.376  1.00  0.00    -0.226 N 
HETATM   25  N   UNL     1     -44.158  59.176 -60.472  1.00  0.00    -0.179 NA
HETATM   26  C   UNL     1     -43.460  60.249 -60.836  1.00  0.00     0.141 A 
HETATM   27  C   UNL     1     -42.112  59.957 -61.067  1.00  0.00     0.040 A 
HETATM   28  C   UNL     1     -42.004  58.611 -60.811  1.00  0.00     0.122 A 
ENDBRANCH  19  24
ENDBRANCH   2  18
TORSDOF 7
ENDMDL
