MODEL 1
REMARK VINA RESULT:      -8.6      0.000      0.000
REMARK  9 active torsions:
REMARK  status: ('A' for Active; 'I' for Inactive)
REMARK    1  A    between atoms: C_2  and  O_3 
REMARK    2  A    between atoms: O_3  and  C_4 
REMARK    3  A    between atoms: C_5  and  C_6 
REMARK    4  A    between atoms: N_7  and  C_9 
REMARK    5  A    between atoms: C_9  and  C_10 
REMARK       I    between atoms: C_10  and  N_11 
REMARK    6  A    between atoms: N_11  and  C_12 
REMARK    7  A    between atoms: C_20  and  C_21 
REMARK    8  A    between atoms: C_21  and  O_22 
REMARK    9  A    between atoms: C_28  and  O_29 
ROOT
HETATM    1  C   UNL     1     -40.898  56.261 -52.209  1.00  0.00     0.231 C 
HETATM    2  N   UNL     1     -41.751  55.794 -53.400  1.00  0.00    -0.054 N 
HETATM    3  H   UNL     1     -41.712  54.760 -53.356  1.00  0.00     0.281 HD
HETATM    4  C   UNL     1     -43.215  56.152 -53.353  1.00  0.00     0.239 C 
HETATM    5  C   UNL     1     -43.426  57.630 -53.080  1.00  0.00     0.066 C 
HETATM    6  C   UNL     1     -42.709  58.081 -51.807  1.00  0.00     0.065 C 
HETATM    7  C   UNL     1     -41.204  57.755 -51.912  1.00  0.00     0.055 C 
HETATM    8  C   UNL     1     -42.928  59.591 -51.587  1.00  0.00     0.038 C 
HETATM    9  C   UNL     1     -42.140  60.124 -50.391  1.00  0.00     0.003 C 
HETATM   10  C   UNL     1     -40.657  59.803 -50.517  1.00  0.00     0.001 C 
HETATM   11  C   UNL     1     -40.419  58.307 -50.707  1.00  0.00     0.010 C 
ENDROOT
BRANCH   2  12
HETATM   12  C   UNL     1     -41.125  56.088 -54.775  1.00  0.00     0.338 C 
BRANCH  12  13
HETATM   13  C   UNL     1     -42.078  55.610 -55.877  1.00  0.00     0.248 C 
HETATM   14  N   UNL     1     -42.387  56.576 -56.813  1.00  0.00    -0.319 N 
HETATM   15  H   UNL     1     -41.974  57.508 -56.734  1.00  0.00     0.169 HD
HETATM   16  O   UNL     1     -42.584  54.498 -55.735  1.00  0.00    -0.271 OA
BRANCH  14  17
HETATM   17  C   UNL     1     -43.383  56.497 -57.782  1.00  0.00     0.094 A 
HETATM   18  S   UNL     1     -43.227  55.474 -59.124  1.00  0.00    -0.075 SA
HETATM   19  C   UNL     1     -44.736  55.930 -59.737  1.00  0.00    -0.008 A 
HETATM   20  C   UNL     1     -45.386  56.850 -58.934  1.00  0.00    -0.026 A 
HETATM   21  C   UNL     1     -45.281  55.332 -61.000  1.00  0.00     0.047 C 
HETATM   22  C   UNL     1     -46.753  57.367 -59.300  1.00  0.00     0.041 C 
HETATM   23  C   UNL     1     -44.576  57.218 -57.789  1.00  0.00     0.080 A 
HETATM   24  C   UNL     1     -47.433  56.516 -60.384  1.00  0.00     0.005 C 
HETATM   25  C   UNL     1     -46.466  56.157 -61.518  1.00  0.00     0.005 C 
BRANCH  23  26
HETATM   26  C   UNL     1     -44.897  58.165 -56.715  1.00  0.00     0.296 C 
HETATM   27  O   UNL     1     -45.849  57.986 -55.956  1.00  0.00    -0.259 OA
BRANCH  26  28
HETATM   28  O   UNL     1     -44.058  59.233 -56.657  1.00  0.00    -0.322 OA
HETATM   29  C   UNL     1     -44.242  60.205 -57.688  1.00  0.00     0.213 C 
ENDBRANCH  26  28
ENDBRANCH  23  26
ENDBRANCH  14  17
ENDBRANCH  12  13
ENDBRANCH   2  12
BRANCH   1  30
HETATM   30  C   UNL     1     -40.843  55.269 -51.042  1.00  0.00     0.006 A 
HETATM   31  C   UNL     1     -40.549  53.903 -51.278  1.00  0.00     0.077 A 
HETATM   32  C   UNL     1     -40.522  52.988 -50.213  1.00  0.00     0.037 A 
HETATM   33  C   UNL     1     -40.770  53.405 -48.908  1.00  0.00     0.003 A 
HETATM   34  C   UNL     1     -41.040  54.740 -48.656  1.00  0.00     0.001 A 
HETATM   35  C   UNL     1     -41.069  55.658 -49.708  1.00  0.00     0.012 A 
BRANCH  31  36
HETATM   36  O   UNL     1     -40.301  53.546 -52.582  1.00  0.00    -0.351 OA
BRANCH  36  37
HETATM   37  C   UNL     1     -39.960  52.177 -52.829  1.00  0.00     0.171 C 
HETATM   38  C   UNL     1     -40.331  51.839 -54.261  1.00  0.00     0.034 C 
ENDBRANCH  36  37
ENDBRANCH  31  36
ENDBRANCH   1  30
BRANCH   6  39
HETATM   39  O   UNL     1     -43.280  57.353 -50.723  1.00  0.00    -0.389 OA
HETATM   40  H   UNL     1     -44.124  56.946 -50.998  1.00  0.00     0.210 HD
ENDBRANCH   6  39
TORSDOF 9
ENDMDL
MODEL 2
REMARK VINA RESULT:      -8.3      2.772      7.486
REMARK  9 active torsions:
REMARK  status: ('A' for Active; 'I' for Inactive)
REMARK    1  A    between atoms: C_2  and  O_3 
REMARK    2  A    between atoms: O_3  and  C_4 
REMARK    3  A    between atoms: C_5  and  C_6 
REMARK    4  A    between atoms: N_7  and  C_9 
REMARK    5  A    between atoms: C_9  and  C_10 
REMARK       I    between atoms: C_10  and  N_11 
REMARK    6  A    between atoms: N_11  and  C_12 
REMARK    7  A    between atoms: C_20  and  C_21 
REMARK    8  A    between atoms: C_21  and  O_22 
REMARK    9  A    between atoms: C_28  and  O_29 
ROOT
HETATM    1  C   UNL     1     -43.413  59.379 -53.646  1.00  0.00     0.231 C 
HETATM    2  N   UNL     1     -43.692  57.914 -54.019  1.00  0.00    -0.054 N 
HETATM    3  H   UNL     1     -43.821  57.436 -53.109  1.00  0.00     0.281 HD
HETATM    4  C   UNL     1     -44.955  57.654 -54.802  1.00  0.00     0.239 C 
HETATM    5  C   UNL     1     -45.059  58.553 -56.019  1.00  0.00     0.066 C 
HETATM    6  C   UNL     1     -44.939  60.031 -55.646  1.00  0.00     0.065 C 
HETATM    7  C   UNL     1     -43.610  60.275 -54.900  1.00  0.00     0.055 C 
HETATM    8  C   UNL     1     -45.023  60.902 -56.915  1.00  0.00     0.038 C 
HETATM    9  C   UNL     1     -44.794  62.384 -56.619  1.00  0.00     0.003 C 
HETATM   10  C   UNL     1     -43.475  62.607 -55.893  1.00  0.00     0.001 C 
HETATM   11  C   UNL     1     -43.385  61.772 -54.617  1.00  0.00     0.010 C 
ENDROOT
BRANCH   2  12
HETATM   12  C   UNL     1     -42.479  57.174 -54.610  1.00  0.00     0.338 C 
BRANCH  12  13
HETATM   13  C   UNL     1     -42.431  55.749 -54.045  1.00  0.00     0.248 C 
HETATM   14  N   UNL     1     -41.186  55.366 -53.588  1.00  0.00    -0.319 N 
HETATM   15  H   UNL     1     -40.405  56.024 -53.635  1.00  0.00     0.169 HD
HETATM   16  O   UNL     1     -43.434  55.054 -54.195  1.00  0.00    -0.271 OA
BRANCH  14  17
HETATM   17  C   UNL     1     -40.798  54.076 -53.235  1.00  0.00     0.094 A 
HETATM   18  S   UNL     1     -40.315  52.952 -54.407  1.00  0.00    -0.075 SA
HETATM   19  C   UNL     1     -40.026  51.758 -53.244  1.00  0.00    -0.008 A 
HETATM   20  C   UNL     1     -40.278  52.192 -51.955  1.00  0.00    -0.026 A 
HETATM   21  C   UNL     1     -39.510  50.403 -53.625  1.00  0.00     0.047 C 
HETATM   22  C   UNL     1     -40.063  51.279 -50.775  1.00  0.00     0.041 C 
HETATM   23  C   UNL     1     -40.769  53.557 -51.943  1.00  0.00     0.080 A 
HETATM   24  C   UNL     1     -39.228  50.040 -51.136  1.00  0.00     0.005 C 
HETATM   25  C   UNL     1     -39.675  49.417 -52.462  1.00  0.00     0.005 C 
BRANCH  23  26
HETATM   26  C   UNL     1     -41.159  54.372 -50.787  1.00  0.00     0.296 C 
HETATM   27  O   UNL     1     -42.315  54.764 -50.632  1.00  0.00    -0.259 OA
BRANCH  26  28
HETATM   28  O   UNL     1     -40.135  54.644 -49.936  1.00  0.00    -0.322 OA
HETATM   29  C   UNL     1     -40.348  54.239 -48.582  1.00  0.00     0.213 C 
ENDBRANCH  26  28
ENDBRANCH  23  26
ENDBRANCH  14  17
ENDBRANCH  12  13
ENDBRANCH   2  12
BRANCH   1  30
HETATM   30  C   UNL     1     -44.029  59.822 -52.314  1.00  0.00     0.006 A 
HETATM   31  C   UNL     1     -43.200  60.287 -51.263  1.00  0.00     0.077 A 
HETATM   32  C   UNL     1     -43.760  60.670 -50.033  1.00  0.00     0.037 A 
HETATM   33  C   UNL     1     -45.136  60.614 -49.828  1.00  0.00     0.003 A 
HETATM   34  C   UNL     1     -45.963  60.181 -50.852  1.00  0.00     0.001 A 
HETATM   35  C   UNL     1     -45.416  59.797 -52.078  1.00  0.00     0.012 A 
BRANCH  31  36
HETATM   36  O   UNL     1     -41.850  60.333 -51.522  1.00  0.00    -0.351 OA
BRANCH  36  37
HETATM   37  C   UNL     1     -40.988  59.648 -50.605  1.00  0.00     0.171 C 
HETATM   38  C   UNL     1     -40.932  58.184 -51.000  1.00  0.00     0.034 C 
ENDBRANCH  36  37
ENDBRANCH  31  36
ENDBRANCH   1  30
BRANCH   6  39
HETATM   39  O   UNL     1     -46.032  60.337 -54.785  1.00  0.00    -0.389 OA
HETATM   40  H   UNL     1     -46.857  59.949 -55.137  1.00  0.00     0.210 HD
ENDBRANCH   6  39
TORSDOF 9
ENDMDL
MODEL 3
REMARK VINA RESULT:      -8.1      2.322      7.583
REMARK  9 active torsions:
REMARK  status: ('A' for Active; 'I' for Inactive)
REMARK    1  A    between atoms: C_2  and  O_3 
REMARK    2  A    between atoms: O_3  and  C_4 
REMARK    3  A    between atoms: C_5  and  C_6 
REMARK    4  A    between atoms: N_7  and  C_9 
REMARK    5  A    between atoms: C_9  and  C_10 
REMARK       I    between atoms: C_10  and  N_11 
REMARK    6  A    between atoms: N_11  and  C_12 
REMARK    7  A    between atoms: C_20  and  C_21 
REMARK    8  A    between atoms: C_21  and  O_22 
REMARK    9  A    between atoms: C_28  and  O_29 
ROOT
HETATM    1  C   UNL     1     -42.971  58.662 -57.171  1.00  0.00     0.231 C 
HETATM    2  N   UNL     1     -43.667  57.438 -57.791  1.00  0.00    -0.054 N 
HETATM    3  H   UNL     1     -44.310  57.104 -57.051  1.00  0.00     0.281 HD
HETATM    4  C   UNL     1     -44.531  57.702 -58.999  1.00  0.00     0.239 C 
HETATM    5  C   UNL     1     -43.793  58.501 -60.057  1.00  0.00     0.066 C 
HETATM    6  C   UNL     1     -43.225  59.803 -59.492  1.00  0.00     0.065 C 
HETATM    7  C   UNL     1     -42.298  59.495 -58.297  1.00  0.00     0.055 C 
HETATM    8  C   UNL     1     -42.461  60.565 -60.594  1.00  0.00     0.038 C 
HETATM    9  C   UNL     1     -41.773  61.822 -60.061  1.00  0.00     0.003 C 
HETATM   10  C   UNL     1     -40.856  61.497 -58.890  1.00  0.00     0.001 C 
HETATM   11  C   UNL     1     -41.602  60.766 -57.776  1.00  0.00     0.010 C 
ENDROOT
BRANCH   2  12
HETATM   12  C   UNL     1     -42.741  56.225 -57.993  1.00  0.00     0.338 C 
BRANCH  12  13
HETATM   13  C   UNL     1     -42.777  55.347 -56.736  1.00  0.00     0.248 C 
HETATM   14  N   UNL     1     -41.863  55.713 -55.768  1.00  0.00    -0.319 N 
HETATM   15  H   UNL     1     -41.252  56.516 -55.926  1.00  0.00     0.169 HD
HETATM   16  O   UNL     1     -43.481  54.341 -56.777  1.00  0.00    -0.271 OA
BRANCH  14  17
HETATM   17  C   UNL     1     -41.521  54.975 -54.638  1.00  0.00     0.094 A 
HETATM   18  S   UNL     1     -40.308  53.792 -54.693  1.00  0.00    -0.075 SA
HETATM   19  C   UNL     1     -40.498  53.420 -53.054  1.00  0.00    -0.008 A 
HETATM   20  C   UNL     1     -41.469  54.189 -52.437  1.00  0.00    -0.026 A 
HETATM   21  C   UNL     1     -39.645  52.386 -52.382  1.00  0.00     0.047 C 
HETATM   22  C   UNL     1     -41.774  54.020 -50.971  1.00  0.00     0.041 C 
HETATM   23  C   UNL     1     -42.104  55.092 -53.378  1.00  0.00     0.080 A 
HETATM   24  C   UNL     1     -40.688  53.223 -50.233  1.00  0.00     0.005 C 
HETATM   25  C   UNL     1     -40.245  51.990 -51.028  1.00  0.00     0.005 C 
BRANCH  23  26
HETATM   26  C   UNL     1     -43.181  56.057 -53.125  1.00  0.00     0.296 C 
HETATM   27  O   UNL     1     -44.155  56.149 -53.870  1.00  0.00    -0.259 OA
BRANCH  26  28
HETATM   28  O   UNL     1     -42.985  56.819 -52.017  1.00  0.00    -0.322 OA
HETATM   29  C   UNL     1     -44.138  56.995 -51.192  1.00  0.00     0.213 C 
ENDBRANCH  26  28
ENDBRANCH  23  26
ENDBRANCH  14  17
ENDBRANCH  12  13
ENDBRANCH   2  12
BRANCH   1  30
HETATM   30  C   UNL     1     -43.799  59.388 -56.105  1.00  0.00     0.006 A 
HETATM   31  C   UNL     1     -43.342  59.451 -54.765  1.00  0.00     0.077 A 
HETATM   32  C   UNL     1     -44.111  60.095 -53.782  1.00  0.00     0.037 A 
HETATM   33  C   UNL     1     -45.326  60.693 -54.106  1.00  0.00     0.003 A 
HETATM   34  C   UNL     1     -45.779  60.658 -55.414  1.00  0.00     0.001 A 
HETATM   35  C   UNL     1     -45.022  60.020 -56.399  1.00  0.00     0.012 A 
BRANCH  31  36
HETATM   36  O   UNL     1     -42.132  58.854 -54.503  1.00  0.00    -0.351 OA
BRANCH  36  37
HETATM   37  C   UNL     1     -41.293  59.486 -53.528  1.00  0.00     0.171 C 
HETATM   38  C   UNL     1     -40.209  58.506 -53.118  1.00  0.00     0.034 C 
ENDBRANCH  36  37
ENDBRANCH  31  36
ENDBRANCH   1  30
BRANCH   6  39
HETATM   39  O   UNL     1     -44.330  60.587 -59.049  1.00  0.00    -0.389 OA
HETATM   40  H   UNL     1     -44.127  61.538 -59.144  1.00  0.00     0.210 HD
ENDBRANCH   6  39
TORSDOF 9
ENDMDL
MODEL 4
REMARK VINA RESULT:      -8.0      2.365      8.241
REMARK  9 active torsions:
REMARK  status: ('A' for Active; 'I' for Inactive)
REMARK    1  A    between atoms: C_2  and  O_3 
REMARK    2  A    between atoms: O_3  and  C_4 
REMARK    3  A    between atoms: C_5  and  C_6 
REMARK    4  A    between atoms: N_7  and  C_9 
REMARK    5  A    between atoms: C_9  and  C_10 
REMARK       I    between atoms: C_10  and  N_11 
REMARK    6  A    between atoms: N_11  and  C_12 
REMARK    7  A    between atoms: C_20  and  C_21 
REMARK    8  A    between atoms: C_21  and  O_22 
REMARK    9  A    between atoms: C_28  and  O_29 
ROOT
HETATM    1  C   UNL     1     -44.309  58.844 -57.018  1.00  0.00     0.231 C 
HETATM    2  N   UNL     1     -43.544  59.322 -55.772  1.00  0.00    -0.054 N 
HETATM    3  H   UNL     1     -42.551  59.112 -55.983  1.00  0.00     0.281 HD
HETATM    4  C   UNL     1     -43.599  60.801 -55.482  1.00  0.00     0.239 C 
HETATM    5  C   UNL     1     -45.023  61.323 -55.477  1.00  0.00     0.066 C 
HETATM    6  C   UNL     1     -45.754  60.990 -56.779  1.00  0.00     0.065 C 
HETATM    7  C   UNL     1     -45.733  59.465 -57.016  1.00  0.00     0.055 C 
HETATM    8  C   UNL     1     -47.203  61.514 -56.716  1.00  0.00     0.038 C 
HETATM    9  C   UNL     1     -48.020  61.112 -57.943  1.00  0.00     0.003 C 
HETATM   10  C   UNL     1     -47.996  59.604 -58.155  1.00  0.00     0.001 C 
HETATM   11  C   UNL     1     -46.568  59.071 -58.248  1.00  0.00     0.010 C 
ENDROOT
BRANCH   2  12
HETATM   12  C   UNL     1     -43.799  58.474 -54.514  1.00  0.00     0.338 C 
BRANCH  12  13
HETATM   13  C   UNL     1     -42.669  57.449 -54.357  1.00  0.00     0.248 C 
HETATM   14  N   UNL     1     -43.106  56.164 -54.101  1.00  0.00    -0.319 N 
HETATM   15  H   UNL     1     -44.107  55.972 -54.046  1.00  0.00     0.169 HD
HETATM   16  O   UNL     1     -41.521  57.885 -54.318  1.00  0.00    -0.271 OA
BRANCH  14  17
HETATM   17  C   UNL     1     -42.316  55.091 -53.698  1.00  0.00     0.094 A 
HETATM   18  S   UNL     1     -41.460  54.156 -54.824  1.00  0.00    -0.075 SA
HETATM   19  C   UNL     1     -40.813  53.166 -53.615  1.00  0.00    -0.008 A 
HETATM   20  C   UNL     1     -41.221  53.531 -52.345  1.00  0.00    -0.026 A 
HETATM   21  C   UNL     1     -39.865  52.051 -53.942  1.00  0.00     0.047 C 
HETATM   22  C   UNL     1     -40.737  52.781 -51.131  1.00  0.00     0.041 C 
HETATM   23  C   UNL     1     -42.140  54.652 -52.387  1.00  0.00     0.080 A 
HETATM   24  C   UNL     1     -39.529  51.882 -51.439  1.00  0.00     0.005 C 
HETATM   25  C   UNL     1     -39.714  51.104 -52.746  1.00  0.00     0.005 C 
BRANCH  23  26
HETATM   26  C   UNL     1     -42.804  55.326 -51.265  1.00  0.00     0.296 C 
HETATM   27  O   UNL     1     -43.636  54.750 -50.565  1.00  0.00    -0.259 OA
BRANCH  26  28
HETATM   28  O   UNL     1     -42.417  56.618 -51.094  1.00  0.00    -0.322 OA
HETATM   29  C   UNL     1     -41.118  56.790 -50.526  1.00  0.00     0.213 C 
ENDBRANCH  26  28
ENDBRANCH  23  26
ENDBRANCH  14  17
ENDBRANCH  12  13
ENDBRANCH   2  12
BRANCH   1  30
HETATM   30  C   UNL     1     -43.490  58.871 -58.313  1.00  0.00     0.006 A 
HETATM   31  C   UNL     1     -43.393  57.712 -59.122  1.00  0.00     0.077 A 
HETATM   32  C   UNL     1     -42.623  57.728 -60.296  1.00  0.00     0.037 A 
HETATM   33  C   UNL     1     -41.954  58.881 -60.695  1.00  0.00     0.003 A 
HETATM   34  C   UNL     1     -42.054  60.030 -59.927  1.00  0.00     0.001 A 
HETATM   35  C   UNL     1     -42.816  60.025 -58.757  1.00  0.00     0.012 A 
BRANCH  31  36
HETATM   36  O   UNL     1     -44.082  56.604 -58.689  1.00  0.00    -0.351 OA
BRANCH  36  37
HETATM   37  C   UNL     1     -43.714  55.343 -59.264  1.00  0.00     0.171 C 
HETATM   38  C   UNL     1     -44.912  54.790 -60.014  1.00  0.00     0.034 C 
ENDBRANCH  36  37
ENDBRANCH  31  36
ENDBRANCH   1  30
BRANCH   6  39
HETATM   39  O   UNL     1     -45.056  61.647 -57.833  1.00  0.00    -0.389 OA
HETATM   40  H   UNL     1     -45.120  61.124 -58.656  1.00  0.00     0.210 HD
ENDBRANCH   6  39
TORSDOF 9
ENDMDL
MODEL 5
REMARK VINA RESULT:      -7.9      1.496      2.325
REMARK  9 active torsions:
REMARK  status: ('A' for Active; 'I' for Inactive)
REMARK    1  A    between atoms: C_2  and  O_3 
REMARK    2  A    between atoms: O_3  and  C_4 
REMARK    3  A    between atoms: C_5  and  C_6 
REMARK    4  A    between atoms: N_7  and  C_9 
REMARK    5  A    between atoms: C_9  and  C_10 
REMARK       I    between atoms: C_10  and  N_11 
REMARK    6  A    between atoms: N_11  and  C_12 
REMARK    7  A    between atoms: C_20  and  C_21 
REMARK    8  A    between atoms: C_21  and  O_22 
REMARK    9  A    between atoms: C_28  and  O_29 
ROOT
HETATM    1  C   UNL     1     -41.001  55.992 -52.301  1.00  0.00     0.231 C 
HETATM    2  N   UNL     1     -41.954  55.471 -53.391  1.00  0.00    -0.054 N 
HETATM    3  H   UNL     1     -41.921  54.440 -53.291  1.00  0.00     0.281 HD
HETATM    4  C   UNL     1     -43.405  55.853 -53.245  1.00  0.00     0.239 C 
HETATM    5  C   UNL     1     -43.578  57.347 -53.042  1.00  0.00     0.066 C 
HETATM    6  C   UNL     1     -42.754  57.858 -51.859  1.00  0.00     0.065 C 
HETATM    7  C   UNL     1     -41.266  57.505 -52.067  1.00  0.00     0.055 C 
HETATM    8  C   UNL     1     -42.940  59.381 -51.709  1.00  0.00     0.038 C 
HETATM    9  C   UNL     1     -42.051  59.970 -50.614  1.00  0.00     0.003 C 
HETATM   10  C   UNL     1     -40.586  59.620 -50.840  1.00  0.00     0.001 C 
HETATM   11  C   UNL     1     -40.380  58.112 -50.963  1.00  0.00     0.010 C 
ENDROOT
BRANCH   2  12
HETATM   12  C   UNL     1     -41.439  55.678 -54.826  1.00  0.00     0.338 C 
BRANCH  12  13
HETATM   13  C   UNL     1     -42.635  55.821 -55.776  1.00  0.00     0.248 C 
HETATM   14  N   UNL     1     -42.671  57.020 -56.459  1.00  0.00    -0.319 N 
HETATM   15  H   UNL     1     -41.930  57.708 -56.313  1.00  0.00     0.169 HD
HETATM   16  O   UNL     1     -43.500  54.951 -55.719  1.00  0.00    -0.271 OA
BRANCH  14  17
HETATM   17  C   UNL     1     -43.739  57.511 -57.206  1.00  0.00     0.094 A 
HETATM   18  S   UNL     1     -44.753  58.725 -56.597  1.00  0.00    -0.075 SA
HETATM   19  C   UNL     1     -45.690  58.745 -58.006  1.00  0.00    -0.008 A 
HETATM   20  C   UNL     1     -45.245  57.848 -58.960  1.00  0.00    -0.026 A 
HETATM   21  C   UNL     1     -46.843  59.691 -58.164  1.00  0.00     0.047 C 
HETATM   22  C   UNL     1     -45.938  57.730 -60.293  1.00  0.00     0.041 C 
HETATM   23  C   UNL     1     -44.108  57.087 -58.481  1.00  0.00     0.080 A 
HETATM   24  C   UNL     1     -46.881  58.911 -60.573  1.00  0.00     0.005 C 
HETATM   25  C   UNL     1     -47.726  59.270 -59.346  1.00  0.00     0.005 C 
BRANCH  23  26
HETATM   26  C   UNL     1     -43.358  56.036 -59.179  1.00  0.00     0.296 C 
HETATM   27  O   UNL     1     -42.404  56.299 -59.911  1.00  0.00    -0.259 OA
BRANCH  26  28
HETATM   28  O   UNL     1     -43.822  54.781 -58.941  1.00  0.00    -0.322 OA
HETATM   29  C   UNL     1     -44.743  54.282 -59.913  1.00  0.00     0.213 C 
ENDBRANCH  26  28
ENDBRANCH  23  26
ENDBRANCH  14  17
ENDBRANCH  12  13
ENDBRANCH   2  12
BRANCH   1  30
HETATM   30  C   UNL     1     -40.861  55.067 -51.088  1.00  0.00     0.006 A 
HETATM   31  C   UNL     1     -40.483  53.712 -51.261  1.00  0.00     0.077 A 
HETATM   32  C   UNL     1     -40.378  52.856 -50.153  1.00  0.00     0.037 A 
HETATM   33  C   UNL     1     -40.628  53.323 -48.866  1.00  0.00     0.003 A 
HETATM   34  C   UNL     1     -40.979  54.649 -48.675  1.00  0.00     0.001 A 
HETATM   35  C   UNL     1     -41.087  55.508 -49.771  1.00  0.00     0.012 A 
BRANCH  31  36
HETATM   36  O   UNL     1     -40.237  53.305 -52.552  1.00  0.00    -0.351 OA
BRANCH  36  37
HETATM   37  C   UNL     1     -39.840  51.941 -52.739  1.00  0.00     0.171 C 
HETATM   38  C   UNL     1     -40.262  51.505 -54.131  1.00  0.00     0.034 C 
ENDBRANCH  36  37
ENDBRANCH  31  36
ENDBRANCH   1  30
BRANCH   6  39
HETATM   39  O   UNL     1     -43.242  57.201 -50.692  1.00  0.00    -0.389 OA
HETATM   40  H   UNL     1     -43.033  56.248 -50.730  1.00  0.00     0.210 HD
ENDBRANCH   6  39
TORSDOF 9
ENDMDL
MODEL 6
REMARK VINA RESULT:      -7.9      2.146      8.597
REMARK  9 active torsions:
REMARK  status: ('A' for Active; 'I' for Inactive)
REMARK    1  A    between atoms: C_2  and  O_3 
REMARK    2  A    between atoms: O_3  and  C_4 
REMARK    3  A    between atoms: C_5  and  C_6 
REMARK    4  A    between atoms: N_7  and  C_9 
REMARK    5  A    between atoms: C_9  and  C_10 
REMARK       I    between atoms: C_10  and  N_11 
REMARK    6  A    between atoms: N_11  and  C_12 
REMARK    7  A    between atoms: C_20  and  C_21 
REMARK    8  A    between atoms: C_21  and  O_22 
REMARK    9  A    between atoms: C_28  and  O_29 
ROOT
HETATM    1  C   UNL     1     -43.859  58.152 -57.821  1.00  0.00     0.231 C 
HETATM    2  N   UNL     1     -44.932  58.773 -56.911  1.00  0.00    -0.054 N 
HETATM    3  H   UNL     1     -44.549  59.702 -56.657  1.00  0.00     0.281 HD
HETATM    4  C   UNL     1     -46.273  59.042 -57.547  1.00  0.00     0.239 C 
HETATM    5  C   UNL     1     -46.812  57.819 -58.265  1.00  0.00     0.066 C 
HETATM    6  C   UNL     1     -45.816  57.277 -59.291  1.00  0.00     0.065 C 
HETATM    7  C   UNL     1     -44.475  56.955 -58.597  1.00  0.00     0.055 C 
HETATM    8  C   UNL     1     -46.395  56.021 -59.973  1.00  0.00     0.038 C 
HETATM    9  C   UNL     1     -45.398  55.366 -60.927  1.00  0.00     0.003 C 
HETATM   10  C   UNL     1     -44.085  55.046 -60.224  1.00  0.00     0.001 C 
HETATM   11  C   UNL     1     -43.482  56.285 -59.566  1.00  0.00     0.010 C 
ENDROOT
BRANCH   2  12
HETATM   12  C   UNL     1     -45.067  58.087 -55.540  1.00  0.00     0.338 C 
BRANCH  12  13
HETATM   13  C   UNL     1     -43.787  57.298 -55.241  1.00  0.00     0.248 C 
HETATM   14  N   UNL     1     -44.010  56.007 -54.806  1.00  0.00    -0.319 N 
HETATM   15  H   UNL     1     -44.967  55.659 -54.723  1.00  0.00     0.169 HD
HETATM   16  O   UNL     1     -42.728  57.921 -55.264  1.00  0.00    -0.271 OA
BRANCH  14  17
HETATM   17  C   UNL     1     -43.063  55.148 -54.256  1.00  0.00     0.094 A 
HETATM   18  S   UNL     1     -42.149  54.105 -55.231  1.00  0.00    -0.075 SA
HETATM   19  C   UNL     1     -41.311  53.481 -53.901  1.00  0.00    -0.008 A 
HETATM   20  C   UNL     1     -41.698  54.057 -52.704  1.00  0.00    -0.026 A 
HETATM   21  C   UNL     1     -40.240  52.445 -54.067  1.00  0.00     0.047 C 
HETATM   22  C   UNL     1     -41.054  53.646 -51.404  1.00  0.00     0.041 C 
HETATM   23  C   UNL     1     -42.761  55.023 -52.901  1.00  0.00     0.080 A 
HETATM   24  C   UNL     1     -39.754  52.856 -51.617  1.00  0.00     0.005 C 
HETATM   25  C   UNL     1     -39.901  51.800 -52.718  1.00  0.00     0.005 C 
BRANCH  23  26
HETATM   26  C   UNL     1     -43.450  55.835 -51.891  1.00  0.00     0.296 C 
HETATM   27  O   UNL     1     -44.147  55.324 -51.015  1.00  0.00    -0.259 OA
BRANCH  26  28
HETATM   28  O   UNL     1     -43.247  57.172 -52.030  1.00  0.00    -0.322 OA
HETATM   29  C   UNL     1     -41.939  57.625 -51.676  1.00  0.00     0.213 C 
ENDBRANCH  26  28
ENDBRANCH  23  26
ENDBRANCH  14  17
ENDBRANCH  12  13
ENDBRANCH   2  12
BRANCH   1  30
HETATM   30  C   UNL     1     -43.008  59.172 -58.585  1.00  0.00     0.006 A 
HETATM   31  C   UNL     1     -42.476  60.303 -57.916  1.00  0.00     0.077 A 
HETATM   32  C   UNL     1     -41.717  61.252 -58.619  1.00  0.00     0.037 A 
HETATM   33  C   UNL     1     -41.461  61.094 -59.978  1.00  0.00     0.003 A 
HETATM   34  C   UNL     1     -41.956  59.985 -60.644  1.00  0.00     0.001 A 
HETATM   35  C   UNL     1     -42.713  59.036 -59.954  1.00  0.00     0.012 A 
BRANCH  31  36
HETATM   36  O   UNL     1     -42.750  60.404 -56.572  1.00  0.00    -0.351 OA
BRANCH  36  37
HETATM   37  C   UNL     1     -43.100  61.702 -56.076  1.00  0.00     0.171 C 
HETATM   38  C   UNL     1     -43.771  61.535 -54.725  1.00  0.00     0.034 C 
ENDBRANCH  36  37
ENDBRANCH  31  36
ENDBRANCH   1  30
BRANCH   6  39
HETATM   39  O   UNL     1     -45.616  58.298 -60.264  1.00  0.00    -0.389 OA
HETATM   40  H   UNL     1     -46.473  58.694 -60.517  1.00  0.00     0.210 HD
ENDBRANCH   6  39
TORSDOF 9
ENDMDL
MODEL 7
REMARK VINA RESULT:      -7.8      2.311      8.228
REMARK  9 active torsions:
REMARK  status: ('A' for Active; 'I' for Inactive)
REMARK    1  A    between atoms: C_2  and  O_3 
REMARK    2  A    between atoms: O_3  and  C_4 
REMARK    3  A    between atoms: C_5  and  C_6 
REMARK    4  A    between atoms: N_7  and  C_9 
REMARK    5  A    between atoms: C_9  and  C_10 
REMARK       I    between atoms: C_10  and  N_11 
REMARK    6  A    between atoms: N_11  and  C_12 
REMARK    7  A    between atoms: C_20  and  C_21 
REMARK    8  A    between atoms: C_21  and  O_22 
REMARK    9  A    between atoms: C_28  and  O_29 
ROOT
HETATM    1  C   UNL     1     -43.914  58.767 -56.434  1.00  0.00     0.231 C 
HETATM    2  N   UNL     1     -43.031  58.320 -55.256  1.00  0.00    -0.054 N 
HETATM    3  H   UNL     1     -42.591  57.441 -55.583  1.00  0.00     0.281 HD
HETATM    4  C   UNL     1     -41.893  59.239 -54.889  1.00  0.00     0.239 C 
HETATM    5  C   UNL     1     -42.361  60.670 -54.704  1.00  0.00     0.066 C 
HETATM    6  C   UNL     1     -43.109  61.187 -55.933  1.00  0.00     0.065 C 
HETATM    7  C   UNL     1     -44.303  60.260 -56.247  1.00  0.00     0.055 C 
HETATM    8  C   UNL     1     -43.588  62.632 -55.688  1.00  0.00     0.038 C 
HETATM    9  C   UNL     1     -44.442  63.164 -56.838  1.00  0.00     0.003 C 
HETATM   10  C   UNL     1     -45.620  62.242 -57.127  1.00  0.00     0.001 C 
HETATM   11  C   UNL     1     -45.162  60.811 -57.400  1.00  0.00     0.010 C 
ENDROOT
BRANCH   2  12
HETATM   12  C   UNL     1     -43.822  57.852 -54.022  1.00  0.00     0.338 C 
BRANCH  12  13
HETATM   13  C   UNL     1     -43.527  56.369 -53.765  1.00  0.00     0.248 C 
HETATM   14  N   UNL     1     -42.241  56.117 -53.331  1.00  0.00    -0.319 N 
HETATM   15  H   UNL     1     -41.590  56.894 -53.197  1.00  0.00     0.169 HD
HETATM   16  O   UNL     1     -44.385  55.560 -54.112  1.00  0.00    -0.271 OA
BRANCH  14  17
HETATM   17  C   UNL     1     -41.633  54.868 -53.235  1.00  0.00     0.094 A 
HETATM   18  S   UNL     1     -41.449  53.873 -54.594  1.00  0.00    -0.075 SA
HETATM   19  C   UNL     1     -40.679  52.665 -53.693  1.00  0.00    -0.008 A 
HETATM   20  C   UNL     1     -40.537  52.999 -52.358  1.00  0.00    -0.026 A 
HETATM   21  C   UNL     1     -40.182  51.405 -54.337  1.00  0.00     0.047 C 
HETATM   22  C   UNL     1     -39.859  52.061 -51.394  1.00  0.00     0.041 C 
HETATM   23  C   UNL     1     -41.131  54.291 -52.070  1.00  0.00     0.080 A 
HETATM   24  C   UNL     1     -39.069  50.953 -52.109  1.00  0.00     0.005 C 
HETATM   25  C   UNL     1     -39.860  50.349 -53.274  1.00  0.00     0.005 C 
BRANCH  23  26
HETATM   26  C   UNL     1     -41.201  54.992 -50.783  1.00  0.00     0.296 C 
HETATM   27  O   UNL     1     -40.783  56.141 -50.648  1.00  0.00    -0.259 OA
BRANCH  26  28
HETATM   28  O   UNL     1     -41.756  54.253 -49.786  1.00  0.00    -0.322 OA
HETATM   29  C   UNL     1     -40.974  54.160 -48.594  1.00  0.00     0.213 C 
ENDBRANCH  26  28
ENDBRANCH  23  26
ENDBRANCH  14  17
ENDBRANCH  12  13
ENDBRANCH   2  12
BRANCH   1  30
HETATM   30  C   UNL     1     -43.423  58.295 -57.807  1.00  0.00     0.006 A 
HETATM   31  C   UNL     1     -44.303  57.614 -58.685  1.00  0.00     0.077 A 
HETATM   32  C   UNL     1     -43.849  57.159 -59.933  1.00  0.00     0.037 A 
HETATM   33  C   UNL     1     -42.536  57.380 -60.338  1.00  0.00     0.003 A 
HETATM   34  C   UNL     1     -41.667  58.061 -59.502  1.00  0.00     0.001 A 
HETATM   35  C   UNL     1     -42.109  58.517 -58.258  1.00  0.00     0.012 A 
BRANCH  31  36
HETATM   36  O   UNL     1     -45.592  57.432 -58.241  1.00  0.00    -0.351 OA
BRANCH  36  37
HETATM   37  C   UNL     1     -46.607  57.272 -59.240  1.00  0.00     0.171 C 
HETATM   38  C   UNL     1     -47.195  58.636 -59.551  1.00  0.00     0.034 C 
ENDBRANCH  36  37
ENDBRANCH  31  36
ENDBRANCH   1  30
BRANCH   6  39
HETATM   39  O   UNL     1     -42.191  61.167 -57.023  1.00  0.00    -0.389 OA
HETATM   40  H   UNL     1     -42.622  61.506 -57.832  1.00  0.00     0.210 HD
ENDBRANCH   6  39
TORSDOF 9
ENDMDL
MODEL 8
REMARK VINA RESULT:      -7.5      3.225      6.934
REMARK  9 active torsions:
REMARK  status: ('A' for Active; 'I' for Inactive)
REMARK    1  A    between atoms: C_2  and  O_3 
REMARK    2  A    between atoms: O_3  and  C_4 
REMARK    3  A    between atoms: C_5  and  C_6 
REMARK    4  A    between atoms: N_7  and  C_9 
REMARK    5  A    between atoms: C_9  and  C_10 
REMARK       I    between atoms: C_10  and  N_11 
REMARK    6  A    between atoms: N_11  and  C_12 
REMARK    7  A    between atoms: C_20  and  C_21 
REMARK    8  A    between atoms: C_21  and  O_22 
REMARK    9  A    between atoms: C_28  and  O_29 
ROOT
HETATM    1  C   UNL     1     -42.453  54.285 -52.960  1.00  0.00     0.231 C 
HETATM    2  N   UNL     1     -42.302  55.335 -51.847  1.00  0.00    -0.054 N 
HETATM    3  H   UNL     1     -41.799  54.838 -51.089  1.00  0.00     0.281 HD
HETATM    4  C   UNL     1     -41.458  56.541 -52.177  1.00  0.00     0.239 C 
HETATM    5  C   UNL     1     -41.886  57.189 -53.480  1.00  0.00     0.066 C 
HETATM    6  C   UNL     1     -41.892  56.189 -54.637  1.00  0.00     0.065 C 
HETATM    7  C   UNL     1     -42.811  54.997 -54.294  1.00  0.00     0.055 C 
HETATM    8  C   UNL     1     -42.360  56.885 -55.931  1.00  0.00     0.038 C 
HETATM    9  C   UNL     1     -42.496  55.909 -57.099  1.00  0.00     0.003 C 
HETATM   10  C   UNL     1     -43.414  54.746 -56.746  1.00  0.00     0.001 C 
HETATM   11  C   UNL     1     -42.950  54.027 -55.481  1.00  0.00     0.010 C 
ENDROOT
BRANCH   2  12
HETATM   12  C   UNL     1     -43.625  55.722 -51.164  1.00  0.00     0.338 C 
BRANCH  12  13
HETATM   13  C   UNL     1     -44.026  57.136 -51.602  1.00  0.00     0.248 C 
HETATM   14  N   UNL     1     -43.651  58.127 -50.718  1.00  0.00    -0.319 N 
HETATM   15  H   UNL     1     -43.140  57.881 -49.868  1.00  0.00     0.169 HD
HETATM   16  O   UNL     1     -44.758  57.229 -52.585  1.00  0.00    -0.271 OA
BRANCH  14  17
HETATM   17  C   UNL     1     -44.069  59.455 -50.742  1.00  0.00     0.094 A 
HETATM   18  S   UNL     1     -45.658  59.884 -50.338  1.00  0.00    -0.075 SA
HETATM   19  C   UNL     1     -45.352  61.529 -50.590  1.00  0.00    -0.008 A 
HETATM   20  C   UNL     1     -44.046  61.781 -50.970  1.00  0.00    -0.026 A 
HETATM   21  C   UNL     1     -46.413  62.565 -50.365  1.00  0.00     0.047 C 
HETATM   22  C   UNL     1     -43.572  63.188 -51.225  1.00  0.00     0.041 C 
HETATM   23  C   UNL     1     -43.286  60.552 -51.096  1.00  0.00     0.080 A 
HETATM   24  C   UNL     1     -44.544  64.244 -50.674  1.00  0.00     0.005 C 
HETATM   25  C   UNL     1     -46.002  63.901 -50.996  1.00  0.00     0.005 C 
BRANCH  23  26
HETATM   26  C   UNL     1     -41.881  60.388 -51.487  1.00  0.00     0.296 C 
HETATM   27  O   UNL     1     -41.519  60.492 -52.658  1.00  0.00    -0.259 OA
BRANCH  26  28
HETATM   28  O   UNL     1     -41.051  60.111 -50.447  1.00  0.00    -0.322 OA
HETATM   29  C   UNL     1     -39.824  59.473 -50.804  1.00  0.00     0.213 C 
ENDBRANCH  26  28
ENDBRANCH  23  26
ENDBRANCH  14  17
ENDBRANCH  12  13
ENDBRANCH   2  12
BRANCH   1  30
HETATM   30  C   UNL     1     -41.364  53.207 -52.965  1.00  0.00     0.006 A 
HETATM   31  C   UNL     1     -40.664  52.891 -51.773  1.00  0.00     0.077 A 
HETATM   32  C   UNL     1     -39.650  51.921 -51.781  1.00  0.00     0.037 A 
HETATM   33  C   UNL     1     -39.321  51.243 -52.951  1.00  0.00     0.003 A 
HETATM   34  C   UNL     1     -40.007  51.524 -54.121  1.00  0.00     0.001 A 
HETATM   35  C   UNL     1     -41.017  52.487 -54.124  1.00  0.00     0.012 A 
BRANCH  31  36
HETATM   36  O   UNL     1     -41.036  53.582 -50.644  1.00  0.00    -0.351 OA
BRANCH  36  37
HETATM   37  C   UNL     1     -39.988  53.993 -49.758  1.00  0.00     0.171 C 
HETATM   38  C   UNL     1     -40.565  54.133 -48.362  1.00  0.00     0.034 C 
ENDBRANCH  36  37
ENDBRANCH  31  36
ENDBRANCH   1  30
BRANCH   6  39
HETATM   39  O   UNL     1     -40.554  55.728 -54.801  1.00  0.00    -0.389 OA
HETATM   40  H   UNL     1     -39.929  56.359 -54.395  1.00  0.00     0.210 HD
ENDBRANCH   6  39
TORSDOF 9
ENDMDL
MODEL 9
REMARK VINA RESULT:      -7.5      2.651      8.626
REMARK  9 active torsions:
REMARK  status: ('A' for Active; 'I' for Inactive)
REMARK    1  A    between atoms: C_2  and  O_3 
REMARK    2  A    between atoms: O_3  and  C_4 
REMARK    3  A    between atoms: C_5  and  C_6 
REMARK    4  A    between atoms: N_7  and  C_9 
REMARK    5  A    between atoms: C_9  and  C_10 
REMARK       I    between atoms: C_10  and  N_11 
REMARK    6  A    between atoms: N_11  and  C_12 
REMARK    7  A    between atoms: C_20  and  C_21 
REMARK    8  A    between atoms: C_21  and  O_22 
REMARK    9  A    between atoms: C_28  and  O_29 
ROOT
HETATM    1  C   UNL     1     -44.911  58.893 -57.234  1.00  0.00     0.231 C 
HETATM    2  N   UNL     1     -44.303  59.349 -55.897  1.00  0.00    -0.054 N 
HETATM    3  H   UNL     1     -43.304  59.080 -55.962  1.00  0.00     0.281 HD
HETATM    4  C   UNL     1     -44.312  60.834 -55.633  1.00  0.00     0.239 C 
HETATM    5  C   UNL     1     -45.691  61.435 -55.835  1.00  0.00     0.066 C 
HETATM    6  C   UNL     1     -46.249  61.120 -57.224  1.00  0.00     0.065 C 
HETATM    7  C   UNL     1     -46.283  59.593 -57.440  1.00  0.00     0.055 C 
HETATM    8  C   UNL     1     -47.659  61.726 -57.373  1.00  0.00     0.038 C 
HETATM    9  C   UNL     1     -48.316  61.348 -58.700  1.00  0.00     0.003 C 
HETATM   10  C   UNL     1     -48.350  59.838 -58.891  1.00  0.00     0.001 C 
HETATM   11  C   UNL     1     -46.957  59.223 -58.775  1.00  0.00     0.010 C 
ENDROOT
BRANCH   2  12
HETATM   12  C   UNL     1     -44.782  58.540 -54.679  1.00  0.00     0.338 C 
BRANCH  12  13
HETATM   13  C   UNL     1     -43.578  57.856 -54.021  1.00  0.00     0.248 C 
HETATM   14  N   UNL     1     -43.860  56.618 -53.478  1.00  0.00    -0.319 N 
HETATM   15  H   UNL     1     -44.805  56.236 -53.553  1.00  0.00     0.169 HD
HETATM   16  O   UNL     1     -42.553  58.523 -53.903  1.00  0.00    -0.271 OA
BRANCH  14  17
HETATM   17  C   UNL     1     -43.033  55.880 -52.636  1.00  0.00     0.094 A 
HETATM   18  S   UNL     1     -43.198  55.957 -50.951  1.00  0.00    -0.075 SA
HETATM   19  C   UNL     1     -41.937  54.855 -50.707  1.00  0.00    -0.008 A 
HETATM   20  C   UNL     1     -41.381  54.403 -51.891  1.00  0.00    -0.026 A 
HETATM   21  C   UNL     1     -41.537  54.417 -49.330  1.00  0.00     0.047 C 
HETATM   22  C   UNL     1     -40.256  53.402 -51.884  1.00  0.00     0.041 C 
HETATM   23  C   UNL     1     -42.003  55.032 -53.041  1.00  0.00     0.080 A 
HETATM   24  C   UNL     1     -40.087  52.716 -50.519  1.00  0.00     0.005 C 
HETATM   25  C   UNL     1     -40.173  53.718 -49.363  1.00  0.00     0.005 C 
BRANCH  23  26
HETATM   26  C   UNL     1     -41.695  54.834 -54.462  1.00  0.00     0.296 C 
HETATM   27  O   UNL     1     -40.557  54.986 -54.904  1.00  0.00    -0.259 OA
BRANCH  26  28
HETATM   28  O   UNL     1     -42.772  54.484 -55.213  1.00  0.00    -0.322 OA
HETATM   29  C   UNL     1     -42.823  55.077 -56.512  1.00  0.00     0.213 C 
ENDBRANCH  26  28
ENDBRANCH  23  26
ENDBRANCH  14  17
ENDBRANCH  12  13
ENDBRANCH   2  12
BRANCH   1  30
HETATM   30  C   UNL     1     -43.917  58.850 -58.400  1.00  0.00     0.006 A 
HETATM   31  C   UNL     1     -43.844  57.709 -59.236  1.00  0.00     0.077 A 
HETATM   32  C   UNL     1     -42.918  57.658 -60.290  1.00  0.00     0.037 A 
HETATM   33  C   UNL     1     -42.065  58.729 -60.541  1.00  0.00     0.003 A 
HETATM   34  C   UNL     1     -42.135  59.861 -59.746  1.00  0.00     0.001 A 
HETATM   35  C   UNL     1     -43.053  59.921 -58.695  1.00  0.00     0.012 A 
BRANCH  31  36
HETATM   36  O   UNL     1     -44.717  56.685 -58.952  1.00  0.00    -0.351 OA
BRANCH  36  37
HETATM   37  C   UNL     1     -45.117  55.848 -60.044  1.00  0.00     0.171 C 
HETATM   38  C   UNL     1     -44.592  54.446 -59.794  1.00  0.00     0.034 C 
ENDBRANCH  36  37
ENDBRANCH  31  36
ENDBRANCH   1  30
BRANCH   6  39
HETATM   39  O   UNL     1     -45.371  61.717 -58.175  1.00  0.00    -0.389 OA
HETATM   40  H   UNL     1     -45.433  61.250 -59.030  1.00  0.00     0.210 HD
ENDBRANCH   6  39
TORSDOF 9
ENDMDL
MODEL 10
REMARK VINA RESULT:      -7.5      2.971      7.633
REMARK  9 active torsions:
REMARK  status: ('A' for Active; 'I' for Inactive)
REMARK    1  A    between atoms: C_2  and  O_3 
REMARK    2  A    between atoms: O_3  and  C_4 
REMARK    3  A    between atoms: C_5  and  C_6 
REMARK    4  A    between atoms: N_7  and  C_9 
REMARK    5  A    between atoms: C_9  and  C_10 
REMARK       I    between atoms: C_10  and  N_11 
REMARK    6  A    between atoms: N_11  and  C_12 
REMARK    7  A    between atoms: C_20  and  C_21 
REMARK    8  A    between atoms: C_21  and  O_22 
REMARK    9  A    between atoms: C_28  and  O_29 
ROOT
HETATM    1  C   UNL     1     -44.610  60.185 -52.942  1.00  0.00     0.231 C 
HETATM    2  N   UNL     1     -43.908  59.189 -52.003  1.00  0.00    -0.054 N 
HETATM    3  H   UNL     1     -43.322  58.610 -52.632  1.00  0.00     0.281 HD
HETATM    4  C   UNL     1     -42.961  59.781 -50.989  1.00  0.00     0.239 C 
HETATM    5  C   UNL     1     -43.608  60.905 -50.202  1.00  0.00     0.066 C 
HETATM    6  C   UNL     1     -44.177  61.988 -51.120  1.00  0.00     0.065 C 
HETATM    7  C   UNL     1     -45.187  61.360 -52.105  1.00  0.00     0.055 C 
HETATM    8  C   UNL     1     -44.848  63.092 -50.278  1.00  0.00     0.038 C 
HETATM    9  C   UNL     1     -45.536  64.146 -51.145  1.00  0.00     0.003 C 
HETATM   10  C   UNL     1     -46.535  63.510 -52.102  1.00  0.00     0.001 C 
HETATM   11  C   UNL     1     -45.882  62.432 -52.965  1.00  0.00     0.010 C 
ENDROOT
BRANCH   2  12
HETATM   12  C   UNL     1     -44.849  58.145 -51.377  1.00  0.00     0.338 C 
BRANCH  12  13
HETATM   13  C   UNL     1     -44.102  56.814 -51.231  1.00  0.00     0.248 C 
HETATM   14  N   UNL     1     -43.020  56.679 -52.078  1.00  0.00    -0.319 N 
HETATM   15  H   UNL     1     -42.778  57.440 -52.715  1.00  0.00     0.169 HD
HETATM   16  O   UNL     1     -44.616  55.960 -50.511  1.00  0.00    -0.271 OA
BRANCH  14  17
HETATM   17  C   UNL     1     -42.304  55.510 -52.320  1.00  0.00     0.094 A 
HETATM   18  S   UNL     1     -42.373  54.732 -53.824  1.00  0.00    -0.075 SA
HETATM   19  C   UNL     1     -41.308  53.516 -53.324  1.00  0.00    -0.008 A 
HETATM   20  C   UNL     1     -40.875  53.685 -52.021  1.00  0.00    -0.026 A 
HETATM   21  C   UNL     1     -40.879  52.421 -54.253  1.00  0.00     0.047 C 
HETATM   22  C   UNL     1     -39.906  52.714 -51.396  1.00  0.00     0.041 C 
HETATM   23  C   UNL     1     -41.487  54.847 -51.406  1.00  0.00     0.080 A 
HETATM   24  C   UNL     1     -39.223  51.813 -52.437  1.00  0.00     0.005 C 
HETATM   25  C   UNL     1     -40.220  51.278 -53.470  1.00  0.00     0.005 C 
BRANCH  23  26
HETATM   26  C   UNL     1     -41.302  55.358 -50.043  1.00  0.00     0.296 C 
HETATM   27  O   UNL     1     -40.887  56.497 -49.829  1.00  0.00    -0.259 OA
BRANCH  26  28
HETATM   28  O   UNL     1     -41.621  54.461 -49.073  1.00  0.00    -0.322 OA
HETATM   29  C   UNL     1     -40.583  54.198 -48.127  1.00  0.00     0.213 C 
ENDBRANCH  26  28
ENDBRANCH  23  26
ENDBRANCH  14  17
ENDBRANCH  12  13
ENDBRANCH   2  12
BRANCH   1  30
HETATM   30  C   UNL     1     -43.834  60.499 -54.225  1.00  0.00     0.006 A 
HETATM   31  C   UNL     1     -43.317  59.449 -55.024  1.00  0.00     0.077 A 
HETATM   32  C   UNL     1     -42.585  59.735 -56.188  1.00  0.00     0.037 A 
HETATM   33  C   UNL     1     -42.365  61.051 -56.585  1.00  0.00     0.003 A 
HETATM   34  C   UNL     1     -42.879  62.090 -55.827  1.00  0.00     0.001 A 
HETATM   35  C   UNL     1     -43.608  61.816 -54.668  1.00  0.00     0.012 A 
BRANCH  31  36
HETATM   36  O   UNL     1     -43.573  58.169 -54.592  1.00  0.00    -0.351 OA
BRANCH  36  37
HETATM   37  C   UNL     1     -44.287  57.310 -55.490  1.00  0.00     0.171 C 
HETATM   38  C   UNL     1     -45.687  57.865 -55.677  1.00  0.00     0.034 C 
ENDBRANCH  36  37
ENDBRANCH  31  36
ENDBRANCH   1  30
BRANCH   6  39
HETATM   39  O   UNL     1     -43.083  62.540 -51.847  1.00  0.00    -0.389 OA
HETATM   40  H   UNL     1     -43.175  63.511 -51.907  1.00  0.00     0.210 HD
ENDBRANCH   6  39
TORSDOF 9
ENDMDL
