MODEL 1
REMARK VINA RESULT:      -9.1      0.000      0.000
REMARK  5 active torsions:
REMARK  status: ('A' for Active; 'I' for Inactive)
REMARK    1  A    between atoms: C_6  and  C_7 
REMARK    2  A    between atoms: C_7  and  N_8 
REMARK    3  A    between atoms: C_17  and  C_18 
REMARK    4  A    between atoms: C_18  and  N_19 
REMARK    5  A    between atoms: C_22  and  C_23 
REMARK       I    between atoms: C_23  and  N_24 
ROOT
HETATM    1  N   UNL     1     -42.979  56.668 -51.906  1.00  0.00    -0.061 N 
HETATM    2  H   UNL     1     -42.419  56.205 -51.182  1.00  0.00     0.280 HD
HETATM    3  C   UNL     1     -42.087  57.742 -52.511  1.00  0.00     0.276 C 
HETATM    4  C   UNL     1     -42.664  58.327 -53.774  1.00  0.00     0.002 A 
HETATM    5  C   UNL     1     -43.831  59.085 -53.698  1.00  0.00     0.076 A 
HETATM    6  O   UNL     1     -44.418  59.316 -52.485  1.00  0.00    -0.349 OA
HETATM    7  C   UNL     1     -45.085  58.131 -52.014  1.00  0.00     0.203 C 
HETATM    8  C   UNL     1     -44.163  57.261 -51.150  1.00  0.00     0.262 C 
HETATM    9  C   UNL     1     -42.155  58.001 -55.046  1.00  0.00     0.020 A 
HETATM   10  C   UNL     1     -42.812  58.415 -56.224  1.00  0.00    -0.032 A 
HETATM   11  C   UNL     1     -43.957  59.219 -56.101  1.00  0.00     0.011 A 
HETATM   12  C   UNL     1     -44.449  59.574 -54.843  1.00  0.00     0.038 A 
ENDROOT
BRANCH  10  13
HETATM   13  C   UNL     1     -42.375  57.841 -57.557  1.00  0.00     0.273 C 
BRANCH  13  14
HETATM   14  N   UNL     1     -43.410  57.127 -58.380  1.00  0.00    -0.066 N 
HETATM   15  H   UNL     1     -44.228  56.946 -57.766  1.00  0.00     0.280 HD
HETATM   16  C   UNL     1     -43.956  57.964 -59.521  1.00  0.00     0.249 C 
HETATM   17  C   UNL     1     -45.089  57.223 -60.236  1.00  0.00     0.103 C 
HETATM   18  C   UNL     1     -44.627  55.841 -60.706  1.00  0.00     0.017 C 
HETATM   19  C   UNL     1     -44.008  55.026 -59.571  1.00  0.00     0.029 C 
HETATM   20  C   UNL     1     -42.903  55.783 -58.849  1.00  0.00     0.235 C 
BRANCH  17  21
HETATM   21  C   UNL     1     -46.273  57.102 -59.294  1.00  0.00     0.221 C 
HETATM   22  N   UNL     1     -47.218  56.189 -59.629  1.00  0.00    -0.370 N 
HETATM   23  H   UNL     1     -47.218  55.650 -60.487  1.00  0.00     0.159 HD
HETATM   24  H   UNL     1     -48.021  56.066 -59.019  1.00  0.00     0.159 HD
HETATM   25  O   UNL     1     -46.321  57.742 -58.245  1.00  0.00    -0.273 OA
ENDBRANCH  17  21
ENDBRANCH  13  14
ENDBRANCH  10  13
BRANCH   1  26
HETATM   26  C   UNL     1     -43.311  55.599 -52.918  1.00  0.00     0.274 C 
BRANCH  26  27
HETATM   27  C   UNL     1     -42.263  54.560 -53.195  1.00  0.00    -0.026 A 
HETATM   28  C   UNL     1     -41.469  54.129 -52.112  1.00  0.00     0.016 A 
HETATM   29  C   UNL     1     -40.560  53.071 -52.233  1.00  0.00    -0.056 A 
HETATM   30  C   UNL     1     -40.453  52.410 -53.466  1.00  0.00    -0.056 A 
HETATM   31  C   UNL     1     -39.796  52.617 -51.018  1.00  0.00     0.049 C 
HETATM   32  C   UNL     1     -39.545  51.220 -53.644  1.00  0.00     0.049 C 
HETATM   33  C   UNL     1     -41.201  52.872 -54.561  1.00  0.00     0.014 A 
HETATM   34  C   UNL     1     -42.117  53.930 -54.443  1.00  0.00    -0.053 A 
HETATM   35  C   UNL     1     -42.898  54.331 -55.665  1.00  0.00     0.049 C 
ENDBRANCH  26  27
ENDBRANCH   1  26
TORSDOF 5
ENDMDL
MODEL 2
REMARK VINA RESULT:      -8.8      1.477      1.808
REMARK  5 active torsions:
REMARK  status: ('A' for Active; 'I' for Inactive)
REMARK    1  A    between atoms: C_6  and  C_7 
REMARK    2  A    between atoms: C_7  and  N_8 
REMARK    3  A    between atoms: C_17  and  C_18 
REMARK    4  A    between atoms: C_18  and  N_19 
REMARK    5  A    between atoms: C_22  and  C_23 
REMARK       I    between atoms: C_23  and  N_24 
ROOT
HETATM    1  N   UNL     1     -41.379  56.212 -51.599  1.00  0.00    -0.061 N 
HETATM    2  H   UNL     1     -40.585  55.830 -51.073  1.00  0.00     0.280 HD
HETATM    3  C   UNL     1     -41.087  57.693 -51.791  1.00  0.00     0.276 C 
HETATM    4  C   UNL     1     -42.020  58.342 -52.781  1.00  0.00     0.002 A 
HETATM    5  C   UNL     1     -43.370  58.465 -52.459  1.00  0.00     0.076 A 
HETATM    6  O   UNL     1     -43.826  58.030 -51.245  1.00  0.00    -0.349 OA
HETATM    7  C   UNL     1     -43.888  56.593 -51.215  1.00  0.00     0.203 C 
HETATM    8  C   UNL     1     -42.584  55.974 -50.695  1.00  0.00     0.262 C 
HETATM    9  C   UNL     1     -41.604  58.681 -54.083  1.00  0.00     0.020 A 
HETATM   10  C   UNL     1     -42.529  59.123 -55.053  1.00  0.00    -0.032 A 
HETATM   11  C   UNL     1     -43.871  59.280 -54.671  1.00  0.00     0.011 A 
HETATM   12  C   UNL     1     -44.285  58.977 -53.371  1.00  0.00     0.038 A 
ENDROOT
BRANCH  10  13
HETATM   13  C   UNL     1     -42.087  59.241 -56.498  1.00  0.00     0.273 C 
BRANCH  13  14
HETATM   14  N   UNL     1     -42.651  58.253 -57.480  1.00  0.00    -0.066 N 
HETATM   15  H   UNL     1     -43.669  58.441 -57.564  1.00  0.00     0.280 HD
HETATM   16  C   UNL     1     -42.106  58.420 -58.885  1.00  0.00     0.249 C 
HETATM   17  C   UNL     1     -42.813  57.467 -59.852  1.00  0.00     0.103 C 
HETATM   18  C   UNL     1     -42.713  56.020 -59.364  1.00  0.00     0.017 C 
HETATM   19  C   UNL     1     -43.193  55.865 -57.921  1.00  0.00     0.029 C 
HETATM   20  C   UNL     1     -42.505  56.837 -56.974  1.00  0.00     0.235 C 
BRANCH  17  21
HETATM   21  C   UNL     1     -44.265  57.888 -59.989  1.00  0.00     0.221 C 
HETATM   22  N   UNL     1     -45.054  57.092 -60.751  1.00  0.00    -0.370 N 
HETATM   23  H   UNL     1     -44.723  56.295 -61.283  1.00  0.00     0.159 HD
HETATM   24  H   UNL     1     -46.035  57.330 -60.859  1.00  0.00     0.159 HD
HETATM   25  O   UNL     1     -44.709  58.854 -59.371  1.00  0.00    -0.273 OA
ENDBRANCH  17  21
ENDBRANCH  13  14
ENDBRANCH  10  13
BRANCH   1  26
HETATM   26  C   UNL     1     -41.390  55.482 -52.919  1.00  0.00     0.274 C 
BRANCH  26  27
HETATM   27  C   UNL     1     -40.770  54.115 -52.959  1.00  0.00    -0.026 A 
HETATM   28  C   UNL     1     -40.660  53.413 -51.740  1.00  0.00     0.016 A 
HETATM   29  C   UNL     1     -40.225  52.083 -51.687  1.00  0.00    -0.056 A 
HETATM   30  C   UNL     1     -39.907  51.427 -52.886  1.00  0.00    -0.056 A 
HETATM   31  C   UNL     1     -40.199  51.373 -50.360  1.00  0.00     0.049 C 
HETATM   32  C   UNL     1     -39.498  49.977 -52.905  1.00  0.00     0.049 C 
HETATM   33  C   UNL     1     -39.962  52.140 -54.094  1.00  0.00     0.014 A 
HETATM   34  C   UNL     1     -40.402  53.473 -54.154  1.00  0.00    -0.053 A 
HETATM   35  C   UNL     1     -40.459  54.142 -55.500  1.00  0.00     0.049 C 
ENDBRANCH  26  27
ENDBRANCH   1  26
TORSDOF 5
ENDMDL
MODEL 3
REMARK VINA RESULT:      -8.6      1.935      3.007
REMARK  5 active torsions:
REMARK  status: ('A' for Active; 'I' for Inactive)
REMARK    1  A    between atoms: C_6  and  C_7 
REMARK    2  A    between atoms: C_7  and  N_8 
REMARK    3  A    between atoms: C_17  and  C_18 
REMARK    4  A    between atoms: C_18  and  N_19 
REMARK    5  A    between atoms: C_22  and  C_23 
REMARK       I    between atoms: C_23  and  N_24 
ROOT
HETATM    1  N   UNL     1     -40.781  57.856 -51.673  1.00  0.00    -0.061 N 
HETATM    2  H   UNL     1     -39.895  57.399 -51.432  1.00  0.00     0.280 HD
HETATM    3  C   UNL     1     -40.590  58.449 -53.061  1.00  0.00     0.276 C 
HETATM    4  C   UNL     1     -41.885  58.914 -53.674  1.00  0.00     0.002 A 
HETATM    5  C   UNL     1     -42.553  59.998 -53.106  1.00  0.00     0.076 A 
HETATM    6  O   UNL     1     -42.014  60.644 -52.028  1.00  0.00    -0.349 OA
HETATM    7  C   UNL     1     -42.165  59.849 -50.837  1.00  0.00     0.203 C 
HETATM    8  C   UNL     1     -40.958  58.930 -50.606  1.00  0.00     0.262 C 
HETATM    9  C   UNL     1     -42.525  58.192 -54.700  1.00  0.00     0.020 A 
HETATM   10  C   UNL     1     -43.819  58.541 -55.142  1.00  0.00    -0.032 A 
HETATM   11  C   UNL     1     -44.434  59.670 -54.576  1.00  0.00     0.011 A 
HETATM   12  C   UNL     1     -43.793  60.410 -53.580  1.00  0.00     0.038 A 
ENDROOT
BRANCH  10  13
HETATM   13  C   UNL     1     -44.565  57.599 -56.065  1.00  0.00     0.273 C 
BRANCH  13  14
HETATM   14  N   UNL     1     -44.183  57.603 -57.519  1.00  0.00    -0.066 N 
HETATM   15  H   UNL     1     -43.618  58.457 -57.692  1.00  0.00     0.280 HD
HETATM   16  C   UNL     1     -43.277  56.450 -57.908  1.00  0.00     0.249 C 
HETATM   17  C   UNL     1     -42.830  56.587 -59.365  1.00  0.00     0.103 C 
HETATM   18  C   UNL     1     -44.037  56.710 -60.298  1.00  0.00     0.017 C 
HETATM   19  C   UNL     1     -44.989  57.824 -59.863  1.00  0.00     0.029 C 
HETATM   20  C   UNL     1     -45.404  57.694 -58.405  1.00  0.00     0.235 C 
BRANCH  17  21
HETATM   21  C   UNL     1     -41.926  57.799 -59.494  1.00  0.00     0.221 C 
HETATM   22  N   UNL     1     -41.537  58.130 -60.750  1.00  0.00    -0.370 N 
HETATM   23  H   UNL     1     -41.746  57.585 -61.578  1.00  0.00     0.159 HD
HETATM   24  H   UNL     1     -40.942  58.942 -60.882  1.00  0.00     0.159 HD
HETATM   25  O   UNL     1     -41.637  58.486 -58.515  1.00  0.00    -0.273 OA
ENDBRANCH  17  21
ENDBRANCH  13  14
ENDBRANCH  10  13
BRANCH   1  26
HETATM   26  C   UNL     1     -41.819  56.761 -51.685  1.00  0.00     0.274 C 
BRANCH  26  27
HETATM   27  C   UNL     1     -41.329  55.343 -51.756  1.00  0.00    -0.026 A 
HETATM   28  C   UNL     1     -41.122  54.787 -53.036  1.00  0.00     0.016 A 
HETATM   29  C   UNL     1     -40.540  53.526 -53.211  1.00  0.00    -0.056 A 
HETATM   30  C   UNL     1     -40.136  52.805 -52.078  1.00  0.00    -0.056 A 
HETATM   31  C   UNL     1     -40.284  53.025 -54.607  1.00  0.00     0.049 C 
HETATM   32  C   UNL     1     -39.441  51.473 -52.200  1.00  0.00     0.049 C 
HETATM   33  C   UNL     1     -40.391  53.330 -50.801  1.00  0.00     0.014 A 
HETATM   34  C   UNL     1     -40.971  54.597 -50.620  1.00  0.00    -0.053 A 
HETATM   35  C   UNL     1     -41.174  55.089 -49.213  1.00  0.00     0.049 C 
ENDBRANCH  26  27
ENDBRANCH   1  26
TORSDOF 5
ENDMDL
MODEL 4
REMARK VINA RESULT:      -8.6      1.708      2.426
REMARK  5 active torsions:
REMARK  status: ('A' for Active; 'I' for Inactive)
REMARK    1  A    between atoms: C_6  and  C_7 
REMARK    2  A    between atoms: C_7  and  N_8 
REMARK    3  A    between atoms: C_17  and  C_18 
REMARK    4  A    between atoms: C_18  and  N_19 
REMARK    5  A    between atoms: C_22  and  C_23 
REMARK       I    between atoms: C_23  and  N_24 
ROOT
HETATM    1  N   UNL     1     -40.861  57.490 -52.566  1.00  0.00    -0.061 N 
HETATM    2  H   UNL     1     -39.911  57.103 -52.577  1.00  0.00     0.280 HD
HETATM    3  C   UNL     1     -40.931  58.475 -53.724  1.00  0.00     0.276 C 
HETATM    4  C   UNL     1     -42.340  58.923 -54.016  1.00  0.00     0.002 A 
HETATM    5  C   UNL     1     -43.012  59.703 -53.076  1.00  0.00     0.076 A 
HETATM    6  O   UNL     1     -42.380  60.078 -51.923  1.00  0.00    -0.349 OA
HETATM    7  C   UNL     1     -42.281  58.964 -51.017  1.00  0.00     0.203 C 
HETATM    8  C   UNL     1     -40.975  58.183 -51.213  1.00  0.00     0.262 C 
HETATM    9  C   UNL     1     -43.056  58.448 -55.132  1.00  0.00     0.020 A 
HETATM   10  C   UNL     1     -44.428  58.736 -55.296  1.00  0.00    -0.032 A 
HETATM   11  C   UNL     1     -45.052  59.566 -54.351  1.00  0.00     0.011 A 
HETATM   12  C   UNL     1     -44.340  60.068 -53.259  1.00  0.00     0.038 A 
ENDROOT
BRANCH  10  13
HETATM   13  C   UNL     1     -45.214  58.009 -56.369  1.00  0.00     0.273 C 
BRANCH  13  14
HETATM   14  N   UNL     1     -44.585  57.884 -57.728  1.00  0.00    -0.066 N 
HETATM   15  H   UNL     1     -43.765  58.520 -57.753  1.00  0.00     0.280 HD
HETATM   16  C   UNL     1     -44.019  56.505 -58.007  1.00  0.00     0.249 C 
HETATM   17  C   UNL     1     -43.288  56.486 -59.352  1.00  0.00     0.103 C 
HETATM   18  C   UNL     1     -44.204  56.971 -60.479  1.00  0.00     0.017 C 
HETATM   19  C   UNL     1     -44.834  58.327 -60.164  1.00  0.00     0.029 C 
HETATM   20  C   UNL     1     -45.533  58.342 -58.813  1.00  0.00     0.235 C 
BRANCH  17  21
HETATM   21  C   UNL     1     -42.050  57.359 -59.254  1.00  0.00     0.221 C 
HETATM   22  N   UNL     1     -41.225  57.356 -60.330  1.00  0.00    -0.370 N 
HETATM   23  H   UNL     1     -41.344  56.763 -61.143  1.00  0.00     0.159 HD
HETATM   24  H   UNL     1     -40.391  57.936 -60.312  1.00  0.00     0.159 HD
HETATM   25  O   UNL     1     -41.859  58.088 -58.283  1.00  0.00    -0.273 OA
ENDBRANCH  17  21
ENDBRANCH  13  14
ENDBRANCH  10  13
BRANCH   1  26
HETATM   26  C   UNL     1     -41.786  56.319 -52.788  1.00  0.00     0.274 C 
BRANCH  26  27
HETATM   27  C   UNL     1     -41.159  54.996 -53.122  1.00  0.00    -0.026 A 
HETATM   28  C   UNL     1     -40.768  54.170 -52.048  1.00  0.00     0.016 A 
HETATM   29  C   UNL     1     -40.302  52.865 -52.247  1.00  0.00    -0.056 A 
HETATM   30  C   UNL     1     -40.240  52.362 -53.555  1.00  0.00    -0.056 A 
HETATM   31  C   UNL     1     -39.969  52.015 -51.050  1.00  0.00     0.049 C 
HETATM   32  C   UNL     1     -39.813  50.944 -53.833  1.00  0.00     0.049 C 
HETATM   33  C   UNL     1     -40.576  53.199 -54.630  1.00  0.00     0.014 A 
HETATM   34  C   UNL     1     -41.048  54.508 -54.435  1.00  0.00    -0.053 A 
HETATM   35  C   UNL     1     -41.415  55.318 -55.649  1.00  0.00     0.049 C 
ENDBRANCH  26  27
ENDBRANCH   1  26
TORSDOF 5
ENDMDL
MODEL 5
REMARK VINA RESULT:      -8.5      1.773      2.638
REMARK  5 active torsions:
REMARK  status: ('A' for Active; 'I' for Inactive)
REMARK    1  A    between atoms: C_6  and  C_7 
REMARK    2  A    between atoms: C_7  and  N_8 
REMARK    3  A    between atoms: C_17  and  C_18 
REMARK    4  A    between atoms: C_18  and  N_19 
REMARK    5  A    between atoms: C_22  and  C_23 
REMARK       I    between atoms: C_23  and  N_24 
ROOT
HETATM    1  N   UNL     1     -40.681  57.814 -51.559  1.00  0.00    -0.061 N 
HETATM    2  H   UNL     1     -39.836  57.401 -51.150  1.00  0.00     0.280 HD
HETATM    3  C   UNL     1     -40.330  58.161 -52.998  1.00  0.00     0.276 C 
HETATM    4  C   UNL     1     -41.543  58.520 -53.818  1.00  0.00     0.002 A 
HETATM    5  C   UNL     1     -42.242  59.688 -53.517  1.00  0.00     0.076 A 
HETATM    6  O   UNL     1     -41.805  60.506 -52.512  1.00  0.00    -0.349 OA
HETATM    7  C   UNL     1     -42.100  59.928 -51.227  1.00  0.00     0.203 C 
HETATM    8  C   UNL     1     -40.945  59.056 -50.715  1.00  0.00     0.262 C 
HETATM    9  C   UNL     1     -42.087  57.637 -54.770  1.00  0.00     0.020 A 
HETATM   10  C   UNL     1     -43.319  57.911 -55.401  1.00  0.00    -0.032 A 
HETATM   11  C   UNL     1     -43.964  59.122 -55.105  1.00  0.00     0.011 A 
HETATM   12  C   UNL     1     -43.415  60.019 -54.185  1.00  0.00     0.038 A 
ENDROOT
BRANCH  10  13
HETATM   13  C   UNL     1     -43.984  56.829 -56.228  1.00  0.00     0.273 C 
BRANCH  13  14
HETATM   14  N   UNL     1     -43.836  56.904 -57.722  1.00  0.00    -0.066 N 
HETATM   15  H   UNL     1     -43.887  55.935 -58.091  1.00  0.00     0.280 HD
HETATM   16  C   UNL     1     -44.970  57.643 -58.404  1.00  0.00     0.249 C 
HETATM   17  C   UNL     1     -44.818  57.573 -59.926  1.00  0.00     0.103 C 
HETATM   18  C   UNL     1     -43.446  58.094 -60.362  1.00  0.00     0.017 C 
HETATM   19  C   UNL     1     -42.305  57.401 -59.619  1.00  0.00     0.029 C 
HETATM   20  C   UNL     1     -42.482  57.452 -58.108  1.00  0.00     0.235 C 
BRANCH  17  21
HETATM   21  C   UNL     1     -45.014  56.137 -60.378  1.00  0.00     0.221 C 
HETATM   22  N   UNL     1     -46.063  55.473 -59.833  1.00  0.00    -0.370 N 
HETATM   23  H   UNL     1     -46.662  55.843 -59.105  1.00  0.00     0.159 HD
HETATM   24  H   UNL     1     -46.238  54.514 -60.118  1.00  0.00     0.159 HD
HETATM   25  O   UNL     1     -44.306  55.642 -61.253  1.00  0.00    -0.273 OA
ENDBRANCH  17  21
ENDBRANCH  13  14
ENDBRANCH  10  13
BRANCH   1  26
HETATM   26  C   UNL     1     -41.737  56.738 -51.498  1.00  0.00     0.274 C 
BRANCH  26  27
HETATM   27  C   UNL     1     -41.275  55.311 -51.557  1.00  0.00    -0.026 A 
HETATM   28  C   UNL     1     -41.098  54.735 -52.833  1.00  0.00     0.016 A 
HETATM   29  C   UNL     1     -40.542  53.461 -53.001  1.00  0.00    -0.056 A 
HETATM   30  C   UNL     1     -40.134  52.746 -51.864  1.00  0.00    -0.056 A 
HETATM   31  C   UNL     1     -40.316  52.937 -54.394  1.00  0.00     0.049 C 
HETATM   32  C   UNL     1     -39.466  51.400 -51.979  1.00  0.00     0.049 C 
HETATM   33  C   UNL     1     -40.360  53.292 -50.591  1.00  0.00     0.014 A 
HETATM   34  C   UNL     1     -40.913  54.572 -50.417  1.00  0.00    -0.053 A 
HETATM   35  C   UNL     1     -41.086  55.086 -49.014  1.00  0.00     0.049 C 
ENDBRANCH  26  27
ENDBRANCH   1  26
TORSDOF 5
ENDMDL
MODEL 6
REMARK VINA RESULT:      -8.2      1.815      2.172
REMARK  5 active torsions:
REMARK  status: ('A' for Active; 'I' for Inactive)
REMARK    1  A    between atoms: C_6  and  C_7 
REMARK    2  A    between atoms: C_7  and  N_8 
REMARK    3  A    between atoms: C_17  and  C_18 
REMARK    4  A    between atoms: C_18  and  N_19 
REMARK    5  A    between atoms: C_22  and  C_23 
REMARK       I    between atoms: C_23  and  N_24 
ROOT
HETATM    1  N   UNL     1     -41.081  56.856 -52.345  1.00  0.00    -0.061 N 
HETATM    2  H   UNL     1     -40.165  56.465 -52.096  1.00  0.00     0.280 HD
HETATM    3  C   UNL     1     -40.822  57.873 -53.446  1.00  0.00     0.276 C 
HETATM    4  C   UNL     1     -42.091  58.336 -54.114  1.00  0.00     0.002 A 
HETATM    5  C   UNL     1     -43.005  59.093 -53.381  1.00  0.00     0.076 A 
HETATM    6  O   UNL     1     -42.728  59.432 -52.086  1.00  0.00    -0.349 OA
HETATM    7  C   UNL     1     -42.887  58.293 -51.221  1.00  0.00     0.203 C 
HETATM    8  C   UNL     1     -41.576  57.511 -51.060  1.00  0.00     0.262 C 
HETATM    9  C   UNL     1     -42.460  57.896 -55.400  1.00  0.00     0.020 A 
HETATM   10  C   UNL     1     -43.729  58.196 -55.939  1.00  0.00    -0.032 A 
HETATM   11  C   UNL     1     -44.598  59.002 -55.187  1.00  0.00     0.011 A 
HETATM   12  C   UNL     1     -44.228  59.470 -53.924  1.00  0.00     0.038 A 
ENDROOT
BRANCH  10  13
HETATM   13  C   UNL     1     -44.176  57.503 -57.211  1.00  0.00     0.273 C 
BRANCH  13  14
HETATM   14  N   UNL     1     -43.717  58.087 -58.518  1.00  0.00    -0.066 N 
HETATM   15  H   UNL     1     -44.424  57.836 -59.237  1.00  0.00     0.280 HD
HETATM   16  C   UNL     1     -43.676  59.602 -58.522  1.00  0.00     0.249 C 
HETATM   17  C   UNL     1     -43.323  60.126 -59.916  1.00  0.00     0.103 C 
HETATM   18  C   UNL     1     -42.011  59.514 -60.414  1.00  0.00     0.017 C 
HETATM   19  C   UNL     1     -42.025  57.987 -60.340  1.00  0.00     0.029 C 
HETATM   20  C   UNL     1     -42.406  57.478 -58.958  1.00  0.00     0.235 C 
BRANCH  17  21
HETATM   21  C   UNL     1     -44.460  59.806 -60.868  1.00  0.00     0.221 C 
HETATM   22  N   UNL     1     -44.318  60.240 -62.145  1.00  0.00    -0.370 N 
HETATM   23  H   UNL     1     -43.552  60.817 -62.473  1.00  0.00     0.159 HD
HETATM   24  H   UNL     1     -45.051  60.036 -62.818  1.00  0.00     0.159 HD
HETATM   25  O   UNL     1     -45.415  59.118 -60.512  1.00  0.00    -0.273 OA
ENDBRANCH  17  21
ENDBRANCH  13  14
ENDBRANCH  10  13
BRANCH   1  26
HETATM   26  C   UNL     1     -41.900  55.696 -52.853  1.00  0.00     0.274 C 
BRANCH  26  27
HETATM   27  C   UNL     1     -41.173  54.423 -53.175  1.00  0.00    -0.026 A 
HETATM   28  C   UNL     1     -40.747  53.624 -52.093  1.00  0.00     0.016 A 
HETATM   29  C   UNL     1     -40.185  52.356 -52.283  1.00  0.00    -0.056 A 
HETATM   30  C   UNL     1     -40.058  51.862 -53.591  1.00  0.00    -0.056 A 
HETATM   31  C   UNL     1     -39.818  51.528 -51.081  1.00  0.00     0.049 C 
HETATM   32  C   UNL     1     -39.524  50.479 -53.860  1.00  0.00     0.049 C 
HETATM   33  C   UNL     1     -40.429  52.677 -54.672  1.00  0.00     0.014 A 
HETATM   34  C   UNL     1     -40.998  53.948 -54.486  1.00  0.00    -0.053 A 
HETATM   35  C   UNL     1     -41.396  54.733 -55.706  1.00  0.00     0.049 C 
ENDBRANCH  26  27
ENDBRANCH   1  26
TORSDOF 5
ENDMDL
MODEL 7
REMARK VINA RESULT:      -7.9      2.917      6.477
REMARK  5 active torsions:
REMARK  status: ('A' for Active; 'I' for Inactive)
REMARK    1  A    between atoms: C_6  and  C_7 
REMARK    2  A    between atoms: C_7  and  N_8 
REMARK    3  A    between atoms: C_17  and  C_18 
REMARK    4  A    between atoms: C_18  and  N_19 
REMARK    5  A    between atoms: C_22  and  C_23 
REMARK       I    between atoms: C_23  and  N_24 
ROOT
HETATM    1  N   UNL     1     -42.917  54.848 -55.359  1.00  0.00    -0.061 N 
HETATM    2  H   UNL     1     -42.996  53.825 -55.375  1.00  0.00     0.280 HD
HETATM    3  C   UNL     1     -44.227  55.365 -54.784  1.00  0.00     0.276 C 
HETATM    4  C   UNL     1     -44.166  56.830 -54.436  1.00  0.00     0.002 A 
HETATM    5  C   UNL     1     -44.037  57.766 -55.461  1.00  0.00     0.076 A 
HETATM    6  O   UNL     1     -44.001  57.351 -56.764  1.00  0.00    -0.349 OA
HETATM    7  C   UNL     1     -42.728  56.753 -57.068  1.00  0.00     0.203 C 
HETATM    8  C   UNL     1     -42.734  55.238 -56.821  1.00  0.00     0.262 C 
HETATM    9  C   UNL     1     -44.072  57.275 -53.103  1.00  0.00     0.020 A 
HETATM   10  C   UNL     1     -43.839  58.634 -52.801  1.00  0.00    -0.032 A 
HETATM   11  C   UNL     1     -43.765  59.549 -53.864  1.00  0.00     0.011 A 
HETATM   12  C   UNL     1     -43.889  59.120 -55.187  1.00  0.00     0.038 A 
ENDROOT
BRANCH  10  13
HETATM   13  C   UNL     1     -43.501  59.029 -51.378  1.00  0.00     0.273 C 
BRANCH  13  14
HETATM   14  N   UNL     1     -44.057  60.329 -50.866  1.00  0.00    -0.066 N 
HETATM   15  H   UNL     1     -44.466  60.835 -51.676  1.00  0.00     0.280 HD
HETATM   16  C   UNL     1     -45.208  60.152 -49.895  1.00  0.00     0.249 C 
HETATM   17  C   UNL     1     -45.802  61.511 -49.514  1.00  0.00     0.103 C 
HETATM   18  C   UNL     1     -44.721  62.445 -48.963  1.00  0.00     0.017 C 
HETATM   19  C   UNL     1     -43.527  62.563 -49.910  1.00  0.00     0.029 C 
HETATM   20  C   UNL     1     -42.963  61.206 -50.304  1.00  0.00     0.235 C 
BRANCH  17  21
HETATM   21  C   UNL     1     -46.466  62.121 -50.735  1.00  0.00     0.221 C 
HETATM   22  N   UNL     1     -46.933  63.386 -50.598  1.00  0.00    -0.370 N 
HETATM   23  H   UNL     1     -46.933  63.908 -49.729  1.00  0.00     0.159 HD
HETATM   24  H   UNL     1     -47.374  63.836 -51.395  1.00  0.00     0.159 HD
HETATM   25  O   UNL     1     -46.499  61.522 -51.809  1.00  0.00    -0.273 OA
ENDBRANCH  17  21
ENDBRANCH  13  14
ENDBRANCH  10  13
BRANCH   1  26
HETATM   26  C   UNL     1     -41.758  55.157 -54.443  1.00  0.00     0.274 C 
BRANCH  26  27
HETATM   27  C   UNL     1     -41.227  54.036 -53.597  1.00  0.00    -0.026 A 
HETATM   28  C   UNL     1     -40.924  52.819 -54.242  1.00  0.00     0.016 A 
HETATM   29  C   UNL     1     -40.298  51.761 -53.572  1.00  0.00    -0.056 A 
HETATM   30  C   UNL     1     -39.947  51.927 -52.223  1.00  0.00    -0.056 A 
HETATM   31  C   UNL     1     -39.939  50.517 -54.340  1.00  0.00     0.049 C 
HETATM   32  C   UNL     1     -39.211  50.854 -51.464  1.00  0.00     0.049 C 
HETATM   33  C   UNL     1     -40.298  53.116 -51.564  1.00  0.00     0.014 A 
HETATM   34  C   UNL     1     -40.922  54.182 -52.233  1.00  0.00    -0.053 A 
HETATM   35  C   UNL     1     -41.228  55.430 -51.449  1.00  0.00     0.049 C 
ENDBRANCH  26  27
ENDBRANCH   1  26
TORSDOF 5
ENDMDL
MODEL 8
REMARK VINA RESULT:      -7.9      3.972      7.830
REMARK  5 active torsions:
REMARK  status: ('A' for Active; 'I' for Inactive)
REMARK    1  A    between atoms: C_6  and  C_7 
REMARK    2  A    between atoms: C_7  and  N_8 
REMARK    3  A    between atoms: C_17  and  C_18 
REMARK    4  A    between atoms: C_18  and  N_19 
REMARK    5  A    between atoms: C_22  and  C_23 
REMARK       I    between atoms: C_23  and  N_24 
ROOT
HETATM    1  N   UNL     1     -42.672  57.223 -54.236  1.00  0.00    -0.061 N 
HETATM    2  H   UNL     1     -42.940  56.710 -55.084  1.00  0.00     0.280 HD
HETATM    3  C   UNL     1     -43.401  58.557 -54.299  1.00  0.00     0.276 C 
HETATM    4  C   UNL     1     -43.334  59.313 -52.997  1.00  0.00     0.002 A 
HETATM    5  C   UNL     1     -42.104  59.801 -52.559  1.00  0.00     0.076 A 
HETATM    6  O   UNL     1     -40.985  59.618 -53.324  1.00  0.00    -0.349 OA
HETATM    7  C   UNL     1     -40.539  58.252 -53.248  1.00  0.00     0.203 C 
HETATM    8  C   UNL     1     -41.161  57.385 -54.351  1.00  0.00     0.262 C 
HETATM    9  C   UNL     1     -44.441  59.405 -52.132  1.00  0.00     0.020 A 
HETATM   10  C   UNL     1     -44.315  59.962 -50.842  1.00  0.00    -0.032 A 
HETATM   11  C   UNL     1     -43.069  60.486 -50.460  1.00  0.00     0.011 A 
HETATM   12  C   UNL     1     -41.974  60.428 -51.326  1.00  0.00     0.038 A 
ENDROOT
BRANCH  10  13
HETATM   13  C   UNL     1     -45.460  59.819 -49.858  1.00  0.00     0.273 C 
BRANCH  13  14
HETATM   14  N   UNL     1     -45.870  61.042 -49.086  1.00  0.00    -0.066 N 
HETATM   15  H   UNL     1     -46.832  60.879 -48.730  1.00  0.00     0.280 HD
HETATM   16  C   UNL     1     -45.029  61.285 -47.848  1.00  0.00     0.249 C 
HETATM   17  C   UNL     1     -45.580  62.469 -47.049  1.00  0.00     0.103 C 
HETATM   18  C   UNL     1     -45.687  63.719 -47.926  1.00  0.00     0.017 C 
HETATM   19  C   UNL     1     -46.471  63.453 -49.211  1.00  0.00     0.029 C 
HETATM   20  C   UNL     1     -45.933  62.257 -49.982  1.00  0.00     0.235 C 
BRANCH  17  21
HETATM   21  C   UNL     1     -46.938  62.094 -46.481  1.00  0.00     0.221 C 
HETATM   22  N   UNL     1     -47.693  63.114 -46.005  1.00  0.00    -0.370 N 
HETATM   23  H   UNL     1     -47.383  64.076 -45.937  1.00  0.00     0.159 HD
HETATM   24  H   UNL     1     -48.614  62.909 -45.627  1.00  0.00     0.159 HD
HETATM   25  O   UNL     1     -47.353  60.938 -46.533  1.00  0.00    -0.273 OA
ENDBRANCH  17  21
ENDBRANCH  13  14
ENDBRANCH  10  13
BRANCH   1  26
HETATM   26  C   UNL     1     -43.161  56.387 -53.078  1.00  0.00     0.274 C 
BRANCH  26  27
HETATM   27  C   UNL     1     -42.301  55.237 -52.643  1.00  0.00    -0.026 A 
HETATM   28  C   UNL     1     -42.091  54.193 -53.568  1.00  0.00     0.016 A 
HETATM   29  C   UNL     1     -41.199  53.144 -53.312  1.00  0.00    -0.056 A 
HETATM   30  C   UNL     1     -40.482  53.145 -52.107  1.00  0.00    -0.056 A 
HETATM   31  C   UNL     1     -40.971  52.101 -54.374  1.00  0.00     0.049 C 
HETATM   32  C   UNL     1     -39.457  52.084 -51.801  1.00  0.00     0.049 C 
HETATM   33  C   UNL     1     -40.729  54.152 -51.161  1.00  0.00     0.014 A 
HETATM   34  C   UNL     1     -41.620  55.209 -51.414  1.00  0.00    -0.053 A 
HETATM   35  C   UNL     1     -41.793  56.260 -50.351  1.00  0.00     0.049 C 
ENDBRANCH  26  27
ENDBRANCH   1  26
TORSDOF 5
ENDMDL
MODEL 9
REMARK VINA RESULT:      -7.5      3.061      6.298
REMARK  5 active torsions:
REMARK  status: ('A' for Active; 'I' for Inactive)
REMARK    1  A    between atoms: C_6  and  C_7 
REMARK    2  A    between atoms: C_7  and  N_8 
REMARK    3  A    between atoms: C_17  and  C_18 
REMARK    4  A    between atoms: C_18  and  N_19 
REMARK    5  A    between atoms: C_22  and  C_23 
REMARK       I    between atoms: C_23  and  N_24 
ROOT
HETATM    1  N   UNL     1     -42.252  55.056 -54.330  1.00  0.00    -0.061 N 
HETATM    2  H   UNL     1     -42.019  54.098 -54.045  1.00  0.00     0.280 HD
HETATM    3  C   UNL     1     -43.755  55.199 -54.141  1.00  0.00     0.276 C 
HETATM    4  C   UNL     1     -44.216  56.630 -54.250  1.00  0.00     0.002 A 
HETATM    5  C   UNL     1     -44.127  57.278 -55.481  1.00  0.00     0.076 A 
HETATM    6  O   UNL     1     -43.656  56.606 -56.575  1.00  0.00    -0.349 OA
HETATM    7  C   UNL     1     -42.229  56.441 -56.490  1.00  0.00     0.203 C 
HETATM    8  C   UNL     1     -41.846  55.127 -55.797  1.00  0.00     0.262 C 
HETATM    9  C   UNL     1     -44.584  57.382 -53.118  1.00  0.00     0.020 A 
HETATM   10  C   UNL     1     -44.843  58.766 -53.213  1.00  0.00    -0.032 A 
HETATM   11  C   UNL     1     -44.790  59.368 -54.480  1.00  0.00     0.011 A 
HETATM   12  C   UNL     1     -44.458  58.622 -55.613  1.00  0.00     0.038 A 
ENDROOT
BRANCH  10  13
HETATM   13  C   UNL     1     -44.993  59.580 -51.944  1.00  0.00     0.273 C 
BRANCH  13  14
HETATM   14  N   UNL     1     -44.242  60.880 -51.859  1.00  0.00    -0.066 N 
HETATM   15  H   UNL     1     -43.469  60.841 -52.551  1.00  0.00     0.280 HD
HETATM   16  C   UNL     1     -45.071  62.083 -52.266  1.00  0.00     0.249 C 
HETATM   17  C   UNL     1     -44.211  63.349 -52.275  1.00  0.00     0.103 C 
HETATM   18  C   UNL     1     -43.525  63.554 -50.922  1.00  0.00     0.017 C 
HETATM   19  C   UNL     1     -42.752  62.314 -50.476  1.00  0.00     0.029 C 
HETATM   20  C   UNL     1     -43.608  61.057 -50.499  1.00  0.00     0.235 C 
BRANCH  17  21
HETATM   21  C   UNL     1     -43.182  63.241 -53.386  1.00  0.00     0.221 C 
HETATM   22  N   UNL     1     -42.371  64.313 -53.562  1.00  0.00    -0.370 N 
HETATM   23  H   UNL     1     -42.458  65.188 -53.059  1.00  0.00     0.159 HD
HETATM   24  H   UNL     1     -41.660  64.277 -54.287  1.00  0.00     0.159 HD
HETATM   25  O   UNL     1     -43.046  62.202 -54.030  1.00  0.00    -0.273 OA
ENDBRANCH  17  21
ENDBRANCH  13  14
ENDBRANCH  10  13
BRANCH   1  26
HETATM   26  C   UNL     1     -41.495  55.961 -53.390  1.00  0.00     0.274 C 
BRANCH  26  27
HETATM   27  C   UNL     1     -41.324  55.500 -51.971  1.00  0.00    -0.026 A 
HETATM   28  C   UNL     1     -41.039  54.135 -51.759  1.00  0.00     0.016 A 
HETATM   29  C   UNL     1     -40.727  53.630 -50.491  1.00  0.00    -0.056 A 
HETATM   30  C   UNL     1     -40.682  54.516 -49.404  1.00  0.00    -0.056 A 
HETATM   31  C   UNL     1     -40.363  52.177 -50.349  1.00  0.00     0.049 C 
HETATM   32  C   UNL     1     -40.286  54.051 -48.026  1.00  0.00     0.049 C 
HETATM   33  C   UNL     1     -41.019  55.864 -49.601  1.00  0.00     0.014 A 
HETATM   34  C   UNL     1     -41.328  56.376 -50.873  1.00  0.00    -0.053 A 
HETATM   35  C   UNL     1     -41.644  57.843 -50.990  1.00  0.00     0.049 C 
ENDBRANCH  26  27
ENDBRANCH   1  26
TORSDOF 5
ENDMDL
MODEL 10
REMARK VINA RESULT:      -7.5      3.378      6.833
REMARK  5 active torsions:
REMARK  status: ('A' for Active; 'I' for Inactive)
REMARK    1  A    between atoms: C_6  and  C_7 
REMARK    2  A    between atoms: C_7  and  N_8 
REMARK    3  A    between atoms: C_17  and  C_18 
REMARK    4  A    between atoms: C_18  and  N_19 
REMARK    5  A    between atoms: C_22  and  C_23 
REMARK       I    between atoms: C_23  and  N_24 
ROOT
HETATM    1  N   UNL     1     -42.987  55.874 -55.126  1.00  0.00    -0.061 N 
HETATM    2  H   UNL     1     -42.997  54.848 -55.157  1.00  0.00     0.280 HD
HETATM    3  C   UNL     1     -44.274  56.290 -54.429  1.00  0.00     0.276 C 
HETATM    4  C   UNL     1     -44.282  57.750 -54.056  1.00  0.00     0.002 A 
HETATM    5  C   UNL     1     -44.309  58.707 -55.069  1.00  0.00     0.076 A 
HETATM    6  O   UNL     1     -44.359  58.316 -56.378  1.00  0.00    -0.349 OA
HETATM    7  C   UNL     1     -43.080  57.813 -56.804  1.00  0.00     0.203 C 
HETATM    8  C   UNL     1     -42.961  56.298 -56.590  1.00  0.00     0.262 C 
HETATM    9  C   UNL     1     -44.102  58.180 -52.728  1.00  0.00     0.020 A 
HETATM   10  C   UNL     1     -43.936  59.546 -52.418  1.00  0.00    -0.032 A 
HETATM   11  C   UNL     1     -44.019  60.481 -53.463  1.00  0.00     0.011 A 
HETATM   12  C   UNL     1     -44.230  60.064 -54.780  1.00  0.00     0.038 A 
ENDROOT
BRANCH  10  13
HETATM   13  C   UNL     1     -43.503  59.943 -51.021  1.00  0.00     0.273 C 
BRANCH  13  14
HETATM   14  N   UNL     1     -44.030  61.238 -50.470  1.00  0.00    -0.066 N 
HETATM   15  H   UNL     1     -44.744  61.593 -51.135  1.00  0.00     0.280 HD
HETATM   16  C   UNL     1     -44.766  61.079 -49.154  1.00  0.00     0.249 C 
HETATM   17  C   UNL     1     -45.379  62.412 -48.718  1.00  0.00     0.103 C 
HETATM   18  C   UNL     1     -44.313  63.509 -48.652  1.00  0.00     0.017 C 
HETATM   19  C   UNL     1     -43.520  63.618 -49.955  1.00  0.00     0.029 C 
HETATM   20  C   UNL     1     -42.940  62.282 -50.394  1.00  0.00     0.235 C 
BRANCH  17  21
HETATM   21  C   UNL     1     -46.481  62.792 -49.690  1.00  0.00     0.221 C 
HETATM   22  N   UNL     1     -47.149  63.941 -49.424  1.00  0.00    -0.370 N 
HETATM   23  H   UNL     1     -47.012  64.507 -48.595  1.00  0.00     0.159 HD
HETATM   24  H   UNL     1     -47.886  64.239 -50.057  1.00  0.00     0.159 HD
HETATM   25  O   UNL     1     -46.691  62.131 -50.705  1.00  0.00    -0.273 OA
ENDBRANCH  17  21
ENDBRANCH  13  14
ENDBRANCH  10  13
BRANCH   1  26
HETATM   26  C   UNL     1     -41.776  56.249 -54.308  1.00  0.00     0.274 C 
BRANCH  26  27
HETATM   27  C   UNL     1     -41.265  55.238 -53.323  1.00  0.00    -0.026 A 
HETATM   28  C   UNL     1     -41.576  55.439 -51.962  1.00  0.00     0.016 A 
HETATM   29  C   UNL     1     -41.266  54.487 -50.982  1.00  0.00    -0.056 A 
HETATM   30  C   UNL     1     -40.644  53.292 -51.373  1.00  0.00    -0.056 A 
HETATM   31  C   UNL     1     -41.690  54.735 -49.559  1.00  0.00     0.049 C 
HETATM   32  C   UNL     1     -40.345  52.199 -50.380  1.00  0.00     0.049 C 
HETATM   33  C   UNL     1     -40.283  53.113 -52.718  1.00  0.00     0.014 A 
HETATM   34  C   UNL     1     -40.596  54.063 -53.706  1.00  0.00    -0.053 A 
HETATM   35  C   UNL     1     -40.198  53.766 -55.126  1.00  0.00     0.049 C 
ENDBRANCH  26  27
ENDBRANCH   1  26
TORSDOF 5
ENDMDL
