MODEL 1
REMARK VINA RESULT:      -8.6      0.000      0.000
REMARK  3 active torsions:
REMARK  status: ('A' for Active; 'I' for Inactive)
REMARK    1  A    between atoms: C_2  and  O_3 
REMARK    2  A    between atoms: O_3  and  C_4 
REMARK    3  A    between atoms: C_8  and  N_9 
REMARK       I    between atoms: N_9  and  C_10 
REMARK       I    between atoms: C_10  and  N_11 
ROOT
HETATM    1  N   UNL     1     -42.293  55.129 -56.451  1.00  0.00    -0.306 N 
HETATM    2  C   UNL     1     -42.642  56.414 -56.800  1.00  0.00     0.323 C 
HETATM    3  N   UNL     1     -43.153  56.557 -58.085  1.00  0.00    -0.328 N 
HETATM    4  C   UNL     1     -43.540  57.916 -58.494  1.00  0.00     0.185 C 
HETATM    5  C   UNL     1     -44.755  57.833 -59.352  1.00  0.00     0.035 A 
HETATM    6  C   UNL     1     -45.310  56.695 -59.902  1.00  0.00    -0.020 A 
HETATM    7  C   UNL     1     -44.726  55.354 -59.643  1.00  0.00     0.061 C 
HETATM    8  C   UNL     1     -43.283  55.500 -59.116  1.00  0.00     0.132 C 
HETATM    9  N   UNL     1     -45.530  58.899 -59.715  1.00  0.00    -0.357 N 
HETATM   10  H   UNL     1     -45.379  59.859 -59.438  1.00  0.00     0.166 HD
HETATM   11  C   UNL     1     -46.576  58.470 -60.505  1.00  0.00     0.043 A 
HETATM   12  C   UNL     1     -46.457  57.084 -60.642  1.00  0.00    -0.001 A 
HETATM   13  C   UNL     1     -47.618  59.196 -61.094  1.00  0.00     0.030 A 
HETATM   14  C   UNL     1     -48.559  58.488 -61.846  1.00  0.00     0.002 A 
HETATM   15  C   UNL     1     -48.462  57.107 -62.003  1.00  0.00     0.001 A 
HETATM   16  C   UNL     1     -47.418  56.392 -61.405  1.00  0.00     0.014 A 
HETATM   17  O   UNL     1     -42.492  57.382 -56.058  1.00  0.00    -0.247 OA
HETATM   18  H   UNL     1     -41.879  54.586 -57.189  1.00  0.00     0.171 HD
ENDROOT
BRANCH   1  19
HETATM   19  C   UNL     1     -42.025  54.679 -55.137  1.00  0.00     0.075 A 
HETATM   20  C   UNL     1     -40.775  54.233 -54.689  1.00  0.00     0.145 A 
HETATM   21  C   UNL     1     -40.591  53.774 -53.382  1.00  0.00     0.081 A 
HETATM   22  F   UNL     1     -39.687  54.302 -55.469  1.00  0.00    -0.204 F 
HETATM   23  C   UNL     1     -41.658  53.775 -52.490  1.00  0.00     0.072 A 
HETATM   24  C   UNL     1     -42.890  54.287 -52.903  1.00  0.00     0.039 A 
HETATM   25  C   UNL     1     -43.076  54.735 -54.215  1.00  0.00     0.035 A 
BRANCH  23  26
HETATM   26  O   UNL     1     -41.617  53.351 -51.192  1.00  0.00    -0.347 OA
BRANCH  26  27
HETATM   27  C   UNL     1     -40.343  53.011 -50.629  1.00  0.00     0.120 C 
HETATM   28  C   UNL     1     -40.269  51.514 -50.334  1.00  0.00     0.040 C 
HETATM   29  C   UNL     1     -40.221  53.802 -49.326  1.00  0.00     0.040 C 
ENDBRANCH  26  27
ENDBRANCH  23  26
ENDBRANCH   1  19
TORSDOF 3
ENDMDL
MODEL 2
REMARK VINA RESULT:      -8.3      3.066      4.366
REMARK  3 active torsions:
REMARK  status: ('A' for Active; 'I' for Inactive)
REMARK    1  A    between atoms: C_2  and  O_3 
REMARK    2  A    between atoms: O_3  and  C_4 
REMARK    3  A    between atoms: C_8  and  N_9 
REMARK       I    between atoms: N_9  and  C_10 
REMARK       I    between atoms: C_10  and  N_11 
ROOT
HETATM    1  N   UNL     1     -42.264  56.117 -55.226  1.00  0.00    -0.306 N 
HETATM    2  C   UNL     1     -42.789  56.136 -56.499  1.00  0.00     0.323 C 
HETATM    3  N   UNL     1     -43.036  57.404 -57.014  1.00  0.00    -0.328 N 
HETATM    4  C   UNL     1     -43.596  57.466 -58.374  1.00  0.00     0.185 C 
HETATM    5  C   UNL     1     -43.015  58.642 -59.080  1.00  0.00     0.035 A 
HETATM    6  C   UNL     1     -42.274  59.665 -58.524  1.00  0.00    -0.020 A 
HETATM    7  C   UNL     1     -41.936  59.670 -57.077  1.00  0.00     0.061 C 
HETATM    8  C   UNL     1     -42.863  58.700 -56.316  1.00  0.00     0.132 C 
HETATM    9  N   UNL     1     -43.118  58.876 -60.423  1.00  0.00    -0.357 N 
HETATM   10  H   UNL     1     -43.587  58.279 -61.091  1.00  0.00     0.166 HD
HETATM   11  C   UNL     1     -42.463  60.046 -60.746  1.00  0.00     0.043 A 
HETATM   12  C   UNL     1     -41.926  60.566 -59.564  1.00  0.00    -0.001 A 
HETATM   13  C   UNL     1     -42.296  60.673 -61.986  1.00  0.00     0.030 A 
HETATM   14  C   UNL     1     -41.565  61.864 -62.019  1.00  0.00     0.002 A 
HETATM   15  C   UNL     1     -41.023  62.406 -60.856  1.00  0.00     0.001 A 
HETATM   16  C   UNL     1     -41.194  61.768 -59.623  1.00  0.00     0.014 A 
HETATM   17  O   UNL     1     -43.059  55.120 -57.136  1.00  0.00    -0.247 OA
HETATM   18  H   UNL     1     -42.627  56.819 -54.605  1.00  0.00     0.171 HD
ENDROOT
BRANCH   1  19
HETATM   19  C   UNL     1     -41.670  54.995 -54.601  1.00  0.00     0.075 A 
HETATM   20  C   UNL     1     -42.180  54.358 -53.463  1.00  0.00     0.145 A 
HETATM   21  C   UNL     1     -41.523  53.271 -52.881  1.00  0.00     0.081 A 
HETATM   22  F   UNL     1     -43.360  54.711 -52.933  1.00  0.00    -0.204 F 
HETATM   23  C   UNL     1     -40.347  52.789 -53.445  1.00  0.00     0.072 A 
HETATM   24  C   UNL     1     -39.868  53.369 -54.621  1.00  0.00     0.039 A 
HETATM   25  C   UNL     1     -40.521  54.464 -55.196  1.00  0.00     0.035 A 
BRANCH  23  26
HETATM   26  O   UNL     1     -39.604  51.742 -52.977  1.00  0.00    -0.347 OA
BRANCH  26  27
HETATM   27  C   UNL     1     -40.121  50.415 -53.143  1.00  0.00     0.120 C 
HETATM   28  C   UNL     1     -39.678  49.517 -51.988  1.00  0.00     0.040 C 
HETATM   29  C   UNL     1     -39.547  49.888 -54.458  1.00  0.00     0.040 C 
ENDBRANCH  26  27
ENDBRANCH  23  26
ENDBRANCH   1  19
TORSDOF 3
ENDMDL
MODEL 3
REMARK VINA RESULT:      -8.0      6.371      9.693
REMARK  3 active torsions:
REMARK  status: ('A' for Active; 'I' for Inactive)
REMARK    1  A    between atoms: C_2  and  O_3 
REMARK    2  A    between atoms: O_3  and  C_4 
REMARK    3  A    between atoms: C_8  and  N_9 
REMARK       I    between atoms: N_9  and  C_10 
REMARK       I    between atoms: C_10  and  N_11 
ROOT
HETATM    1  N   UNL     1     -42.574  58.017 -51.445  1.00  0.00    -0.306 N 
HETATM    2  C   UNL     1     -42.272  57.360 -52.617  1.00  0.00     0.323 C 
HETATM    3  N   UNL     1     -41.274  56.397 -52.511  1.00  0.00    -0.328 N 
HETATM    4  C   UNL     1     -40.925  55.671 -53.742  1.00  0.00     0.185 C 
HETATM    5  C   UNL     1     -40.611  54.257 -53.394  1.00  0.00     0.035 A 
HETATM    6  C   UNL     1     -40.421  53.733 -52.131  1.00  0.00    -0.020 A 
HETATM    7  C   UNL     1     -40.556  54.581 -50.919  1.00  0.00     0.061 C 
HETATM    8  C   UNL     1     -40.473  56.072 -51.307  1.00  0.00     0.132 C 
HETATM    9  N   UNL     1     -40.479  53.240 -54.299  1.00  0.00    -0.357 N 
HETATM   10  H   UNL     1     -40.589  53.325 -55.299  1.00  0.00     0.166 HD
HETATM   11  C   UNL     1     -40.194  52.062 -53.640  1.00  0.00     0.043 A 
HETATM   12  C   UNL     1     -40.147  52.347 -52.272  1.00  0.00    -0.001 A 
HETATM   13  C   UNL     1     -39.987  50.774 -54.147  1.00  0.00     0.030 A 
HETATM   14  C   UNL     1     -39.722  49.751 -53.232  1.00  0.00     0.002 A 
HETATM   15  C   UNL     1     -39.665  50.008 -51.864  1.00  0.00     0.001 A 
HETATM   16  C   UNL     1     -39.878  51.300 -51.370  1.00  0.00     0.014 A 
HETATM   17  O   UNL     1     -42.809  57.613 -53.693  1.00  0.00    -0.247 OA
HETATM   18  H   UNL     1     -41.787  58.214 -50.853  1.00  0.00     0.171 HD
ENDROOT
BRANCH   1  19
HETATM   19  C   UNL     1     -43.720  58.818 -51.226  1.00  0.00     0.075 A 
HETATM   20  C   UNL     1     -45.023  58.322 -51.097  1.00  0.00     0.145 A 
HETATM   21  C   UNL     1     -46.112  59.177 -50.911  1.00  0.00     0.081 A 
HETATM   22  F   UNL     1     -45.271  57.005 -51.066  1.00  0.00    -0.204 F 
HETATM   23  C   UNL     1     -45.910  60.551 -50.830  1.00  0.00     0.072 A 
HETATM   24  C   UNL     1     -44.608  61.051 -50.883  1.00  0.00     0.039 A 
HETATM   25  C   UNL     1     -43.519  60.195 -51.080  1.00  0.00     0.035 A 
BRANCH  23  26
HETATM   26  O   UNL     1     -46.882  61.494 -50.655  1.00  0.00    -0.347 OA
BRANCH  26  27
HETATM   27  C   UNL     1     -46.526  62.724 -50.008  1.00  0.00     0.120 C 
HETATM   28  C   UNL     1     -47.040  62.742 -48.569  1.00  0.00     0.040 C 
HETATM   29  C   UNL     1     -47.191  63.843 -50.809  1.00  0.00     0.040 C 
ENDBRANCH  26  27
ENDBRANCH  23  26
ENDBRANCH   1  19
TORSDOF 3
ENDMDL
MODEL 4
REMARK VINA RESULT:      -7.9      4.319      9.600
REMARK  3 active torsions:
REMARK  status: ('A' for Active; 'I' for Inactive)
REMARK    1  A    between atoms: C_2  and  O_3 
REMARK    2  A    between atoms: O_3  and  C_4 
REMARK    3  A    between atoms: C_8  and  N_9 
REMARK       I    between atoms: N_9  and  C_10 
REMARK       I    between atoms: C_10  and  N_11 
ROOT
HETATM    1  N   UNL     1     -43.112  58.074 -56.124  1.00  0.00    -0.306 N 
HETATM    2  C   UNL     1     -42.583  57.828 -54.877  1.00  0.00     0.323 C 
HETATM    3  N   UNL     1     -42.709  56.516 -54.433  1.00  0.00    -0.328 N 
HETATM    4  C   UNL     1     -42.154  56.214 -53.104  1.00  0.00     0.185 C 
HETATM    5  C   UNL     1     -41.568  54.844 -53.128  1.00  0.00     0.035 A 
HETATM    6  C   UNL     1     -41.716  53.893 -54.116  1.00  0.00    -0.020 A 
HETATM    7  C   UNL     1     -42.498  54.178 -55.346  1.00  0.00     0.061 C 
HETATM    8  C   UNL     1     -43.406  55.404 -55.121  1.00  0.00     0.132 C 
HETATM    9  N   UNL     1     -40.761  54.323 -52.155  1.00  0.00    -0.357 N 
HETATM   10  H   UNL     1     -40.460  54.803 -51.319  1.00  0.00     0.166 HD
HETATM   11  C   UNL     1     -40.391  53.038 -52.494  1.00  0.00     0.043 A 
HETATM   12  C   UNL     1     -40.984  52.740 -53.724  1.00  0.00    -0.001 A 
HETATM   13  C   UNL     1     -39.573  52.127 -51.815  1.00  0.00     0.030 A 
HETATM   14  C   UNL     1     -39.359  50.879 -52.408  1.00  0.00     0.002 A 
HETATM   15  C   UNL     1     -39.942  50.555 -53.631  1.00  0.00     0.001 A 
HETATM   16  C   UNL     1     -40.755  51.476 -54.301  1.00  0.00     0.014 A 
HETATM   17  O   UNL     1     -42.064  58.695 -54.178  1.00  0.00    -0.247 OA
HETATM   18  H   UNL     1     -43.966  57.584 -56.328  1.00  0.00     0.171 HD
ENDROOT
BRANCH   1  19
HETATM   19  C   UNL     1     -42.866  59.226 -56.907  1.00  0.00     0.075 A 
HETATM   20  C   UNL     1     -43.467  60.473 -56.694  1.00  0.00     0.145 A 
HETATM   21  C   UNL     1     -43.198  61.562 -57.527  1.00  0.00     0.081 A 
HETATM   22  F   UNL     1     -44.260  60.697 -55.637  1.00  0.00    -0.204 F 
HETATM   23  C   UNL     1     -42.303  61.424 -58.582  1.00  0.00     0.072 A 
HETATM   24  C   UNL     1     -41.642  60.207 -58.759  1.00  0.00     0.039 A 
HETATM   25  C   UNL     1     -41.920  59.114 -57.931  1.00  0.00     0.035 A 
BRANCH  23  26
HETATM   26  O   UNL     1     -41.955  62.401 -59.472  1.00  0.00    -0.347 OA
BRANCH  26  27
HETATM   27  C   UNL     1     -40.643  62.360 -60.048  1.00  0.00     0.120 C 
HETATM   28  C   UNL     1     -39.730  63.386 -59.378  1.00  0.00     0.040 C 
HETATM   29  C   UNL     1     -40.808  62.702 -61.528  1.00  0.00     0.040 C 
ENDBRANCH  26  27
ENDBRANCH  23  26
ENDBRANCH   1  19
TORSDOF 3
ENDMDL
MODEL 5
REMARK VINA RESULT:      -7.9     16.998     18.216
REMARK  3 active torsions:
REMARK  status: ('A' for Active; 'I' for Inactive)
REMARK    1  A    between atoms: C_2  and  O_3 
REMARK    2  A    between atoms: O_3  and  C_4 
REMARK    3  A    between atoms: C_8  and  N_9 
REMARK       I    between atoms: N_9  and  C_10 
REMARK       I    between atoms: C_10  and  N_11 
ROOT
HETATM    1  N   UNL     1     -34.360  41.189 -53.592  1.00  0.00    -0.306 N 
HETATM    2  C   UNL     1     -35.663  40.857 -53.884  1.00  0.00     0.323 C 
HETATM    3  N   UNL     1     -36.069  41.150 -55.182  1.00  0.00    -0.328 N 
HETATM    4  C   UNL     1     -37.456  40.807 -55.533  1.00  0.00     0.185 C 
HETATM    5  C   UNL     1     -37.492  40.339 -56.947  1.00  0.00     0.035 A 
HETATM    6  C   UNL     1     -36.480  40.430 -57.881  1.00  0.00    -0.020 A 
HETATM    7  C   UNL     1     -35.159  41.013 -57.528  1.00  0.00     0.061 C 
HETATM    8  C   UNL     1     -35.278  41.838 -56.230  1.00  0.00     0.132 C 
HETATM    9  N   UNL     1     -38.557  39.717 -57.538  1.00  0.00    -0.357 N 
HETATM   10  H   UNL     1     -39.433  39.493 -57.086  1.00  0.00     0.166 HD
HETATM   11  C   UNL     1     -38.253  39.413 -58.848  1.00  0.00     0.043 A 
HETATM   12  C   UNL     1     -36.951  39.857 -59.092  1.00  0.00    -0.001 A 
HETATM   13  C   UNL     1     -39.023  38.772 -59.826  1.00  0.00     0.030 A 
HETATM   14  C   UNL     1     -38.448  38.585 -61.086  1.00  0.00     0.002 A 
HETATM   15  C   UNL     1     -37.153  39.022 -61.357  1.00  0.00     0.001 A 
HETATM   16  C   UNL     1     -36.393  39.658 -60.369  1.00  0.00     0.014 A 
HETATM   17  O   UNL     1     -36.438  40.366 -53.066  1.00  0.00    -0.247 OA
HETATM   18  H   UNL     1     -34.036  42.046 -54.008  1.00  0.00     0.171 HD
ENDROOT
BRANCH   1  19
HETATM   19  C   UNL     1     -33.633  40.745 -52.462  1.00  0.00     0.075 A 
HETATM   20  C   UNL     1     -33.839  41.204 -51.155  1.00  0.00     0.145 A 
HETATM   21  C   UNL     1     -33.062  40.741 -50.091  1.00  0.00     0.081 A 
HETATM   22  F   UNL     1     -34.841  42.044 -50.857  1.00  0.00    -0.204 F 
HETATM   23  C   UNL     1     -32.073  39.790 -50.316  1.00  0.00     0.072 A 
HETATM   24  C   UNL     1     -31.909  39.271 -51.602  1.00  0.00     0.039 A 
HETATM   25  C   UNL     1     -32.679  39.743 -52.669  1.00  0.00     0.035 A 
BRANCH  23  26
HETATM   26  O   UNL     1     -31.242  39.258 -49.371  1.00  0.00    -0.347 OA
BRANCH  26  27
HETATM   27  C   UNL     1     -31.663  39.292 -48.001  1.00  0.00     0.120 C 
HETATM   28  C   UNL     1     -30.473  39.559 -47.079  1.00  0.00     0.040 C 
HETATM   29  C   UNL     1     -32.256  37.917 -47.695  1.00  0.00     0.040 C 
ENDBRANCH  26  27
ENDBRANCH  23  26
ENDBRANCH   1  19
TORSDOF 3
ENDMDL
MODEL 6
REMARK VINA RESULT:      -7.7      6.900      9.901
REMARK  3 active torsions:
REMARK  status: ('A' for Active; 'I' for Inactive)
REMARK    1  A    between atoms: C_2  and  O_3 
REMARK    2  A    between atoms: O_3  and  C_4 
REMARK    3  A    between atoms: C_8  and  N_9 
REMARK       I    between atoms: N_9  and  C_10 
REMARK       I    between atoms: C_10  and  N_11 
ROOT
HETATM    1  N   UNL     1     -42.780  60.086 -50.475  1.00  0.00    -0.306 N 
HETATM    2  C   UNL     1     -42.315  59.805 -51.740  1.00  0.00     0.323 C 
HETATM    3  N   UNL     1     -41.453  58.716 -51.822  1.00  0.00    -0.328 N 
HETATM    4  C   UNL     1     -40.936  58.384 -53.159  1.00  0.00     0.185 C 
HETATM    5  C   UNL     1     -40.832  56.903 -53.280  1.00  0.00     0.035 A 
HETATM    6  C   UNL     1     -40.948  55.975 -52.266  1.00  0.00    -0.020 A 
HETATM    7  C   UNL     1     -41.240  56.393 -50.871  1.00  0.00     0.061 C 
HETATM    8  C   UNL     1     -40.941  57.897 -50.698  1.00  0.00     0.132 C 
HETATM    9  N   UNL     1     -40.619  56.227 -54.450  1.00  0.00    -0.357 N 
HETATM   10  H   UNL     1     -40.519  56.648 -55.363  1.00  0.00     0.166 HD
HETATM   11  C   UNL     1     -40.583  54.870 -54.206  1.00  0.00     0.043 A 
HETATM   12  C   UNL     1     -40.783  54.684 -52.835  1.00  0.00    -0.001 A 
HETATM   13  C   UNL     1     -40.402  53.800 -55.090  1.00  0.00     0.030 A 
HETATM   14  C   UNL     1     -40.422  52.508 -54.559  1.00  0.00     0.002 A 
HETATM   15  C   UNL     1     -40.615  52.294 -53.196  1.00  0.00     0.001 A 
HETATM   16  C   UNL     1     -40.798  53.372 -52.323  1.00  0.00     0.014 A 
HETATM   17  O   UNL     1     -42.600  60.474 -52.731  1.00  0.00    -0.247 OA
HETATM   18  H   UNL     1     -42.111  59.954 -49.737  1.00  0.00     0.171 HD
ENDROOT
BRANCH   1  19
HETATM   19  C   UNL     1     -43.866  60.941 -50.171  1.00  0.00     0.075 A 
HETATM   20  C   UNL     1     -45.212  60.557 -50.203  1.00  0.00     0.145 A 
HETATM   21  C   UNL     1     -46.235  61.465 -49.919  1.00  0.00     0.081 A 
HETATM   22  F   UNL     1     -45.573  59.285 -50.426  1.00  0.00    -0.204 F 
HETATM   23  C   UNL     1     -45.923  62.776 -49.577  1.00  0.00     0.072 A 
HETATM   24  C   UNL     1     -44.582  63.151 -49.470  1.00  0.00     0.039 A 
HETATM   25  C   UNL     1     -43.559  62.244 -49.766  1.00  0.00     0.035 A 
BRANCH  23  26
HETATM   26  O   UNL     1     -46.821  63.763 -49.282  1.00  0.00    -0.347 OA
BRANCH  26  27
HETATM   27  C   UNL     1     -47.890  63.459 -48.377  1.00  0.00     0.120 C 
HETATM   28  C   UNL     1     -49.221  63.970 -48.927  1.00  0.00     0.040 C 
HETATM   29  C   UNL     1     -47.565  64.173 -47.065  1.00  0.00     0.040 C 
ENDBRANCH  26  27
ENDBRANCH  23  26
ENDBRANCH   1  19
TORSDOF 3
ENDMDL
MODEL 7
REMARK VINA RESULT:      -7.6      2.637      9.922
REMARK  3 active torsions:
REMARK  status: ('A' for Active; 'I' for Inactive)
REMARK    1  A    between atoms: C_2  and  O_3 
REMARK    2  A    between atoms: O_3  and  C_4 
REMARK    3  A    between atoms: C_8  and  N_9 
REMARK       I    between atoms: N_9  and  C_10 
REMARK       I    between atoms: C_10  and  N_11 
ROOT
HETATM    1  N   UNL     1     -43.297  57.805 -56.286  1.00  0.00    -0.306 N 
HETATM    2  C   UNL     1     -42.646  56.603 -56.124  1.00  0.00     0.323 C 
HETATM    3  N   UNL     1     -41.801  56.536 -55.022  1.00  0.00    -0.328 N 
HETATM    4  C   UNL     1     -41.088  55.266 -54.814  1.00  0.00     0.185 C 
HETATM    5  C   UNL     1     -40.992  55.002 -53.351  1.00  0.00     0.035 A 
HETATM    6  C   UNL     1     -41.279  55.880 -52.326  1.00  0.00    -0.020 A 
HETATM    7  C   UNL     1     -41.778  57.251 -52.606  1.00  0.00     0.061 C 
HETATM    8  C   UNL     1     -41.484  57.629 -54.073  1.00  0.00     0.132 C 
HETATM    9  N   UNL     1     -40.611  53.812 -52.794  1.00  0.00    -0.357 N 
HETATM   10  H   UNL     1     -40.364  52.976 -53.304  1.00  0.00     0.166 HD
HETATM   11  C   UNL     1     -40.637  53.910 -51.419  1.00  0.00     0.043 A 
HETATM   12  C   UNL     1     -41.050  55.206 -51.097  1.00  0.00    -0.001 A 
HETATM   13  C   UNL     1     -40.339  52.953 -50.442  1.00  0.00     0.030 A 
HETATM   14  C   UNL     1     -40.463  53.332 -49.102  1.00  0.00     0.002 A 
HETATM   15  C   UNL     1     -40.869  54.618 -48.754  1.00  0.00     0.001 A 
HETATM   16  C   UNL     1     -41.167  55.564 -49.740  1.00  0.00     0.014 A 
HETATM   17  O   UNL     1     -42.762  55.659 -56.902  1.00  0.00    -0.247 OA
HETATM   18  H   UNL     1     -42.753  58.618 -56.055  1.00  0.00     0.171 HD
ENDROOT
BRANCH   1  19
HETATM   19  C   UNL     1     -44.402  58.031 -57.141  1.00  0.00     0.075 A 
HETATM   20  C   UNL     1     -45.743  57.942 -56.746  1.00  0.00     0.145 A 
HETATM   21  C   UNL     1     -46.784  58.150 -57.654  1.00  0.00     0.081 A 
HETATM   22  F   UNL     1     -46.084  57.735 -55.466  1.00  0.00    -0.204 F 
HETATM   23  C   UNL     1     -46.498  58.471 -58.976  1.00  0.00     0.072 A 
HETATM   24  C   UNL     1     -45.167  58.635 -59.364  1.00  0.00     0.039 A 
HETATM   25  C   UNL     1     -44.125  58.416 -58.457  1.00  0.00     0.035 A 
BRANCH  23  26
HETATM   26  O   UNL     1     -47.416  58.694 -59.963  1.00  0.00    -0.347 OA
BRANCH  26  27
HETATM   27  C   UNL     1     -47.308  57.934 -61.174  1.00  0.00     0.120 C 
HETATM   28  C   UNL     1     -48.401  58.340 -62.162  1.00  0.00     0.040 C 
HETATM   29  C   UNL     1     -47.484  56.467 -60.783  1.00  0.00     0.040 C 
ENDBRANCH  26  27
ENDBRANCH  23  26
ENDBRANCH   1  19
TORSDOF 3
ENDMDL
MODEL 8
REMARK VINA RESULT:      -7.5     16.363     19.942
REMARK  3 active torsions:
REMARK  status: ('A' for Active; 'I' for Inactive)
REMARK    1  A    between atoms: C_2  and  O_3 
REMARK    2  A    between atoms: O_3  and  C_4 
REMARK    3  A    between atoms: C_8  and  N_9 
REMARK       I    between atoms: N_9  and  C_10 
REMARK       I    between atoms: C_10  and  N_11 
ROOT
HETATM    1  N   UNL     1     -36.691  41.154 -55.947  1.00  0.00    -0.306 N 
HETATM    2  C   UNL     1     -35.533  40.852 -55.265  1.00  0.00     0.323 C 
HETATM    3  N   UNL     1     -35.588  41.063 -53.891  1.00  0.00    -0.328 N 
HETATM    4  C   UNL     1     -34.369  40.749 -53.127  1.00  0.00     0.185 C 
HETATM    5  C   UNL     1     -34.762  40.178 -51.809  1.00  0.00     0.035 A 
HETATM    6  C   UNL     1     -36.026  40.159 -51.253  1.00  0.00    -0.020 A 
HETATM    7  C   UNL     1     -37.195  40.713 -51.983  1.00  0.00     0.061 C 
HETATM    8  C   UNL     1     -36.716  41.638 -53.121  1.00  0.00     0.132 C 
HETATM    9  N   UNL     1     -33.908  39.556 -50.941  1.00  0.00    -0.357 N 
HETATM   10  H   UNL     1     -32.922  39.402 -51.095  1.00  0.00     0.166 HD
HETATM   11  C   UNL     1     -34.600  39.142 -49.821  1.00  0.00     0.043 A 
HETATM   12  C   UNL     1     -35.936  39.515 -49.991  1.00  0.00    -0.001 A 
HETATM   13  C   UNL     1     -34.148  38.461 -48.685  1.00  0.00     0.030 A 
HETATM   14  C   UNL     1     -35.087  38.157 -47.694  1.00  0.00     0.002 A 
HETATM   15  C   UNL     1     -36.424  38.520 -47.836  1.00  0.00     0.001 A 
HETATM   16  C   UNL     1     -36.863  39.197 -48.979  1.00  0.00     0.014 A 
HETATM   17  O   UNL     1     -34.507  40.456 -55.814  1.00  0.00    -0.247 OA
HETATM   18  H   UNL     1     -37.184  41.963 -55.610  1.00  0.00     0.171 HD
ENDROOT
BRANCH   1  19
HETATM   19  C   UNL     1     -36.985  40.768 -57.276  1.00  0.00     0.075 A 
HETATM   20  C   UNL     1     -37.316  39.466 -57.669  1.00  0.00     0.145 A 
HETATM   21  C   UNL     1     -37.566  39.151 -59.007  1.00  0.00     0.081 A 
HETATM   22  F   UNL     1     -37.488  38.485 -56.771  1.00  0.00    -0.204 F 
HETATM   23  C   UNL     1     -37.507  40.146 -59.977  1.00  0.00     0.072 A 
HETATM   24  C   UNL     1     -37.249  41.462 -59.586  1.00  0.00     0.039 A 
HETATM   25  C   UNL     1     -36.989  41.774 -58.248  1.00  0.00     0.035 A 
BRANCH  23  26
HETATM   26  O   UNL     1     -37.722  39.975 -61.315  1.00  0.00    -0.347 OA
BRANCH  26  27
HETATM   27  C   UNL     1     -37.743  38.639 -61.834  1.00  0.00     0.120 C 
HETATM   28  C   UNL     1     -37.156  38.601 -63.244  1.00  0.00     0.040 C 
HETATM   29  C   UNL     1     -39.210  38.211 -61.873  1.00  0.00     0.040 C 
ENDBRANCH  26  27
ENDBRANCH  23  26
ENDBRANCH   1  19
TORSDOF 3
ENDMDL
MODEL 9
REMARK VINA RESULT:      -7.4      8.846     11.100
REMARK  3 active torsions:
REMARK  status: ('A' for Active; 'I' for Inactive)
REMARK    1  A    between atoms: C_2  and  O_3 
REMARK    2  A    between atoms: O_3  and  C_4 
REMARK    3  A    between atoms: C_8  and  N_9 
REMARK       I    between atoms: N_9  and  C_10 
REMARK       I    between atoms: C_10  and  N_11 
ROOT
HETATM    1  N   UNL     1     -44.787  61.919 -48.722  1.00  0.00    -0.306 N 
HETATM    2  C   UNL     1     -45.378  60.722 -49.056  1.00  0.00     0.323 C 
HETATM    3  N   UNL     1     -44.932  60.156 -50.246  1.00  0.00    -0.328 N 
HETATM    4  C   UNL     1     -45.540  58.874 -50.635  1.00  0.00     0.185 C 
HETATM    5  C   UNL     1     -44.499  58.025 -51.281  1.00  0.00     0.035 A 
HETATM    6  C   UNL     1     -43.242  58.418 -51.692  1.00  0.00    -0.020 A 
HETATM    7  C   UNL     1     -42.765  59.810 -51.483  1.00  0.00     0.061 C 
HETATM    8  C   UNL     1     -43.962  60.741 -51.203  1.00  0.00     0.132 C 
HETATM    9  N   UNL     1     -44.636  56.692 -51.552  1.00  0.00    -0.357 N 
HETATM   10  H   UNL     1     -45.446  56.128 -51.338  1.00  0.00     0.166 HD
HETATM   11  C   UNL     1     -43.485  56.216 -52.146  1.00  0.00     0.043 A 
HETATM   12  C   UNL     1     -42.592  57.286 -52.250  1.00  0.00    -0.001 A 
HETATM   13  C   UNL     1     -43.166  54.925 -52.584  1.00  0.00     0.030 A 
HETATM   14  C   UNL     1     -41.902  54.725 -53.147  1.00  0.00     0.002 A 
HETATM   15  C   UNL     1     -40.994  55.775 -53.267  1.00  0.00     0.001 A 
HETATM   16  C   UNL     1     -41.325  57.059 -52.822  1.00  0.00     0.014 A 
HETATM   17  O   UNL     1     -46.259  60.190 -48.384  1.00  0.00    -0.247 OA
HETATM   18  H   UNL     1     -44.599  62.531 -49.497  1.00  0.00     0.171 HD
ENDROOT
BRANCH   1  19
HETATM   19  C   UNL     1     -44.852  62.541 -47.453  1.00  0.00     0.075 A 
HETATM   20  C   UNL     1     -44.914  63.925 -47.249  1.00  0.00     0.145 A 
HETATM   21  C   UNL     1     -44.947  64.471 -45.964  1.00  0.00     0.081 A 
HETATM   22  F   UNL     1     -45.025  64.780 -48.276  1.00  0.00    -0.204 F 
HETATM   23  C   UNL     1     -44.939  63.633 -44.854  1.00  0.00     0.072 A 
HETATM   24  C   UNL     1     -44.953  62.250 -45.046  1.00  0.00     0.039 A 
HETATM   25  C   UNL     1     -44.909  61.705 -46.333  1.00  0.00     0.035 A 
BRANCH  23  26
HETATM   26  O   UNL     1     -44.964  64.033 -43.548  1.00  0.00    -0.347 OA
BRANCH  26  27
HETATM   27  C   UNL     1     -44.213  63.273 -42.592  1.00  0.00     0.120 C 
HETATM   28  C   UNL     1     -44.843  63.383 -41.204  1.00  0.00     0.040 C 
HETATM   29  C   UNL     1     -42.807  63.871 -42.570  1.00  0.00     0.040 C 
ENDBRANCH  26  27
ENDBRANCH  23  26
ENDBRANCH   1  19
TORSDOF 3
ENDMDL
MODEL 10
REMARK VINA RESULT:      -7.4      2.582      9.902
REMARK  3 active torsions:
REMARK  status: ('A' for Active; 'I' for Inactive)
REMARK    1  A    between atoms: C_2  and  O_3 
REMARK    2  A    between atoms: O_3  and  C_4 
REMARK    3  A    between atoms: C_8  and  N_9 
REMARK       I    between atoms: N_9  and  C_10 
REMARK       I    between atoms: C_10  and  N_11 
ROOT
HETATM    1  N   UNL     1     -42.861  56.914 -55.516  1.00  0.00    -0.306 N 
HETATM    2  C   UNL     1     -42.111  55.814 -55.865  1.00  0.00     0.323 C 
HETATM    3  N   UNL     1     -41.264  55.339 -54.869  1.00  0.00    -0.328 N 
HETATM    4  C   UNL     1     -40.446  54.162 -55.205  1.00  0.00     0.185 C 
HETATM    5  C   UNL     1     -40.330  53.298 -53.997  1.00  0.00     0.035 A 
HETATM    6  C   UNL     1     -40.691  53.620 -52.704  1.00  0.00    -0.020 A 
HETATM    7  C   UNL     1     -41.303  54.935 -52.383  1.00  0.00     0.061 C 
HETATM    8  C   UNL     1     -41.041  55.933 -53.530  1.00  0.00     0.132 C 
HETATM    9  N   UNL     1     -39.851  52.017 -53.996  1.00  0.00    -0.357 N 
HETATM   10  H   UNL     1     -39.533  51.507 -54.807  1.00  0.00     0.166 HD
HETATM   11  C   UNL     1     -39.885  51.506 -52.715  1.00  0.00     0.043 A 
HETATM   12  C   UNL     1     -40.406  52.499 -51.880  1.00  0.00    -0.001 A 
HETATM   13  C   UNL     1     -39.508  50.245 -52.237  1.00  0.00     0.030 A 
HETATM   14  C   UNL     1     -39.665  49.995 -50.871  1.00  0.00     0.002 A 
HETATM   15  C   UNL     1     -40.178  50.969 -50.016  1.00  0.00     0.001 A 
HETATM   16  C   UNL     1     -40.554  52.223 -50.507  1.00  0.00     0.014 A 
HETATM   17  O   UNL     1     -42.147  55.295 -56.979  1.00  0.00    -0.247 OA
HETATM   18  H   UNL     1     -42.388  57.585 -54.936  1.00  0.00     0.171 HD
ENDROOT
BRANCH   1  19
HETATM   19  C   UNL     1     -43.981  57.404 -56.229  1.00  0.00     0.075 A 
HETATM   20  C   UNL     1     -45.149  57.894 -55.634  1.00  0.00     0.145 A 
HETATM   21  C   UNL     1     -46.229  58.335 -56.404  1.00  0.00     0.081 A 
HETATM   22  F   UNL     1     -45.251  58.037 -54.305  1.00  0.00    -0.204 F 
HETATM   23  C   UNL     1     -46.147  58.310 -57.792  1.00  0.00     0.072 A 
HETATM   24  C   UNL     1     -44.959  57.893 -58.396  1.00  0.00     0.039 A 
HETATM   25  C   UNL     1     -43.883  57.441 -57.624  1.00  0.00     0.035 A 
BRANCH  23  26
HETATM   26  O   UNL     1     -47.125  58.705 -58.660  1.00  0.00    -0.347 OA
BRANCH  26  27
HETATM   27  C   UNL     1     -46.743  59.073 -59.992  1.00  0.00     0.120 C 
HETATM   28  C   UNL     1     -46.964  60.568 -60.220  1.00  0.00     0.040 C 
HETATM   29  C   UNL     1     -47.635  58.269 -60.937  1.00  0.00     0.040 C 
ENDBRANCH  26  27
ENDBRANCH  23  26
ENDBRANCH   1  19
TORSDOF 3
ENDMDL
