MODEL 1
REMARK VINA RESULT:      -9.7      0.000      0.000
REMARK  3 active torsions:
REMARK  status: ('A' for Active; 'I' for Inactive)
REMARK    1  A    between atoms: N_9  and  C_10 
REMARK    2  A    between atoms: C_10  and  C_11 
REMARK    3  A    between atoms: C_11  and  C_12 
REMARK       I    between atoms: C_12  and  N_13 
ROOT
HETATM    1  C   UNL     1     -42.228  57.660 -51.944  1.00  0.00     0.221 C 
HETATM    2  N   UNL     1     -43.021  57.562 -53.091  1.00  0.00    -0.352 N 
HETATM    3  C   UNL     1     -43.650  56.315 -53.528  1.00  0.00     0.129 C 
HETATM    4  C   UNL     1     -44.928  56.562 -54.319  1.00  0.00     0.068 C 
HETATM    5  C   UNL     1     -44.730  57.561 -55.468  1.00  0.00     0.094 C 
HETATM    6  N   UNL     1     -46.023  57.848 -56.053  1.00  0.00    -0.334 N 
HETATM    7  C   UNL     1     -46.173  58.414 -57.290  1.00  0.00     0.255 C 
HETATM    8  O   UNL     1     -47.203  58.996 -57.604  1.00  0.00    -0.268 OA
HETATM    9  C   UNL     1     -45.039  58.256 -58.219  1.00  0.00     0.053 A 
HETATM   10  C   UNL     1     -43.932  57.524 -57.777  1.00  0.00     0.026 A 
HETATM   11  N   UNL     1     -43.907  56.936 -56.504  1.00  0.00    -0.265 NA
HETATM   12  C   UNL     1     -45.094  58.795 -59.509  1.00  0.00     0.019 A 
HETATM   13  C   UNL     1     -44.036  58.576 -60.388  1.00  0.00     0.001 A 
HETATM   14  C   UNL     1     -42.945  57.808 -59.981  1.00  0.00     0.002 A 
HETATM   15  C   UNL     1     -42.902  57.273 -58.689  1.00  0.00     0.024 A 
HETATM   16  C   UNL     1     -44.089  58.849 -54.927  1.00  0.00     0.068 C 
HETATM   17  C   UNL     1     -42.826  58.579 -54.122  1.00  0.00     0.129 C 
HETATM   18  O   UNL     1     -41.523  58.643 -51.720  1.00  0.00    -0.273 OA
HETATM   19  H   UNL     1     -46.797  58.054 -55.436  1.00  0.00     0.164 HD
HETATM   20  H   UNL     1     -42.961  56.708 -56.212  1.00  0.00     0.130 HD
ENDROOT
BRANCH   1  21
HETATM   21  C   UNL     1     -42.273  56.498 -50.973  1.00  0.00     0.123 C 
BRANCH  21  22
HETATM   22  C   UNL     1     -40.869  56.037 -50.597  1.00  0.00     0.138 C 
BRANCH  22  23
HETATM   23  N   UNL     1     -40.663  54.635 -50.941  1.00  0.00    -0.349 N 
HETATM   24  C   UNL     1     -40.543  54.169 -52.238  1.00  0.00     0.045 A 
HETATM   25  C   UNL     1     -40.377  52.785 -52.160  1.00  0.00    -0.001 A 
HETATM   26  C   UNL     1     -40.569  54.845 -53.470  1.00  0.00     0.030 A 
HETATM   27  C   UNL     1     -40.396  52.424 -50.776  1.00  0.00    -0.027 A 
HETATM   28  C   UNL     1     -40.230  52.054 -53.359  1.00  0.00     0.014 A 
HETATM   29  C   UNL     1     -40.246  51.051 -50.218  1.00  0.00     0.051 C 
HETATM   30  C   UNL     1     -40.580  53.589 -50.045  1.00  0.00     0.015 A 
HETATM   31  C   UNL     1     -40.662  53.770 -48.568  1.00  0.00     0.069 C 
HETATM   32  C   UNL     1     -40.251  52.719 -54.589  1.00  0.00     0.001 A 
HETATM   33  C   UNL     1     -40.418  54.097 -54.642  1.00  0.00     0.002 A 
ENDBRANCH  22  23
ENDBRANCH  21  22
ENDBRANCH   1  21
TORSDOF 3
ENDMDL
MODEL 2
REMARK VINA RESULT:      -9.6      2.171      8.312
REMARK  3 active torsions:
REMARK  status: ('A' for Active; 'I' for Inactive)
REMARK    1  A    between atoms: N_9  and  C_10 
REMARK    2  A    between atoms: C_10  and  C_11 
REMARK    3  A    between atoms: C_11  and  C_12 
REMARK       I    between atoms: C_12  and  N_13 
ROOT
HETATM    1  C   UNL     1     -44.270  57.360 -54.532  1.00  0.00     0.221 C 
HETATM    2  N   UNL     1     -43.255  56.629 -53.906  1.00  0.00    -0.352 N 
HETATM    3  C   UNL     1     -41.846  57.021 -53.941  1.00  0.00     0.129 C 
HETATM    4  C   UNL     1     -41.083  56.532 -52.716  1.00  0.00     0.068 C 
HETATM    5  C   UNL     1     -41.276  55.030 -52.458  1.00  0.00     0.094 C 
HETATM    6  N   UNL     1     -40.649  54.699 -51.195  1.00  0.00    -0.334 N 
HETATM    7  C   UNL     1     -40.335  53.416 -50.834  1.00  0.00     0.255 C 
HETATM    8  O   UNL     1     -40.178  53.106 -49.660  1.00  0.00    -0.268 OA
HETATM    9  C   UNL     1     -40.172  52.451 -51.935  1.00  0.00     0.053 A 
HETATM   10  C   UNL     1     -40.318  52.924 -53.243  1.00  0.00     0.026 A 
HETATM   11  N   UNL     1     -40.586  54.276 -53.505  1.00  0.00    -0.265 NA
HETATM   12  C   UNL     1     -39.847  51.116 -51.671  1.00  0.00     0.019 A 
HETATM   13  C   UNL     1     -39.636  50.240 -52.733  1.00  0.00     0.001 A 
HETATM   14  C   UNL     1     -39.730  50.706 -54.044  1.00  0.00     0.002 A 
HETATM   15  C   UNL     1     -40.054  52.043 -54.296  1.00  0.00     0.024 A 
HETATM   16  C   UNL     1     -42.777  54.703 -52.413  1.00  0.00     0.068 C 
HETATM   17  C   UNL     1     -43.524  55.219 -53.635  1.00  0.00     0.129 C 
HETATM   18  O   UNL     1     -45.400  56.902 -54.694  1.00  0.00    -0.273 OA
HETATM   19  H   UNL     1     -40.824  55.295 -50.399  1.00  0.00     0.164 HD
HETATM   20  H   UNL     1     -40.957  54.414 -54.440  1.00  0.00     0.130 HD
ENDROOT
BRANCH   1  21
HETATM   21  C   UNL     1     -43.921  58.757 -55.006  1.00  0.00     0.123 C 
BRANCH  21  22
HETATM   22  C   UNL     1     -44.680  59.114 -56.279  1.00  0.00     0.138 C 
BRANCH  22  23
HETATM   23  N   UNL     1     -43.775  59.254 -57.413  1.00  0.00    -0.349 N 
HETATM   24  C   UNL     1     -43.352  58.195 -58.197  1.00  0.00     0.045 A 
HETATM   25  C   UNL     1     -42.488  58.721 -59.159  1.00  0.00    -0.001 A 
HETATM   26  C   UNL     1     -43.653  56.823 -58.140  1.00  0.00     0.030 A 
HETATM   27  C   UNL     1     -42.401  60.131 -58.938  1.00  0.00    -0.027 A 
HETATM   28  C   UNL     1     -41.907  57.841 -60.098  1.00  0.00     0.014 A 
HETATM   29  C   UNL     1     -41.597  61.102 -59.732  1.00  0.00     0.051 C 
HETATM   30  C   UNL     1     -43.205  60.432 -57.848  1.00  0.00     0.015 A 
HETATM   31  C   UNL     1     -43.474  61.754 -57.213  1.00  0.00     0.069 C 
HETATM   32  C   UNL     1     -42.204  56.475 -60.051  1.00  0.00     0.001 A 
HETATM   33  C   UNL     1     -43.067  55.975 -59.083  1.00  0.00     0.002 A 
ENDBRANCH  22  23
ENDBRANCH  21  22
ENDBRANCH   1  21
TORSDOF 3
ENDMDL
MODEL 3
REMARK VINA RESULT:      -9.4      2.388      8.655
REMARK  3 active torsions:
REMARK  status: ('A' for Active; 'I' for Inactive)
REMARK    1  A    between atoms: N_9  and  C_10 
REMARK    2  A    between atoms: C_10  and  C_11 
REMARK    3  A    between atoms: C_11  and  C_12 
REMARK       I    between atoms: C_12  and  N_13 
ROOT
HETATM    1  C   UNL     1     -42.615  58.851 -55.789  1.00  0.00     0.221 C 
HETATM    2  N   UNL     1     -42.469  57.635 -55.114  1.00  0.00    -0.352 N 
HETATM    3  C   UNL     1     -43.578  56.710 -54.878  1.00  0.00     0.129 C 
HETATM    4  C   UNL     1     -43.109  55.265 -54.773  1.00  0.00     0.068 C 
HETATM    5  C   UNL     1     -41.962  55.086 -53.767  1.00  0.00     0.094 C 
HETATM    6  N   UNL     1     -41.484  53.722 -53.856  1.00  0.00    -0.334 N 
HETATM    7  C   UNL     1     -40.722  53.134 -52.882  1.00  0.00     0.255 C 
HETATM    8  O   UNL     1     -40.017  52.163 -53.125  1.00  0.00    -0.268 OA
HETATM    9  C   UNL     1     -40.825  53.720 -51.534  1.00  0.00     0.053 A 
HETATM   10  C   UNL     1     -41.704  54.793 -51.355  1.00  0.00     0.026 A 
HETATM   11  N   UNL     1     -42.483  55.283 -52.413  1.00  0.00    -0.265 NA
HETATM   12  C   UNL     1     -40.089  53.190 -50.468  1.00  0.00     0.019 A 
HETATM   13  C   UNL     1     -40.254  53.722 -49.191  1.00  0.00     0.001 A 
HETATM   14  C   UNL     1     -41.161  54.760 -48.986  1.00  0.00     0.002 A 
HETATM   15  C   UNL     1     -41.892  55.282 -50.058  1.00  0.00     0.024 A 
HETATM   16  C   UNL     1     -40.830  56.073 -54.094  1.00  0.00     0.068 C 
HETATM   17  C   UNL     1     -41.324  57.507 -54.216  1.00  0.00     0.129 C 
HETATM   18  O   UNL     1     -41.740  59.715 -55.774  1.00  0.00    -0.273 OA
HETATM   19  H   UNL     1     -41.315  53.329 -54.772  1.00  0.00     0.164 HD
HETATM   20  H   UNL     1     -42.830  56.219 -52.227  1.00  0.00     0.130 HD
ENDROOT
BRANCH   1  21
HETATM   21  C   UNL     1     -43.907  59.066 -56.551  1.00  0.00     0.123 C 
BRANCH  21  22
HETATM   22  C   UNL     1     -43.641  59.303 -58.033  1.00  0.00     0.138 C 
BRANCH  22  23
HETATM   23  N   UNL     1     -44.610  58.598 -58.864  1.00  0.00    -0.349 N 
HETATM   24  C   UNL     1     -44.552  57.243 -59.134  1.00  0.00     0.045 A 
HETATM   25  C   UNL     1     -45.630  56.948 -59.972  1.00  0.00    -0.001 A 
HETATM   26  C   UNL     1     -43.646  56.254 -58.715  1.00  0.00     0.030 A 
HETATM   27  C   UNL     1     -46.345  58.165 -60.200  1.00  0.00    -0.027 A 
HETATM   28  C   UNL     1     -45.805  55.615 -60.403  1.00  0.00     0.014 A 
HETATM   29  C   UNL     1     -47.572  58.327 -61.030  1.00  0.00     0.051 C 
HETATM   30  C   UNL     1     -45.688  59.171 -59.506  1.00  0.00     0.015 A 
HETATM   31  C   UNL     1     -46.027  60.619 -59.403  1.00  0.00     0.069 C 
HETATM   32  C   UNL     1     -44.910  54.624 -59.988  1.00  0.00     0.001 A 
HETATM   33  C   UNL     1     -43.844  54.941 -59.155  1.00  0.00     0.002 A 
ENDBRANCH  22  23
ENDBRANCH  21  22
ENDBRANCH   1  21
TORSDOF 3
ENDMDL
MODEL 4
REMARK VINA RESULT:      -9.3      2.452      8.693
REMARK  3 active torsions:
REMARK  status: ('A' for Active; 'I' for Inactive)
REMARK    1  A    between atoms: N_9  and  C_10 
REMARK    2  A    between atoms: C_10  and  C_11 
REMARK    3  A    between atoms: C_11  and  C_12 
REMARK       I    between atoms: C_12  and  N_13 
ROOT
HETATM    1  C   UNL     1     -42.691  58.539 -55.971  1.00  0.00     0.221 C 
HETATM    2  N   UNL     1     -42.516  57.377 -55.213  1.00  0.00    -0.352 N 
HETATM    3  C   UNL     1     -43.603  56.445 -54.911  1.00  0.00     0.129 C 
HETATM    4  C   UNL     1     -43.100  55.022 -54.706  1.00  0.00     0.068 C 
HETATM    5  C   UNL     1     -41.949  54.941 -53.692  1.00  0.00     0.094 C 
HETATM    6  N   UNL     1     -41.439  53.586 -53.687  1.00  0.00    -0.334 N 
HETATM    7  C   UNL     1     -40.663  53.086 -52.676  1.00  0.00     0.255 C 
HETATM    8  O   UNL     1     -39.936  52.116 -52.851  1.00  0.00    -0.268 OA
HETATM    9  C   UNL     1     -40.779  53.762 -51.371  1.00  0.00     0.053 A 
HETATM   10  C   UNL     1     -41.683  54.824 -51.266  1.00  0.00     0.026 A 
HETATM   11  N   UNL     1     -42.473  55.220 -52.355  1.00  0.00    -0.265 NA
HETATM   12  C   UNL     1     -40.031  53.325 -50.273  1.00  0.00     0.019 A 
HETATM   13  C   UNL     1     -40.207  53.941 -49.036  1.00  0.00     0.001 A 
HETATM   14  C   UNL     1     -41.139  54.970 -48.901  1.00  0.00     0.002 A 
HETATM   15  C   UNL     1     -41.882  55.397 -50.006  1.00  0.00     0.024 A 
HETATM   16  C   UNL     1     -40.841  55.929 -54.090  1.00  0.00     0.068 C 
HETATM   17  C   UNL     1     -41.367  57.339 -54.311  1.00  0.00     0.129 C 
HETATM   18  O   UNL     1     -41.836  59.423 -56.018  1.00  0.00    -0.273 OA
HETATM   19  H   UNL     1     -41.261  53.133 -54.573  1.00  0.00     0.164 HD
HETATM   20  H   UNL     1     -42.842  56.159 -52.233  1.00  0.00     0.130 HD
ENDROOT
BRANCH   1  21
HETATM   21  C   UNL     1     -43.987  58.670 -56.744  1.00  0.00     0.123 C 
BRANCH  21  22
HETATM   22  C   UNL     1     -43.729  58.769 -58.243  1.00  0.00     0.138 C 
BRANCH  22  23
HETATM   23  N   UNL     1     -44.438  57.724 -58.972  1.00  0.00    -0.349 N 
HETATM   24  C   UNL     1     -45.612  57.933 -59.674  1.00  0.00     0.045 A 
HETATM   25  C   UNL     1     -45.988  56.702 -60.214  1.00  0.00    -0.001 A 
HETATM   26  C   UNL     1     -46.373  59.097 -59.876  1.00  0.00     0.030 A 
HETATM   27  C   UNL     1     -45.006  55.739 -59.823  1.00  0.00    -0.027 A 
HETATM   28  C   UNL     1     -47.169  56.637 -60.986  1.00  0.00     0.014 A 
HETATM   29  C   UNL     1     -44.996  54.293 -60.178  1.00  0.00     0.051 C 
HETATM   30  C   UNL     1     -44.061  56.399 -59.051  1.00  0.00     0.015 A 
HETATM   31  C   UNL     1     -42.830  55.860 -58.406  1.00  0.00     0.069 C 
HETATM   32  C   UNL     1     -47.931  57.791 -61.195  1.00  0.00     0.001 A 
HETATM   33  C   UNL     1     -47.536  59.005 -60.647  1.00  0.00     0.002 A 
ENDBRANCH  22  23
ENDBRANCH  21  22
ENDBRANCH   1  21
TORSDOF 3
ENDMDL
MODEL 5
REMARK VINA RESULT:      -9.3      3.808      6.478
REMARK  3 active torsions:
REMARK  status: ('A' for Active; 'I' for Inactive)
REMARK    1  A    between atoms: N_9  and  C_10 
REMARK    2  A    between atoms: C_10  and  C_11 
REMARK    3  A    between atoms: C_11  and  C_12 
REMARK       I    between atoms: C_12  and  N_13 
ROOT
HETATM    1  C   UNL     1     -43.829  57.265 -53.580  1.00  0.00     0.221 C 
HETATM    2  N   UNL     1     -43.528  58.345 -52.745  1.00  0.00    -0.352 N 
HETATM    3  C   UNL     1     -42.412  58.339 -51.798  1.00  0.00     0.129 C 
HETATM    4  C   UNL     1     -41.879  59.741 -51.531  1.00  0.00     0.068 C 
HETATM    5  C   UNL     1     -42.985  60.732 -51.139  1.00  0.00     0.094 C 
HETATM    6  N   UNL     1     -42.406  62.057 -51.063  1.00  0.00    -0.334 N 
HETATM    7  C   UNL     1     -43.014  63.100 -50.417  1.00  0.00     0.255 C 
HETATM    8  O   UNL     1     -42.734  64.262 -50.679  1.00  0.00    -0.268 OA
HETATM    9  C   UNL     1     -43.996  62.738 -49.378  1.00  0.00     0.053 A 
HETATM   10  C   UNL     1     -44.199  61.378 -49.120  1.00  0.00     0.026 A 
HETATM   11  N   UNL     1     -43.479  60.389 -49.805  1.00  0.00    -0.265 NA
HETATM   12  C   UNL     1     -44.669  63.730 -48.658  1.00  0.00     0.019 A 
HETATM   13  C   UNL     1     -45.543  63.361 -47.638  1.00  0.00     0.001 A 
HETATM   14  C   UNL     1     -45.723  62.012 -47.334  1.00  0.00     0.002 A 
HETATM   15  C   UNL     1     -45.043  61.028 -48.061  1.00  0.00     0.024 A 
HETATM   16  C   UNL     1     -44.106  60.695 -52.190  1.00  0.00     0.068 C 
HETATM   17  C   UNL     1     -44.609  59.285 -52.458  1.00  0.00     0.129 C 
HETATM   18  O   UNL     1     -44.894  57.190 -54.192  1.00  0.00    -0.273 OA
HETATM   19  H   UNL     1     -41.804  62.364 -51.814  1.00  0.00     0.164 HD
HETATM   20  H   UNL     1     -43.928  59.481 -49.741  1.00  0.00     0.130 HD
ENDROOT
BRANCH   1  21
HETATM   21  C   UNL     1     -42.781  56.179 -53.709  1.00  0.00     0.123 C 
BRANCH  21  22
HETATM   22  C   UNL     1     -43.295  54.848 -53.172  1.00  0.00     0.138 C 
BRANCH  22  23
HETATM   23  N   UNL     1     -42.280  54.171 -52.374  1.00  0.00    -0.349 N 
HETATM   24  C   UNL     1     -41.373  53.262 -52.890  1.00  0.00     0.045 A 
HETATM   25  C   UNL     1     -40.586  52.821 -51.825  1.00  0.00    -0.001 A 
HETATM   26  C   UNL     1     -41.180  52.791 -54.201  1.00  0.00     0.030 A 
HETATM   27  C   UNL     1     -41.041  53.491 -50.646  1.00  0.00    -0.027 A 
HETATM   28  C   UNL     1     -39.570  51.876 -52.082  1.00  0.00     0.014 A 
HETATM   29  C   UNL     1     -40.487  53.335 -49.272  1.00  0.00     0.051 C 
HETATM   30  C   UNL     1     -42.093  54.317 -51.015  1.00  0.00     0.015 A 
HETATM   31  C   UNL     1     -42.909  55.236 -50.172  1.00  0.00     0.069 C 
HETATM   32  C   UNL     1     -39.368  51.404 -53.383  1.00  0.00     0.001 A 
HETATM   33  C   UNL     1     -40.165  51.857 -54.428  1.00  0.00     0.002 A 
ENDBRANCH  22  23
ENDBRANCH  21  22
ENDBRANCH   1  21
TORSDOF 3
ENDMDL
MODEL 6
REMARK VINA RESULT:      -9.1      4.279      7.196
REMARK  3 active torsions:
REMARK  status: ('A' for Active; 'I' for Inactive)
REMARK    1  A    between atoms: N_9  and  C_10 
REMARK    2  A    between atoms: C_10  and  C_11 
REMARK    3  A    between atoms: C_11  and  C_12 
REMARK       I    between atoms: C_12  and  N_13 
ROOT
HETATM    1  C   UNL     1     -44.055  57.955 -53.263  1.00  0.00     0.221 C 
HETATM    2  N   UNL     1     -43.794  58.972 -52.338  1.00  0.00    -0.352 N 
HETATM    3  C   UNL     1     -42.699  58.913 -51.369  1.00  0.00     0.129 C 
HETATM    4  C   UNL     1     -42.200  60.299 -50.981  1.00  0.00     0.068 C 
HETATM    5  C   UNL     1     -43.335  61.235 -50.539  1.00  0.00     0.094 C 
HETATM    6  N   UNL     1     -42.786  62.561 -50.346  1.00  0.00    -0.334 N 
HETATM    7  C   UNL     1     -43.429  63.537 -49.634  1.00  0.00     0.255 C 
HETATM    8  O   UNL     1     -43.167  64.722 -49.798  1.00  0.00    -0.268 OA
HETATM    9  C   UNL     1     -44.424  63.076 -48.650  1.00  0.00     0.053 A 
HETATM   10  C   UNL     1     -44.605  61.697 -48.503  1.00  0.00     0.026 A 
HETATM   11  N   UNL     1     -43.850  60.779 -49.247  1.00  0.00    -0.265 NA
HETATM   12  C   UNL     1     -45.133  63.996 -47.869  1.00  0.00     0.019 A 
HETATM   13  C   UNL     1     -46.021  63.530 -46.901  1.00  0.00     0.001 A 
HETATM   14  C   UNL     1     -46.179  62.159 -46.709  1.00  0.00     0.002 A 
HETATM   15  C   UNL     1     -45.463  61.249 -47.494  1.00  0.00     0.024 A 
HETATM   16  C   UNL     1     -44.432  61.260 -51.615  1.00  0.00     0.068 C 
HETATM   17  C   UNL     1     -44.901  59.865 -52.003  1.00  0.00     0.129 C 
HETATM   18  O   UNL     1     -45.105  57.909 -53.902  1.00  0.00    -0.273 OA
HETATM   19  H   UNL     1     -42.174  62.938 -51.057  1.00  0.00     0.164 HD
HETATM   20  H   UNL     1     -44.281  59.860 -49.265  1.00  0.00     0.130 HD
ENDROOT
BRANCH   1  21
HETATM   21  C   UNL     1     -42.981  56.903 -53.451  1.00  0.00     0.123 C 
BRANCH  21  22
HETATM   22  C   UNL     1     -43.467  55.531 -52.999  1.00  0.00     0.138 C 
BRANCH  22  23
HETATM   23  N   UNL     1     -42.348  54.645 -52.699  1.00  0.00    -0.349 N 
HETATM   24  C   UNL     1     -41.692  54.618 -51.481  1.00  0.00     0.045 A 
HETATM   25  C   UNL     1     -40.677  53.665 -51.587  1.00  0.00    -0.001 A 
HETATM   26  C   UNL     1     -41.903  55.349 -50.299  1.00  0.00     0.030 A 
HETATM   27  C   UNL     1     -40.738  53.112 -52.905  1.00  0.00    -0.027 A 
HETATM   28  C   UNL     1     -39.846  53.436 -50.468  1.00  0.00     0.014 A 
HETATM   29  C   UNL     1     -39.850  52.054 -53.461  1.00  0.00     0.051 C 
HETATM   30  C   UNL     1     -41.779  53.742 -53.572  1.00  0.00     0.015 A 
HETATM   31  C   UNL     1     -42.270  53.528 -54.963  1.00  0.00     0.069 C 
HETATM   32  C   UNL     1     -40.052  54.157 -49.287  1.00  0.00     0.001 A 
HETATM   33  C   UNL     1     -41.068  55.101 -49.206  1.00  0.00     0.002 A 
ENDBRANCH  22  23
ENDBRANCH  21  22
ENDBRANCH   1  21
TORSDOF 3
ENDMDL
MODEL 7
REMARK VINA RESULT:      -9.0      2.495      8.675
REMARK  3 active torsions:
REMARK  status: ('A' for Active; 'I' for Inactive)
REMARK    1  A    between atoms: N_9  and  C_10 
REMARK    2  A    between atoms: C_10  and  C_11 
REMARK    3  A    between atoms: C_11  and  C_12 
REMARK       I    between atoms: C_12  and  N_13 
ROOT
HETATM    1  C   UNL     1     -44.000  56.871 -54.437  1.00  0.00     0.221 C 
HETATM    2  N   UNL     1     -43.045  56.149 -53.715  1.00  0.00    -0.352 N 
HETATM    3  C   UNL     1     -41.635  56.534 -53.641  1.00  0.00     0.129 C 
HETATM    4  C   UNL     1     -40.979  56.067 -52.347  1.00  0.00     0.068 C 
HETATM    5  C   UNL     1     -41.202  54.572 -52.076  1.00  0.00     0.094 C 
HETATM    6  N   UNL     1     -40.683  54.264 -50.760  1.00  0.00    -0.334 N 
HETATM    7  C   UNL     1     -40.407  52.987 -50.348  1.00  0.00     0.255 C 
HETATM    8  O   UNL     1     -40.350  52.701 -49.159  1.00  0.00    -0.268 OA
HETATM    9  C   UNL     1     -40.159  51.999 -51.412  1.00  0.00     0.053 A 
HETATM   10  C   UNL     1     -40.194  52.447 -52.737  1.00  0.00     0.026 A 
HETATM   11  N   UNL     1     -40.431  53.793 -53.047  1.00  0.00    -0.265 NA
HETATM   12  C   UNL     1     -39.865  50.669 -51.095  1.00  0.00     0.019 A 
HETATM   13  C   UNL     1     -39.571  49.770 -52.119  1.00  0.00     0.001 A 
HETATM   14  C   UNL     1     -39.554  50.209 -53.442  1.00  0.00     0.002 A 
HETATM   15  C   UNL     1     -39.848  51.543 -53.747  1.00  0.00     0.024 A 
HETATM   16  C   UNL     1     -42.703  54.252 -52.150  1.00  0.00     0.068 C 
HETATM   17  C   UNL     1     -43.343  54.745 -53.439  1.00  0.00     0.129 C 
HETATM   18  O   UNL     1     -45.115  56.415 -54.684  1.00  0.00    -0.273 OA
HETATM   19  H   UNL     1     -40.920  54.877 -49.992  1.00  0.00     0.164 HD
HETATM   20  H   UNL     1     -40.723  53.914 -54.012  1.00  0.00     0.130 HD
ENDROOT
BRANCH   1  21
HETATM   21  C   UNL     1     -43.605  58.256 -54.908  1.00  0.00     0.123 C 
BRANCH  21  22
HETATM   22  C   UNL     1     -44.410  58.673 -56.135  1.00  0.00     0.138 C 
BRANCH  22  23
HETATM   23  N   UNL     1     -43.546  58.869 -57.293  1.00  0.00    -0.349 N 
HETATM   24  C   UNL     1     -42.981  60.084 -57.636  1.00  0.00     0.045 A 
HETATM   25  C   UNL     1     -42.243  59.876 -58.803  1.00  0.00    -0.001 A 
HETATM   26  C   UNL     1     -43.056  61.346 -57.021  1.00  0.00     0.030 A 
HETATM   27  C   UNL     1     -42.376  58.496 -59.157  1.00  0.00    -0.027 A 
HETATM   28  C   UNL     1     -41.557  60.970 -59.373  1.00  0.00     0.014 A 
HETATM   29  C   UNL     1     -41.753  57.821 -60.330  1.00  0.00     0.051 C 
HETATM   30  C   UNL     1     -43.192  57.899 -58.207  1.00  0.00     0.015 A 
HETATM   31  C   UNL     1     -43.635  56.479 -58.107  1.00  0.00     0.069 C 
HETATM   32  C   UNL     1     -41.624  62.228 -58.766  1.00  0.00     0.001 A 
HETATM   33  C   UNL     1     -42.365  62.412 -57.605  1.00  0.00     0.002 A 
ENDBRANCH  22  23
ENDBRANCH  21  22
ENDBRANCH   1  21
TORSDOF 3
ENDMDL
MODEL 8
REMARK VINA RESULT:      -8.9      1.755      2.648
REMARK  3 active torsions:
REMARK  status: ('A' for Active; 'I' for Inactive)
REMARK    1  A    between atoms: N_9  and  C_10 
REMARK    2  A    between atoms: C_10  and  C_11 
REMARK    3  A    between atoms: C_11  and  C_12 
REMARK       I    between atoms: C_12  and  N_13 
ROOT
HETATM    1  C   UNL     1     -41.716  57.926 -54.470  1.00  0.00     0.221 C 
HETATM    2  N   UNL     1     -42.374  57.894 -55.703  1.00  0.00    -0.352 N 
HETATM    3  C   UNL     1     -42.232  56.795 -56.660  1.00  0.00     0.129 C 
HETATM    4  C   UNL     1     -43.469  56.631 -57.533  1.00  0.00     0.068 C 
HETATM    5  C   UNL     1     -43.904  57.945 -58.199  1.00  0.00     0.094 C 
HETATM    6  N   UNL     1     -45.166  57.721 -58.872  1.00  0.00    -0.334 N 
HETATM    7  C   UNL     1     -45.657  58.562 -59.835  1.00  0.00     0.255 C 
HETATM    8  O   UNL     1     -46.850  58.591 -60.107  1.00  0.00    -0.268 OA
HETATM    9  C   UNL     1     -44.665  59.399 -60.534  1.00  0.00     0.053 A 
HETATM   10  C   UNL     1     -43.320  59.245 -60.184  1.00  0.00     0.026 A 
HETATM   11  N   UNL     1     -42.919  58.310 -59.218  1.00  0.00    -0.265 NA
HETATM   12  C   UNL     1     -45.064  60.289 -61.537  1.00  0.00     0.019 A 
HETATM   13  C   UNL     1     -44.099  61.021 -62.226  1.00  0.00     0.001 A 
HETATM   14  C   UNL     1     -42.750  60.845 -61.923  1.00  0.00     0.002 A 
HETATM   15  C   UNL     1     -42.362  59.952 -60.919  1.00  0.00     0.024 A 
HETATM   16  C   UNL     1     -44.053  59.040 -57.130  1.00  0.00     0.068 C 
HETATM   17  C   UNL     1     -42.815  59.173 -56.255  1.00  0.00     0.129 C 
HETATM   18  O   UNL     1     -41.658  58.949 -53.788  1.00  0.00    -0.273 OA
HETATM   19  H   UNL     1     -45.898  57.231 -58.376  1.00  0.00     0.164 HD
HETATM   20  H   UNL     1     -41.992  58.512 -58.857  1.00  0.00     0.130 HD
ENDROOT
BRANCH   1  21
HETATM   21  C   UNL     1     -41.072  56.639 -53.998  1.00  0.00     0.123 C 
BRANCH  21  22
HETATM   22  C   UNL     1     -42.043  55.809 -53.165  1.00  0.00     0.138 C 
BRANCH  22  23
HETATM   23  N   UNL     1     -41.332  54.915 -52.259  1.00  0.00    -0.349 N 
HETATM   24  C   UNL     1     -40.819  53.686 -52.632  1.00  0.00     0.045 A 
HETATM   25  C   UNL     1     -40.234  53.126 -51.495  1.00  0.00    -0.001 A 
HETATM   26  C   UNL     1     -40.822  53.020 -53.870  1.00  0.00     0.030 A 
HETATM   27  C   UNL     1     -40.404  54.053 -50.420  1.00  0.00    -0.027 A 
HETATM   28  C   UNL     1     -39.628  51.855 -51.604  1.00  0.00     0.014 A 
HETATM   29  C   UNL     1     -39.931  53.878 -49.018  1.00  0.00     0.051 C 
HETATM   30  C   UNL     1     -41.092  55.150 -50.920  1.00  0.00     0.015 A 
HETATM   31  C   UNL     1     -41.514  56.396 -50.220  1.00  0.00     0.069 C 
HETATM   32  C   UNL     1     -39.623  51.187 -52.833  1.00  0.00     0.001 A 
HETATM   33  C   UNL     1     -40.213  51.764 -53.950  1.00  0.00     0.002 A 
ENDBRANCH  22  23
ENDBRANCH  21  22
ENDBRANCH   1  21
TORSDOF 3
ENDMDL
MODEL 9
REMARK VINA RESULT:      -8.9      1.937      8.361
REMARK  3 active torsions:
REMARK  status: ('A' for Active; 'I' for Inactive)
REMARK    1  A    between atoms: N_9  and  C_10 
REMARK    2  A    between atoms: C_10  and  C_11 
REMARK    3  A    between atoms: C_11  and  C_12 
REMARK       I    between atoms: C_12  and  N_13 
ROOT
HETATM    1  C   UNL     1     -44.714  58.188 -55.587  1.00  0.00     0.221 C 
HETATM    2  N   UNL     1     -43.706  57.599 -54.817  1.00  0.00    -0.352 N 
HETATM    3  C   UNL     1     -42.315  58.054 -54.834  1.00  0.00     0.129 C 
HETATM    4  C   UNL     1     -41.603  57.772 -53.517  1.00  0.00     0.068 C 
HETATM    5  C   UNL     1     -41.744  56.310 -53.068  1.00  0.00     0.094 C 
HETATM    6  N   UNL     1     -41.175  56.182 -51.742  1.00  0.00    -0.334 N 
HETATM    7  C   UNL     1     -40.827  54.977 -51.195  1.00  0.00     0.255 C 
HETATM    8  O   UNL     1     -40.723  54.834 -49.983  1.00  0.00    -0.268 OA
HETATM    9  C   UNL     1     -40.559  53.883 -52.146  1.00  0.00     0.053 A 
HETATM   10  C   UNL     1     -40.651  54.170 -53.511  1.00  0.00     0.026 A 
HETATM   11  N   UNL     1     -40.963  55.459 -53.967  1.00  0.00    -0.265 NA
HETATM   12  C   UNL     1     -40.192  52.613 -51.687  1.00  0.00     0.019 A 
HETATM   13  C   UNL     1     -39.882  51.616 -52.608  1.00  0.00     0.001 A 
HETATM   14  C   UNL     1     -39.923  51.897 -53.973  1.00  0.00     0.002 A 
HETATM   15  C   UNL     1     -40.290  53.171 -54.421  1.00  0.00     0.024 A 
HETATM   16  C   UNL     1     -43.230  55.916 -53.055  1.00  0.00     0.068 C 
HETATM   17  C   UNL     1     -43.927  56.226 -54.371  1.00  0.00     0.129 C 
HETATM   18  O   UNL     1     -45.812  57.655 -55.742  1.00  0.00    -0.273 OA
HETATM   19  H   UNL     1     -41.421  56.870 -51.043  1.00  0.00     0.164 HD
HETATM   20  H   UNL     1     -41.286  55.453 -54.929  1.00  0.00     0.130 HD
ENDROOT
BRANCH   1  21
HETATM   21  C   UNL     1     -44.401  59.525 -56.227  1.00  0.00     0.123 C 
BRANCH  21  22
HETATM   22  C   UNL     1     -43.764  59.344 -57.600  1.00  0.00     0.138 C 
BRANCH  22  23
HETATM   23  N   UNL     1     -44.689  58.712 -58.534  1.00  0.00    -0.349 N 
HETATM   24  C   UNL     1     -44.595  57.392 -58.938  1.00  0.00     0.045 A 
HETATM   25  C   UNL     1     -45.636  57.167 -59.840  1.00  0.00    -0.001 A 
HETATM   26  C   UNL     1     -43.683  56.381 -58.589  1.00  0.00     0.030 A 
HETATM   27  C   UNL     1     -46.368  58.389 -59.969  1.00  0.00    -0.027 A 
HETATM   28  C   UNL     1     -45.769  55.882 -60.411  1.00  0.00     0.014 A 
HETATM   29  C   UNL     1     -47.569  58.614 -60.822  1.00  0.00     0.051 C 
HETATM   30  C   UNL     1     -45.756  59.329 -59.153  1.00  0.00     0.015 A 
HETATM   31  C   UNL     1     -46.128  60.753 -58.915  1.00  0.00     0.069 C 
HETATM   32  C   UNL     1     -44.869  54.869 -60.067  1.00  0.00     0.001 A 
HETATM   33  C   UNL     1     -43.839  55.117 -59.167  1.00  0.00     0.002 A 
ENDBRANCH  22  23
ENDBRANCH  21  22
ENDBRANCH   1  21
TORSDOF 3
ENDMDL
MODEL 10
REMARK VINA RESULT:      -8.7      4.376      6.712
REMARK  3 active torsions:
REMARK  status: ('A' for Active; 'I' for Inactive)
REMARK    1  A    between atoms: N_9  and  C_10 
REMARK    2  A    between atoms: C_10  and  C_11 
REMARK    3  A    between atoms: C_11  and  C_12 
REMARK       I    between atoms: C_12  and  N_13 
ROOT
HETATM    1  C   UNL     1     -43.554  57.840 -53.220  1.00  0.00     0.221 C 
HETATM    2  N   UNL     1     -43.994  58.969 -52.521  1.00  0.00    -0.352 N 
HETATM    3  C   UNL     1     -43.191  60.183 -52.370  1.00  0.00     0.129 C 
HETATM    4  C   UNL     1     -44.055  61.427 -52.208  1.00  0.00     0.068 C 
HETATM    5  C   UNL     1     -45.113  61.274 -51.105  1.00  0.00     0.094 C 
HETATM    6  N   UNL     1     -45.977  62.436 -51.137  1.00  0.00    -0.334 N 
HETATM    7  C   UNL     1     -46.793  62.786 -50.094  1.00  0.00     0.255 C 
HETATM    8  O   UNL     1     -47.771  63.503 -50.264  1.00  0.00    -0.268 OA
HETATM    9  C   UNL     1     -46.407  62.276 -48.767  1.00  0.00     0.053 A 
HETATM   10  C   UNL     1     -45.238  61.512 -48.677  1.00  0.00     0.026 A 
HETATM   11  N   UNL     1     -44.444  61.258 -49.804  1.00  0.00    -0.265 NA
HETATM   12  C   UNL     1     -47.172  62.581 -47.636  1.00  0.00     0.019 A 
HETATM   13  C   UNL     1     -46.749  62.139 -46.384  1.00  0.00     0.001 A 
HETATM   14  C   UNL     1     -45.562  61.417 -46.269  1.00  0.00     0.002 A 
HETATM   15  C   UNL     1     -44.804  61.119 -47.407  1.00  0.00     0.024 A 
HETATM   16  C   UNL     1     -45.927  59.993 -51.345  1.00  0.00     0.068 C 
HETATM   17  C   UNL     1     -45.045  58.766 -51.526  1.00  0.00     0.129 C 
HETATM   18  O   UNL     1     -44.132  56.756 -53.139  1.00  0.00    -0.273 OA
HETATM   19  H   UNL     1     -46.333  62.748 -52.030  1.00  0.00     0.164 HD
HETATM   20  H   UNL     1     -43.821  60.469 -49.659  1.00  0.00     0.130 HD
ENDROOT
BRANCH   1  21
HETATM   21  C   UNL     1     -42.327  58.005 -54.092  1.00  0.00     0.123 C 
BRANCH  21  22
HETATM   22  C   UNL     1     -41.047  57.796 -53.291  1.00  0.00     0.138 C 
BRANCH  22  23
HETATM   23  N   UNL     1     -41.000  56.460 -52.707  1.00  0.00    -0.349 N 
HETATM   24  C   UNL     1     -40.773  55.307 -53.437  1.00  0.00     0.045 A 
HETATM   25  C   UNL     1     -40.821  54.240 -52.538  1.00  0.00    -0.001 A 
HETATM   26  C   UNL     1     -40.532  55.113 -54.808  1.00  0.00     0.030 A 
HETATM   27  C   UNL     1     -41.081  54.780 -51.240  1.00  0.00    -0.027 A 
HETATM   28  C   UNL     1     -40.619  52.932 -53.032  1.00  0.00     0.014 A 
HETATM   29  C   UNL     1     -41.209  54.008 -49.972  1.00  0.00     0.051 C 
HETATM   30  C   UNL     1     -41.192  56.156 -51.375  1.00  0.00     0.015 A 
HETATM   31  C   UNL     1     -41.448  57.187 -50.329  1.00  0.00     0.069 C 
HETATM   32  C   UNL     1     -40.375  52.730 -54.394  1.00  0.00     0.001 A 
HETATM   33  C   UNL     1     -40.333  53.809 -55.269  1.00  0.00     0.002 A 
ENDBRANCH  22  23
ENDBRANCH  21  22
ENDBRANCH   1  21
TORSDOF 3
ENDMDL
