MODEL 1
REMARK VINA RESULT:      -9.5      0.000      0.000
REMARK  3 active torsions:
REMARK  status: ('A' for Active; 'I' for Inactive)
REMARK    1  A    between atoms: C_5  and  N_6 
REMARK       I    between atoms: N_6  and  C_7 
REMARK    2  A    between atoms: C_7  and  C_8 
REMARK    3  A    between atoms: C_8  and  N_9 
ROOT
HETATM    1  N   UNL     1     -42.407  57.398 -53.283  1.00  0.00    -0.256 N 
HETATM    2  C   UNL     1     -41.857  58.658 -53.293  1.00  0.00     0.330 A 
HETATM    3  O   UNL     1     -41.569  59.352 -52.334  1.00  0.00    -0.246 OA
HETATM    4  N   UNL     1     -41.740  59.045 -54.615  1.00  0.00    -0.303 N 
HETATM    5  C   UNL     1     -42.245  58.086 -55.457  1.00  0.00     0.122 A 
HETATM    6  C   UNL     1     -42.344  58.217 -56.787  1.00  0.00     0.077 A 
HETATM    7  C   UNL     1     -41.956  59.526 -57.434  1.00  0.00     0.259 A 
HETATM    8  O   UNL     1     -41.479  60.505 -56.889  1.00  0.00    -0.267 OA
HETATM    9  N   UNL     1     -42.279  59.387 -58.768  1.00  0.00    -0.322 N 
HETATM   10  C   UNL     1     -42.848  57.350 -57.862  1.00  0.00     0.009 A 
HETATM   11  C   UNL     1     -42.795  58.123 -59.032  1.00  0.00     0.046 A 
HETATM   12  C   UNL     1     -43.193  57.654 -60.269  1.00  0.00     0.030 A 
HETATM   13  C   UNL     1     -43.651  56.340 -60.338  1.00  0.00     0.002 A 
HETATM   14  C   UNL     1     -43.691  55.539 -59.184  1.00  0.00     0.001 A 
HETATM   15  C   UNL     1     -43.287  56.041 -57.939  1.00  0.00     0.015 A 
HETATM   16  C   UNL     1     -42.682  56.972 -54.557  1.00  0.00     0.280 A 
HETATM   17  O   UNL     1     -43.193  55.908 -54.860  1.00  0.00    -0.265 OA
HETATM   18  H   UNL     1     -41.399  59.957 -54.909  1.00  0.00     0.171 HD
HETATM   19  H   UNL     1     -42.136  60.119 -59.447  1.00  0.00     0.169 HD
ENDROOT
BRANCH   1  20
HETATM   20  C   UNL     1     -42.877  56.743 -52.081  1.00  0.00     0.240 C 
BRANCH  20  21
HETATM   21  C   UNL     1     -42.519  55.259 -51.998  1.00  0.00     0.240 C 
HETATM   22  N   UNL     1     -41.223  54.985 -52.409  1.00  0.00    -0.326 N 
HETATM   23  H   UNL     1     -40.594  55.780 -52.511  1.00  0.00     0.169 HD
HETATM   24  O   UNL     1     -43.370  54.429 -51.691  1.00  0.00    -0.271 OA
BRANCH  22  25
HETATM   25  C   UNL     1     -40.687  53.729 -52.763  1.00  0.00     0.034 A 
HETATM   26  C   UNL     1     -40.851  53.315 -54.091  1.00  0.00     0.030 A 
HETATM   27  C   UNL     1     -40.419  52.050 -54.503  1.00  0.00     0.009 A 
HETATM   28  C   UNL     1     -39.833  51.169 -53.590  1.00  0.00    -0.062 A 
HETATM   29  C   UNL     1     -39.374  49.807 -54.017  1.00  0.00     0.048 C 
HETATM   30  C   UNL     1     -39.642  51.594 -52.272  1.00  0.00     0.009 A 
HETATM   31  C   UNL     1     -40.067  52.864 -51.862  1.00  0.00     0.030 A 
ENDBRANCH  22  25
ENDBRANCH  20  21
ENDBRANCH   1  20
TORSDOF 3
ENDMDL
MODEL 2
REMARK VINA RESULT:      -9.4      2.064      7.761
REMARK  3 active torsions:
REMARK  status: ('A' for Active; 'I' for Inactive)
REMARK    1  A    between atoms: C_5  and  N_6 
REMARK       I    between atoms: N_6  and  C_7 
REMARK    2  A    between atoms: C_7  and  C_8 
REMARK    3  A    between atoms: C_8  and  N_9 
ROOT
HETATM    1  N   UNL     1     -41.969  56.422 -54.683  1.00  0.00    -0.256 N 
HETATM    2  C   UNL     1     -41.917  57.010 -53.440  1.00  0.00     0.330 A 
HETATM    3  O   UNL     1     -42.121  58.178 -53.160  1.00  0.00    -0.246 OA
HETATM    4  N   UNL     1     -41.519  56.038 -52.542  1.00  0.00    -0.303 N 
HETATM    5  C   UNL     1     -41.266  54.849 -53.179  1.00  0.00     0.122 A 
HETATM    6  C   UNL     1     -40.785  53.751 -52.580  1.00  0.00     0.077 A 
HETATM    7  C   UNL     1     -40.408  53.810 -51.118  1.00  0.00     0.259 A 
HETATM    8  O   UNL     1     -40.552  54.749 -50.356  1.00  0.00    -0.267 OA
HETATM    9  N   UNL     1     -39.844  52.583 -50.835  1.00  0.00    -0.322 N 
HETATM   10  C   UNL     1     -40.435  52.403 -53.051  1.00  0.00     0.009 A 
HETATM   11  C   UNL     1     -39.857  51.752 -51.950  1.00  0.00     0.046 A 
HETATM   12  C   UNL     1     -39.391  50.452 -51.996  1.00  0.00     0.030 A 
HETATM   13  C   UNL     1     -39.526  49.768 -53.202  1.00  0.00     0.002 A 
HETATM   14  C   UNL     1     -40.122  50.391 -54.311  1.00  0.00     0.001 A 
HETATM   15  C   UNL     1     -40.582  51.713 -54.240  1.00  0.00     0.015 A 
HETATM   16  C   UNL     1     -41.583  55.107 -54.620  1.00  0.00     0.280 A 
HETATM   17  O   UNL     1     -41.507  54.340 -55.563  1.00  0.00    -0.265 OA
HETATM   18  H   UNL     1     -41.357  56.213 -51.553  1.00  0.00     0.171 HD
HETATM   19  H   UNL     1     -39.488  52.340 -49.922  1.00  0.00     0.169 HD
ENDROOT
BRANCH   1  20
HETATM   20  C   UNL     1     -42.142  57.168 -55.910  1.00  0.00     0.240 C 
BRANCH  20  21
HETATM   21  C   UNL     1     -43.518  57.000 -56.554  1.00  0.00     0.240 C 
HETATM   22  N   UNL     1     -43.464  56.454 -57.828  1.00  0.00    -0.326 N 
HETATM   23  H   UNL     1     -42.579  56.035 -58.112  1.00  0.00     0.169 HD
HETATM   24  O   UNL     1     -44.525  57.421 -55.992  1.00  0.00    -0.271 OA
BRANCH  22  25
HETATM   25  C   UNL     1     -44.479  56.466 -58.807  1.00  0.00     0.034 A 
HETATM   26  C   UNL     1     -45.314  57.588 -58.849  1.00  0.00     0.030 A 
HETATM   27  C   UNL     1     -46.395  57.643 -59.737  1.00  0.00     0.009 A 
HETATM   28  C   UNL     1     -46.670  56.566 -60.584  1.00  0.00    -0.062 A 
HETATM   29  C   UNL     1     -47.830  56.607 -61.534  1.00  0.00     0.048 C 
HETATM   30  C   UNL     1     -45.818  55.457 -60.563  1.00  0.00     0.009 A 
HETATM   31  C   UNL     1     -44.732  55.407 -59.680  1.00  0.00     0.030 A 
ENDBRANCH  22  25
ENDBRANCH  20  21
ENDBRANCH   1  20
TORSDOF 3
ENDMDL
MODEL 3
REMARK VINA RESULT:      -8.9      2.520      3.151
REMARK  3 active torsions:
REMARK  status: ('A' for Active; 'I' for Inactive)
REMARK    1  A    between atoms: C_5  and  N_6 
REMARK       I    between atoms: N_6  and  C_7 
REMARK    2  A    between atoms: C_7  and  C_8 
REMARK    3  A    between atoms: C_8  and  N_9 
ROOT
HETATM    1  N   UNL     1     -42.830  56.349 -55.118  1.00  0.00    -0.256 N 
HETATM    2  C   UNL     1     -41.978  55.673 -55.960  1.00  0.00     0.330 A 
HETATM    3  O   UNL     1     -40.950  55.088 -55.666  1.00  0.00    -0.246 OA
HETATM    4  N   UNL     1     -42.462  55.826 -57.246  1.00  0.00    -0.303 N 
HETATM    5  C   UNL     1     -43.579  56.624 -57.261  1.00  0.00     0.122 A 
HETATM    6  C   UNL     1     -44.218  57.017 -58.371  1.00  0.00     0.077 A 
HETATM    7  C   UNL     1     -43.656  56.642 -59.722  1.00  0.00     0.259 A 
HETATM    8  O   UNL     1     -42.687  55.940 -59.949  1.00  0.00    -0.267 OA
HETATM    9  N   UNL     1     -44.456  57.285 -60.645  1.00  0.00    -0.322 N 
HETATM   10  C   UNL     1     -45.397  57.859 -58.626  1.00  0.00     0.009 A 
HETATM   11  C   UNL     1     -45.476  57.993 -60.020  1.00  0.00     0.046 A 
HETATM   12  C   UNL     1     -46.462  58.723 -60.657  1.00  0.00     0.030 A 
HETATM   13  C   UNL     1     -47.423  59.335 -59.855  1.00  0.00     0.002 A 
HETATM   14  C   UNL     1     -47.377  59.195 -58.457  1.00  0.00     0.001 A 
HETATM   15  C   UNL     1     -46.363  58.453 -57.835  1.00  0.00     0.015 A 
HETATM   16  C   UNL     1     -43.832  56.964 -55.825  1.00  0.00     0.280 A 
HETATM   17  O   UNL     1     -44.719  57.653 -55.353  1.00  0.00    -0.265 OA
HETATM   18  H   UNL     1     -41.997  55.460 -58.073  1.00  0.00     0.171 HD
HETATM   19  H   UNL     1     -44.306  57.221 -61.641  1.00  0.00     0.169 HD
ENDROOT
BRANCH   1  20
HETATM   20  C   UNL     1     -42.541  56.595 -53.722  1.00  0.00     0.240 C 
BRANCH  20  21
HETATM   21  C   UNL     1     -42.436  55.327 -52.874  1.00  0.00     0.240 C 
HETATM   22  N   UNL     1     -41.129  54.994 -52.549  1.00  0.00    -0.326 N 
HETATM   23  H   UNL     1     -40.418  55.706 -52.709  1.00  0.00     0.169 HD
HETATM   24  O   UNL     1     -43.434  54.658 -52.627  1.00  0.00    -0.271 OA
BRANCH  22  25
HETATM   25  C   UNL     1     -40.657  53.752 -52.075  1.00  0.00     0.034 A 
HETATM   26  C   UNL     1     -40.165  52.850 -53.026  1.00  0.00     0.030 A 
HETATM   27  C   UNL     1     -39.753  51.567 -52.648  1.00  0.00     0.009 A 
HETATM   28  C   UNL     1     -39.843  51.158 -51.315  1.00  0.00    -0.062 A 
HETATM   29  C   UNL     1     -39.414  49.783 -50.898  1.00  0.00     0.048 C 
HETATM   30  C   UNL     1     -40.307  52.070 -50.361  1.00  0.00     0.009 A 
HETATM   31  C   UNL     1     -40.711  53.356 -50.739  1.00  0.00     0.030 A 
ENDBRANCH  22  25
ENDBRANCH  20  21
ENDBRANCH   1  20
TORSDOF 3
ENDMDL
MODEL 4
REMARK VINA RESULT:      -8.8      1.744      7.332
REMARK  3 active torsions:
REMARK  status: ('A' for Active; 'I' for Inactive)
REMARK    1  A    between atoms: C_5  and  N_6 
REMARK       I    between atoms: N_6  and  C_7 
REMARK    2  A    between atoms: C_7  and  C_8 
REMARK    3  A    between atoms: C_8  and  N_9 
ROOT
HETATM    1  N   UNL     1     -41.690  57.202 -53.251  1.00  0.00    -0.256 N 
HETATM    2  C   UNL     1     -41.915  57.532 -51.934  1.00  0.00     0.330 A 
HETATM    3  O   UNL     1     -42.202  58.625 -51.480  1.00  0.00    -0.246 OA
HETATM    4  N   UNL     1     -41.691  56.395 -51.182  1.00  0.00    -0.303 N 
HETATM    5  C   UNL     1     -41.281  55.351 -51.972  1.00  0.00     0.122 A 
HETATM    6  C   UNL     1     -40.911  54.148 -51.514  1.00  0.00     0.077 A 
HETATM    7  C   UNL     1     -40.852  53.910 -50.023  1.00  0.00     0.259 A 
HETATM    8  O   UNL     1     -41.174  54.682 -49.139  1.00  0.00    -0.267 OA
HETATM    9  N   UNL     1     -40.330  52.641 -49.874  1.00  0.00    -0.322 N 
HETATM   10  C   UNL     1     -40.437  52.913 -52.156  1.00  0.00     0.009 A 
HETATM   11  C   UNL     1     -40.088  52.047 -51.108  1.00  0.00     0.046 A 
HETATM   12  C   UNL     1     -39.592  50.774 -51.310  1.00  0.00     0.030 A 
HETATM   13  C   UNL     1     -39.453  50.343 -52.627  1.00  0.00     0.002 A 
HETATM   14  C   UNL     1     -39.818  51.184 -53.693  1.00  0.00     0.001 A 
HETATM   15  C   UNL     1     -40.314  52.474 -53.461  1.00  0.00     0.015 A 
HETATM   16  C   UNL     1     -41.295  55.894 -53.368  1.00  0.00     0.280 A 
HETATM   17  O   UNL     1     -41.003  55.327 -54.406  1.00  0.00    -0.265 OA
HETATM   18  H   UNL     1     -41.746  56.369 -50.166  1.00  0.00     0.171 HD
HETATM   19  H   UNL     1     -40.168  52.216 -48.973  1.00  0.00     0.169 HD
ENDROOT
BRANCH   1  20
HETATM   20  C   UNL     1     -41.620  58.179 -54.316  1.00  0.00     0.240 C 
BRANCH  20  21
HETATM   21  C   UNL     1     -42.763  58.084 -55.326  1.00  0.00     0.240 C 
HETATM   22  N   UNL     1     -42.757  56.901 -56.051  1.00  0.00    -0.326 N 
HETATM   23  H   UNL     1     -42.156  56.154 -55.706  1.00  0.00     0.169 HD
HETATM   24  O   UNL     1     -43.517  59.036 -55.506  1.00  0.00    -0.271 OA
BRANCH  22  25
HETATM   25  C   UNL     1     -43.444  56.631 -57.253  1.00  0.00     0.034 A 
HETATM   26  C   UNL     1     -43.200  55.397 -57.866  1.00  0.00     0.030 A 
HETATM   27  C   UNL     1     -43.779  55.085 -59.101  1.00  0.00     0.009 A 
HETATM   28  C   UNL     1     -44.598  56.011 -59.753  1.00  0.00    -0.062 A 
HETATM   29  C   UNL     1     -45.218  55.693 -61.081  1.00  0.00     0.048 C 
HETATM   30  C   UNL     1     -44.866  57.232 -59.126  1.00  0.00     0.009 A 
HETATM   31  C   UNL     1     -44.292  57.540 -57.886  1.00  0.00     0.030 A 
ENDBRANCH  22  25
ENDBRANCH  20  21
ENDBRANCH   1  20
TORSDOF 3
ENDMDL
MODEL 5
REMARK VINA RESULT:      -8.7      1.737      2.863
REMARK  3 active torsions:
REMARK  status: ('A' for Active; 'I' for Inactive)
REMARK    1  A    between atoms: C_5  and  N_6 
REMARK       I    between atoms: N_6  and  C_7 
REMARK    2  A    between atoms: C_7  and  C_8 
REMARK    3  A    between atoms: C_8  and  N_9 
ROOT
HETATM    1  N   UNL     1     -42.972  56.739 -54.509  1.00  0.00    -0.256 N 
HETATM    2  C   UNL     1     -43.477  55.598 -55.088  1.00  0.00     0.330 A 
HETATM    3  O   UNL     1     -43.766  54.550 -54.537  1.00  0.00    -0.246 OA
HETATM    4  N   UNL     1     -43.543  55.822 -56.450  1.00  0.00    -0.303 N 
HETATM    5  C   UNL     1     -43.050  57.061 -56.772  1.00  0.00     0.122 A 
HETATM    6  C   UNL     1     -42.909  57.524 -58.022  1.00  0.00     0.077 A 
HETATM    7  C   UNL     1     -43.232  56.619 -59.187  1.00  0.00     0.259 A 
HETATM    8  O   UNL     1     -43.689  55.490 -59.141  1.00  0.00    -0.267 OA
HETATM    9  N   UNL     1     -42.877  57.330 -60.315  1.00  0.00    -0.322 N 
HETATM   10  C   UNL     1     -42.406  58.782 -58.593  1.00  0.00     0.009 A 
HETATM   11  C   UNL     1     -42.399  58.593 -59.984  1.00  0.00     0.046 A 
HETATM   12  C   UNL     1     -41.984  59.561 -60.878  1.00  0.00     0.030 A 
HETATM   13  C   UNL     1     -41.571  60.783 -60.351  1.00  0.00     0.002 A 
HETATM   14  C   UNL     1     -41.592  61.003 -58.963  1.00  0.00     0.001 A 
HETATM   15  C   UNL     1     -42.012  60.002 -58.077  1.00  0.00     0.015 A 
HETATM   16  C   UNL     1     -42.678  57.682 -55.461  1.00  0.00     0.280 A 
HETATM   17  O   UNL     1     -42.197  58.782 -55.251  1.00  0.00    -0.265 OA
HETATM   18  H   UNL     1     -43.843  55.122 -57.124  1.00  0.00     0.171 HD
HETATM   19  H   UNL     1     -42.976  56.963 -61.249  1.00  0.00     0.169 HD
ENDROOT
BRANCH   1  20
HETATM   20  C   UNL     1     -42.560  56.815 -53.125  1.00  0.00     0.240 C 
BRANCH  20  21
HETATM   21  C   UNL     1     -42.099  55.481 -52.537  1.00  0.00     0.240 C 
HETATM   22  N   UNL     1     -40.995  54.949 -53.186  1.00  0.00    -0.326 N 
HETATM   23  H   UNL     1     -40.488  55.569 -53.817  1.00  0.00     0.169 HD
HETATM   24  O   UNL     1     -42.745  54.935 -51.647  1.00  0.00    -0.271 OA
BRANCH  22  25
HETATM   25  C   UNL     1     -40.524  53.621 -53.123  1.00  0.00     0.034 A 
HETATM   26  C   UNL     1     -40.631  52.848 -54.285  1.00  0.00     0.030 A 
HETATM   27  C   UNL     1     -40.262  51.498 -54.283  1.00  0.00     0.009 A 
HETATM   28  C   UNL     1     -39.796  50.894 -53.112  1.00  0.00    -0.062 A 
HETATM   29  C   UNL     1     -39.405  49.446 -53.094  1.00  0.00     0.048 C 
HETATM   30  C   UNL     1     -39.661  51.674 -51.959  1.00  0.00     0.009 A 
HETATM   31  C   UNL     1     -40.023  53.027 -51.965  1.00  0.00     0.030 A 
ENDBRANCH  22  25
ENDBRANCH  20  21
ENDBRANCH   1  20
TORSDOF 3
ENDMDL
MODEL 6
REMARK VINA RESULT:      -8.6     15.289     18.980
REMARK  3 active torsions:
REMARK  status: ('A' for Active; 'I' for Inactive)
REMARK    1  A    between atoms: C_5  and  N_6 
REMARK       I    between atoms: N_6  and  C_7 
REMARK    2  A    between atoms: C_7  and  C_8 
REMARK    3  A    between atoms: C_8  and  N_9 
ROOT
HETATM    1  N   UNL     1     -36.002  41.313 -52.622  1.00  0.00    -0.256 N 
HETATM    2  C   UNL     1     -37.132  40.549 -52.442  1.00  0.00     0.330 A 
HETATM    3  O   UNL     1     -38.207  40.669 -53.001  1.00  0.00    -0.246 OA
HETATM    4  N   UNL     1     -36.856  39.636 -51.442  1.00  0.00    -0.303 N 
HETATM    5  C   UNL     1     -35.592  39.820 -50.939  1.00  0.00     0.122 A 
HETATM    6  C   UNL     1     -35.077  39.139 -49.906  1.00  0.00     0.077 A 
HETATM    7  C   UNL     1     -35.944  38.145 -49.169  1.00  0.00     0.259 A 
HETATM    8  O   UNL     1     -37.084  37.816 -49.440  1.00  0.00    -0.267 OA
HETATM    9  N   UNL     1     -35.179  37.708 -48.106  1.00  0.00    -0.322 N 
HETATM   10  C   UNL     1     -33.785  39.172 -49.206  1.00  0.00     0.009 A 
HETATM   11  C   UNL     1     -33.918  38.295 -48.118  1.00  0.00     0.046 A 
HETATM   12  C   UNL     1     -32.905  38.054 -47.210  1.00  0.00     0.030 A 
HETATM   13  C   UNL     1     -31.695  38.713 -47.413  1.00  0.00     0.002 A 
HETATM   14  C   UNL     1     -31.530  39.578 -48.508  1.00  0.00     0.001 A 
HETATM   15  C   UNL     1     -32.576  39.810 -49.412  1.00  0.00     0.015 A 
HETATM   16  C   UNL     1     -35.014  40.942 -51.745  1.00  0.00     0.280 A 
HETATM   17  O   UNL     1     -33.912  41.452 -51.654  1.00  0.00    -0.265 OA
HETATM   18  H   UNL     1     -37.536  38.973 -51.078  1.00  0.00     0.171 HD
HETATM   19  H   UNL     1     -35.511  37.038 -47.429  1.00  0.00     0.169 HD
ENDROOT
BRANCH   1  20
HETATM   20  C   UNL     1     -35.970  42.509 -53.435  1.00  0.00     0.240 C 
BRANCH  20  21
HETATM   21  C   UNL     1     -35.828  42.243 -54.933  1.00  0.00     0.240 C 
HETATM   22  N   UNL     1     -37.045  42.174 -55.594  1.00  0.00    -0.326 N 
HETATM   23  H   UNL     1     -37.864  42.508 -55.088  1.00  0.00     0.169 HD
HETATM   24  O   UNL     1     -34.726  42.017 -55.425  1.00  0.00    -0.271 OA
BRANCH  22  25
HETATM   25  C   UNL     1     -37.294  41.633 -56.873  1.00  0.00     0.034 A 
HETATM   26  C   UNL     1     -37.891  40.368 -56.928  1.00  0.00     0.030 A 
HETATM   27  C   UNL     1     -38.098  39.728 -58.156  1.00  0.00     0.009 A 
HETATM   28  C   UNL     1     -37.693  40.335 -59.348  1.00  0.00    -0.062 A 
HETATM   29  C   UNL     1     -37.900  39.655 -60.669  1.00  0.00     0.048 C 
HETATM   30  C   UNL     1     -37.124  41.611 -59.294  1.00  0.00     0.009 A 
HETATM   31  C   UNL     1     -36.925  42.254 -58.066  1.00  0.00     0.030 A 
ENDBRANCH  22  25
ENDBRANCH  20  21
ENDBRANCH   1  20
TORSDOF 3
ENDMDL
MODEL 7
REMARK VINA RESULT:      -8.4      1.881      2.447
REMARK  3 active torsions:
REMARK  status: ('A' for Active; 'I' for Inactive)
REMARK    1  A    between atoms: C_5  and  N_6 
REMARK       I    between atoms: N_6  and  C_7 
REMARK    2  A    between atoms: C_7  and  C_8 
REMARK    3  A    between atoms: C_8  and  N_9 
ROOT
HETATM    1  N   UNL     1     -43.187  57.838 -53.255  1.00  0.00    -0.256 N 
HETATM    2  C   UNL     1     -44.554  57.897 -53.115  1.00  0.00     0.330 A 
HETATM    3  O   UNL     1     -45.201  57.796 -52.087  1.00  0.00    -0.246 OA
HETATM    4  N   UNL     1     -45.093  58.029 -54.380  1.00  0.00    -0.303 N 
HETATM    5  C   UNL     1     -44.112  58.008 -55.340  1.00  0.00     0.122 A 
HETATM    6  C   UNL     1     -44.337  58.033 -56.660  1.00  0.00     0.077 A 
HETATM    7  C   UNL     1     -45.759  58.002 -57.169  1.00  0.00     0.259 A 
HETATM    8  O   UNL     1     -46.781  58.025 -56.507  1.00  0.00    -0.267 OA
HETATM    9  N   UNL     1     -45.656  57.917 -58.543  1.00  0.00    -0.322 N 
HETATM   10  C   UNL     1     -43.466  58.009 -57.845  1.00  0.00     0.009 A 
HETATM   11  C   UNL     1     -44.327  57.925 -58.950  1.00  0.00     0.046 A 
HETATM   12  C   UNL     1     -43.880  57.877 -60.256  1.00  0.00     0.030 A 
HETATM   13  C   UNL     1     -42.504  57.932 -60.464  1.00  0.00     0.002 A 
HETATM   14  C   UNL     1     -41.624  58.041 -59.374  1.00  0.00     0.001 A 
HETATM   15  C   UNL     1     -42.102  58.082 -58.057  1.00  0.00     0.015 A 
HETATM   16  C   UNL     1     -42.827  57.893 -54.578  1.00  0.00     0.280 A 
HETATM   17  O   UNL     1     -41.690  57.839 -55.011  1.00  0.00    -0.265 OA
HETATM   18  H   UNL     1     -46.091  58.053 -54.570  1.00  0.00     0.171 HD
HETATM   19  H   UNL     1     -46.460  57.870 -59.152  1.00  0.00     0.169 HD
ENDROOT
BRANCH   1  20
HETATM   20  C   UNL     1     -42.289  57.491 -52.175  1.00  0.00     0.240 C 
BRANCH  20  21
HETATM   21  C   UNL     1     -42.042  55.989 -52.027  1.00  0.00     0.240 C 
HETATM   22  N   UNL     1     -40.973  55.532 -52.783  1.00  0.00    -0.326 N 
HETATM   23  H   UNL     1     -40.350  56.238 -53.173  1.00  0.00     0.169 HD
HETATM   24  O   UNL     1     -42.812  55.293 -51.371  1.00  0.00    -0.271 OA
BRANCH  22  25
HETATM   25  C   UNL     1     -40.680  54.197 -53.131  1.00  0.00     0.034 A 
HETATM   26  C   UNL     1     -40.261  53.345 -52.102  1.00  0.00     0.030 A 
HETATM   27  C   UNL     1     -39.875  52.029 -52.376  1.00  0.00     0.009 A 
HETATM   28  C   UNL     1     -39.883  51.548 -53.688  1.00  0.00    -0.062 A 
HETATM   29  C   UNL     1     -39.462  50.141 -53.997  1.00  0.00     0.048 C 
HETATM   30  C   UNL     1     -40.330  52.389 -54.712  1.00  0.00     0.009 A 
HETATM   31  C   UNL     1     -40.725  53.704 -54.434  1.00  0.00     0.030 A 
ENDBRANCH  22  25
ENDBRANCH  20  21
ENDBRANCH   1  20
TORSDOF 3
ENDMDL
MODEL 8
REMARK VINA RESULT:      -8.4      1.803      2.089
REMARK  3 active torsions:
REMARK  status: ('A' for Active; 'I' for Inactive)
REMARK    1  A    between atoms: C_5  and  N_6 
REMARK       I    between atoms: N_6  and  C_7 
REMARK    2  A    between atoms: C_7  and  C_8 
REMARK    3  A    between atoms: C_8  and  N_9 
ROOT
HETATM    1  N   UNL     1     -42.571  57.413 -52.992  1.00  0.00    -0.256 N 
HETATM    2  C   UNL     1     -41.439  58.134 -53.295  1.00  0.00     0.330 A 
HETATM    3  O   UNL     1     -40.444  58.280 -52.608  1.00  0.00    -0.246 OA
HETATM    4  N   UNL     1     -41.652  58.738 -54.520  1.00  0.00    -0.303 N 
HETATM    5  C   UNL     1     -42.910  58.464 -54.995  1.00  0.00     0.122 A 
HETATM    6  C   UNL     1     -43.430  58.979 -56.117  1.00  0.00     0.077 A 
HETATM    7  C   UNL     1     -42.635  59.997 -56.902  1.00  0.00     0.259 A 
HETATM    8  O   UNL     1     -41.503  60.383 -56.675  1.00  0.00    -0.267 OA
HETATM    9  N   UNL     1     -43.474  60.416 -57.915  1.00  0.00    -0.322 N 
HETATM   10  C   UNL     1     -44.725  58.841 -56.799  1.00  0.00     0.009 A 
HETATM   11  C   UNL     1     -44.692  59.748 -57.869  1.00  0.00     0.046 A 
HETATM   12  C   UNL     1     -45.740  59.916 -58.753  1.00  0.00     0.030 A 
HETATM   13  C   UNL     1     -46.870  59.124 -58.563  1.00  0.00     0.002 A 
HETATM   14  C   UNL     1     -46.917  58.192 -57.512  1.00  0.00     0.001 A 
HETATM   15  C   UNL     1     -45.842  58.045 -56.625  1.00  0.00     0.015 A 
HETATM   16  C   UNL     1     -43.522  57.560 -53.969  1.00  0.00     0.280 A 
HETATM   17  O   UNL     1     -44.633  57.060 -53.965  1.00  0.00    -0.265 OA
HETATM   18  H   UNL     1     -40.988  59.368 -54.963  1.00  0.00     0.171 HD
HETATM   19  H   UNL     1     -43.206  61.110 -58.596  1.00  0.00     0.169 HD
ENDROOT
BRANCH   1  20
HETATM   20  C   UNL     1     -42.811  56.814 -51.697  1.00  0.00     0.240 C 
BRANCH  20  21
HETATM   21  C   UNL     1     -42.440  55.333 -51.616  1.00  0.00     0.240 C 
HETATM   22  N   UNL     1     -41.353  54.997 -52.409  1.00  0.00    -0.326 N 
HETATM   23  H   UNL     1     -40.797  55.767 -52.778  1.00  0.00     0.169 HD
HETATM   24  O   UNL     1     -43.137  54.550 -50.978  1.00  0.00    -0.271 OA
BRANCH  22  25
HETATM   25  C   UNL     1     -40.959  53.705 -52.817  1.00  0.00     0.034 A 
HETATM   26  C   UNL     1     -40.098  53.001 -51.967  1.00  0.00     0.030 A 
HETATM   27  C   UNL     1     -39.597  51.747 -52.336  1.00  0.00     0.009 A 
HETATM   28  C   UNL     1     -39.934  51.186 -53.571  1.00  0.00    -0.062 A 
HETATM   29  C   UNL     1     -39.397  49.848 -53.982  1.00  0.00     0.048 C 
HETATM   30  C   UNL     1     -40.818  51.877 -54.406  1.00  0.00     0.009 A 
HETATM   31  C   UNL     1     -41.325  53.127 -54.032  1.00  0.00     0.030 A 
ENDBRANCH  22  25
ENDBRANCH  20  21
ENDBRANCH   1  20
TORSDOF 3
ENDMDL
MODEL 9
REMARK VINA RESULT:      -8.3      2.018      7.472
REMARK  3 active torsions:
REMARK  status: ('A' for Active; 'I' for Inactive)
REMARK    1  A    between atoms: C_5  and  N_6 
REMARK       I    between atoms: N_6  and  C_7 
REMARK    2  A    between atoms: C_7  and  C_8 
REMARK    3  A    between atoms: C_8  and  N_9 
ROOT
HETATM    1  N   UNL     1     -42.170  58.954 -52.716  1.00  0.00    -0.256 N 
HETATM    2  C   UNL     1     -42.397  58.931 -51.359  1.00  0.00     0.330 A 
HETATM    3  O   UNL     1     -42.688  59.868 -50.638  1.00  0.00    -0.246 OA
HETATM    4  N   UNL     1     -42.170  57.638 -50.926  1.00  0.00    -0.303 N 
HETATM    5  C   UNL     1     -41.756  56.836 -51.960  1.00  0.00     0.122 A 
HETATM    6  C   UNL     1     -41.381  55.556 -51.828  1.00  0.00     0.077 A 
HETATM    7  C   UNL     1     -41.323  54.940 -50.449  1.00  0.00     0.259 A 
HETATM    8  O   UNL     1     -41.649  55.457 -49.396  1.00  0.00    -0.267 OA
HETATM    9  N   UNL     1     -40.797  53.677 -50.633  1.00  0.00    -0.322 N 
HETATM   10  C   UNL     1     -40.903  54.531 -52.767  1.00  0.00     0.009 A 
HETATM   11  C   UNL     1     -40.552  53.425 -51.978  1.00  0.00     0.046 A 
HETATM   12  C   UNL     1     -40.051  52.248 -52.502  1.00  0.00     0.030 A 
HETATM   13  C   UNL     1     -39.911  52.174 -53.886  1.00  0.00     0.002 A 
HETATM   14  C   UNL     1     -40.277  53.261 -54.699  1.00  0.00     0.001 A 
HETATM   15  C   UNL     1     -40.778  54.446 -54.141  1.00  0.00     0.015 A 
HETATM   16  C   UNL     1     -41.770  57.722 -53.167  1.00  0.00     0.280 A 
HETATM   17  O   UNL     1     -41.476  57.444 -54.316  1.00  0.00    -0.265 OA
HETATM   18  H   UNL     1     -42.225  57.350 -49.953  1.00  0.00     0.171 HD
HETATM   19  H   UNL     1     -40.634  53.035 -49.873  1.00  0.00     0.169 HD
ENDROOT
BRANCH   1  20
HETATM   20  C   UNL     1     -42.102  60.173 -53.492  1.00  0.00     0.240 C 
BRANCH  20  21
HETATM   21  C   UNL     1     -42.682  60.050 -54.901  1.00  0.00     0.240 C 
HETATM   22  N   UNL     1     -41.712  59.900 -55.881  1.00  0.00    -0.326 N 
HETATM   23  H   UNL     1     -40.768  59.677 -55.565  1.00  0.00     0.169 HD
HETATM   24  O   UNL     1     -43.887  60.182 -55.093  1.00  0.00    -0.271 OA
BRANCH  22  25
HETATM   25  C   UNL     1     -41.865  60.083 -57.271  1.00  0.00     0.034 A 
HETATM   26  C   UNL     1     -42.112  58.942 -58.043  1.00  0.00     0.030 A 
HETATM   27  C   UNL     1     -42.196  59.026 -59.437  1.00  0.00     0.009 A 
HETATM   28  C   UNL     1     -42.017  60.252 -60.084  1.00  0.00    -0.062 A 
HETATM   29  C   UNL     1     -42.096  60.355 -61.578  1.00  0.00     0.048 C 
HETATM   30  C   UNL     1     -41.801  61.397 -59.311  1.00  0.00     0.009 A 
HETATM   31  C   UNL     1     -41.725  61.312 -57.915  1.00  0.00     0.030 A 
ENDBRANCH  22  25
ENDBRANCH  20  21
ENDBRANCH   1  20
TORSDOF 3
ENDMDL
MODEL 10
REMARK VINA RESULT:      -8.1     15.819     18.443
REMARK  3 active torsions:
REMARK  status: ('A' for Active; 'I' for Inactive)
REMARK    1  A    between atoms: C_5  and  N_6 
REMARK       I    between atoms: N_6  and  C_7 
REMARK    2  A    between atoms: C_7  and  C_8 
REMARK    3  A    between atoms: C_8  and  N_9 
ROOT
HETATM    1  N   UNL     1     -35.962  41.401 -56.034  1.00  0.00    -0.256 N 
HETATM    2  C   UNL     1     -37.233  41.348 -55.510  1.00  0.00     0.330 A 
HETATM    3  O   UNL     1     -38.279  41.636 -56.066  1.00  0.00    -0.246 OA
HETATM    4  N   UNL     1     -37.118  40.964 -54.188  1.00  0.00    -0.303 N 
HETATM    5  C   UNL     1     -35.802  40.813 -53.829  1.00  0.00     0.122 A 
HETATM    6  C   UNL     1     -35.378  40.528 -52.591  1.00  0.00     0.077 A 
HETATM    7  C   UNL     1     -36.383  40.436 -51.467  1.00  0.00     0.259 A 
HETATM    8  O   UNL     1     -37.594  40.526 -51.551  1.00  0.00    -0.267 OA
HETATM    9  N   UNL     1     -35.636  40.254 -50.320  1.00  0.00    -0.322 N 
HETATM   10  C   UNL     1     -34.051  40.335 -51.986  1.00  0.00     0.009 A 
HETATM   11  C   UNL     1     -34.278  40.189 -50.609  1.00  0.00     0.046 A 
HETATM   12  C   UNL     1     -33.264  39.989 -49.691  1.00  0.00     0.030 A 
HETATM   13  C   UNL     1     -31.963  39.916 -50.182  1.00  0.00     0.002 A 
HETATM   14  C   UNL     1     -31.714  40.036 -51.560  1.00  0.00     0.001 A 
HETATM   15  C   UNL     1     -32.760  40.245 -52.470  1.00  0.00     0.015 A 
HETATM   16  C   UNL     1     -35.026  41.095 -55.079  1.00  0.00     0.280 A 
HETATM   17  O   UNL     1     -33.818  41.082 -55.242  1.00  0.00    -0.265 OA
HETATM   18  H   UNL     1     -37.907  40.887 -53.550  1.00  0.00     0.171 HD
HETATM   19  H   UNL     1     -36.050  40.169 -49.404  1.00  0.00     0.169 HD
ENDROOT
BRANCH   1  20
HETATM   20  C   UNL     1     -35.657  41.965 -57.330  1.00  0.00     0.240 C 
BRANCH  20  21
HETATM   21  C   UNL     1     -36.694  41.650 -58.408  1.00  0.00     0.240 C 
HETATM   22  N   UNL     1     -36.916  40.292 -58.574  1.00  0.00    -0.326 N 
HETATM   23  H   UNL     1     -36.551  39.673 -57.850  1.00  0.00     0.169 HD
HETATM   24  O   UNL     1     -37.171  42.549 -59.096  1.00  0.00    -0.271 OA
BRANCH  22  25
HETATM   25  C   UNL     1     -37.540  39.654 -59.667  1.00  0.00     0.034 A 
HETATM   26  C   UNL     1     -38.749  38.994 -59.418  1.00  0.00     0.030 A 
HETATM   27  C   UNL     1     -39.390  38.269 -60.429  1.00  0.00     0.009 A 
HETATM   28  C   UNL     1     -38.821  38.178 -61.703  1.00  0.00    -0.062 A 
HETATM   29  C   UNL     1     -39.493  37.397 -62.793  1.00  0.00     0.048 C 
HETATM   30  C   UNL     1     -37.629  38.862 -61.959  1.00  0.00     0.009 A 
HETATM   31  C   UNL     1     -36.993  39.594 -60.948  1.00  0.00     0.030 A 
ENDBRANCH  22  25
ENDBRANCH  20  21
ENDBRANCH   1  20
TORSDOF 3
ENDMDL
