MODEL 1
REMARK VINA RESULT:      -8.4      0.000      0.000
REMARK  8 active torsions:
REMARK  status: ('A' for Active; 'I' for Inactive)
REMARK    1  A    between atoms: C_4  and  O_5 
REMARK    2  A    between atoms: O_5  and  C_6 
REMARK    3  A    between atoms: C_6  and  C_7 
REMARK       I    between atoms: C_7  and  N_8 
REMARK    4  A    between atoms: N_8  and  N_9 
REMARK       I    between atoms: N_9  and  C_10 
REMARK    5  A    between atoms: C_10  and  C_11 
REMARK    6  A    between atoms: C_11  and  C_12 
REMARK    7  A    between atoms: C_12  and  N_13 
REMARK    8  A    between atoms: C_12  and  C_17 
REMARK       I    between atoms: N_13  and  C_14 
REMARK       I    between atoms: C_14  and  N_15 
ROOT
HETATM    1  N   UNL     1     -41.584  56.387 -55.550  1.00  0.00    -0.267 N 
HETATM    2  C   UNL     1     -41.561  55.013 -55.405  1.00  0.00     0.238 C 
HETATM    3  O   UNL     1     -42.462  54.273 -55.800  1.00  0.00    -0.272 OA
HETATM    4  H   UNL     1     -40.737  56.946 -55.510  1.00  0.00     0.190 HD
ENDROOT
BRANCH   2   5
HETATM    5  C   UNL     1     -40.329  54.479 -54.707  1.00  0.00     0.134 C 
BRANCH   5   6
HETATM    6  C   UNL     1     -40.658  53.866 -53.334  1.00  0.00     0.129 C 
BRANCH   6   7
HETATM    7  N   UNL     1     -42.081  53.974 -53.037  1.00  0.00    -0.339 N 
HETATM    8  C   UNL     1     -42.538  54.719 -51.994  1.00  0.00     0.292 C 
HETATM    9  N   UNL     1     -43.888  54.666 -51.876  1.00  0.00    -0.254 NA
HETATM   10  O   UNL     1     -41.852  55.377 -51.228  1.00  0.00    -0.254 OA
HETATM   11  H   UNL     1     -44.408  54.681 -52.741  1.00  0.00     0.128 HD
HETATM   12  H   UNL     1     -44.240  55.307 -51.175  1.00  0.00     0.128 HD
HETATM   13  H   UNL     1     -42.696  53.235 -53.351  1.00  0.00     0.164 HD
ENDBRANCH   6   7
BRANCH   6  14
HETATM   14  C   UNL     1     -40.244  52.400 -53.202  1.00  0.00    -0.013 A 
HETATM   15  C   UNL     1     -39.860  51.852 -51.960  1.00  0.00     0.042 A 
HETATM   16 CL   UNL     1     -39.797  52.794 -50.511  1.00  0.00    -0.084 Cl
HETATM   17  C   UNL     1     -39.529  50.497 -51.843  1.00  0.00     0.024 A 
HETATM   18  C   UNL     1     -39.578  49.660 -52.954  1.00  0.00     0.002 A 
HETATM   19  C   UNL     1     -39.969  50.175 -54.186  1.00  0.00     0.001 A 
HETATM   20  C   UNL     1     -40.307  51.526 -54.307  1.00  0.00     0.011 A 
ENDBRANCH   6  14
ENDBRANCH   5   6
ENDBRANCH   2   5
BRANCH   1  21
HETATM   21  N   UNL     1     -42.657  56.949 -56.253  1.00  0.00    -0.266 N 
HETATM   22  C   UNL     1     -42.559  58.277 -56.631  1.00  0.00     0.260 C 
HETATM   23  O   UNL     1     -41.686  59.033 -56.206  1.00  0.00    -0.269 OA
HETATM   24  H   UNL     1     -43.222  56.293 -56.790  1.00  0.00     0.190 HD
BRANCH  22  25
HETATM   25  C   UNL     1     -43.625  58.710 -57.627  1.00  0.00     0.280 C 
BRANCH  25  26
HETATM   26  O   UNL     1     -43.240  58.253 -58.921  1.00  0.00    -0.342 OA
BRANCH  26  27
HETATM   27  C   UNL     1     -44.013  57.250 -59.437  1.00  0.00     0.069 A 
HETATM   28  C   UNL     1     -45.321  57.410 -59.902  1.00  0.00     0.043 A 
HETATM   29  C   UNL     1     -46.025  56.316 -60.430  1.00  0.00    -0.059 A 
HETATM   30  C   UNL     1     -47.415  56.487 -60.968  1.00  0.00     0.048 C 
HETATM   31  C   UNL     1     -45.393  55.068 -60.508  1.00  0.00     0.007 A 
HETATM   32  C   UNL     1     -44.082  54.913 -60.059  1.00  0.00     0.003 A 
HETATM   33  C   UNL     1     -43.393  56.005 -59.532  1.00  0.00     0.037 A 
ENDBRANCH  26  27
ENDBRANCH  25  26
ENDBRANCH  22  25
ENDBRANCH   1  21
TORSDOF 8
ENDMDL
MODEL 2
REMARK VINA RESULT:      -8.3      3.026      8.312
REMARK  8 active torsions:
REMARK  status: ('A' for Active; 'I' for Inactive)
REMARK    1  A    between atoms: C_4  and  O_5 
REMARK    2  A    between atoms: O_5  and  C_6 
REMARK    3  A    between atoms: C_6  and  C_7 
REMARK       I    between atoms: C_7  and  N_8 
REMARK    4  A    between atoms: N_8  and  N_9 
REMARK       I    between atoms: N_9  and  C_10 
REMARK    5  A    between atoms: C_10  and  C_11 
REMARK    6  A    between atoms: C_11  and  C_12 
REMARK    7  A    between atoms: C_12  and  N_13 
REMARK    8  A    between atoms: C_12  and  C_17 
REMARK       I    between atoms: N_13  and  C_14 
REMARK       I    between atoms: C_14  and  N_15 
ROOT
HETATM    1  N   UNL     1     -45.140  56.606 -54.733  1.00  0.00    -0.267 N 
HETATM    2  C   UNL     1     -44.888  57.952 -54.923  1.00  0.00     0.238 C 
HETATM    3  O   UNL     1     -44.158  58.616 -54.187  1.00  0.00    -0.272 OA
HETATM    4  H   UNL     1     -45.474  56.011 -55.485  1.00  0.00     0.190 HD
ENDROOT
BRANCH   2   5
HETATM    5  C   UNL     1     -45.592  58.557 -56.117  1.00  0.00     0.134 C 
BRANCH   5   6
HETATM    6  C   UNL     1     -44.647  58.737 -57.320  1.00  0.00     0.129 C 
BRANCH   6   7
HETATM    7  N   UNL     1     -43.315  59.141 -56.885  1.00  0.00    -0.339 N 
HETATM    8  C   UNL     1     -42.900  60.434 -56.964  1.00  0.00     0.292 C 
HETATM    9  N   UNL     1     -41.624  60.592 -56.534  1.00  0.00    -0.254 NA
HETATM   10  O   UNL     1     -43.564  61.377 -57.364  1.00  0.00    -0.254 OA
HETATM   11  H   UNL     1     -41.360  60.052 -55.724  1.00  0.00     0.128 HD
HETATM   12  H   UNL     1     -41.351  61.567 -56.484  1.00  0.00     0.128 HD
HETATM   13  H   UNL     1     -42.582  58.445 -56.873  1.00  0.00     0.164 HD
ENDBRANCH   6   7
BRANCH   6  14
HETATM   14  C   UNL     1     -44.517  57.487 -58.190  1.00  0.00    -0.013 A 
HETATM   15  C   UNL     1     -45.491  57.156 -59.154  1.00  0.00     0.042 A 
HETATM   16 CL   UNL     1     -46.911  58.112 -59.402  1.00  0.00    -0.084 Cl
HETATM   17  C   UNL     1     -45.338  56.035 -59.978  1.00  0.00     0.024 A 
HETATM   18  C   UNL     1     -44.212  55.224 -59.863  1.00  0.00     0.002 A 
HETATM   19  C   UNL     1     -43.230  55.540 -58.930  1.00  0.00     0.001 A 
HETATM   20  C   UNL     1     -43.376  56.662 -58.109  1.00  0.00     0.011 A 
ENDBRANCH   6  14
ENDBRANCH   5   6
ENDBRANCH   2   5
BRANCH   1  21
HETATM   21  N   UNL     1     -44.466  55.958 -53.691  1.00  0.00    -0.266 N 
HETATM   22  C   UNL     1     -43.514  55.011 -54.026  1.00  0.00     0.260 C 
HETATM   23  O   UNL     1     -43.381  54.566 -55.167  1.00  0.00    -0.269 OA
HETATM   24  H   UNL     1     -44.399  56.481 -52.820  1.00  0.00     0.190 HD
BRANCH  22  25
HETATM   25  C   UNL     1     -42.641  54.580 -52.857  1.00  0.00     0.280 C 
BRANCH  25  26
HETATM   26  O   UNL     1     -41.306  54.420 -53.330  1.00  0.00    -0.342 OA
BRANCH  26  27
HETATM   27  C   UNL     1     -40.736  53.206 -53.064  1.00  0.00     0.069 A 
HETATM   28  C   UNL     1     -40.528  52.199 -54.009  1.00  0.00     0.043 A 
HETATM   29  C   UNL     1     -39.918  50.990 -53.635  1.00  0.00    -0.059 A 
HETATM   30  C   UNL     1     -39.654  49.918 -54.652  1.00  0.00     0.048 C 
HETATM   31  C   UNL     1     -39.498  50.816 -52.310  1.00  0.00     0.007 A 
HETATM   32  C   UNL     1     -39.692  51.829 -51.372  1.00  0.00     0.003 A 
HETATM   33  C   UNL     1     -40.303  53.023 -51.751  1.00  0.00     0.037 A 
ENDBRANCH  26  27
ENDBRANCH  25  26
ENDBRANCH  22  25
ENDBRANCH   1  21
TORSDOF 8
ENDMDL
MODEL 3
REMARK VINA RESULT:      -8.2      3.201      9.141
REMARK  8 active torsions:
REMARK  status: ('A' for Active; 'I' for Inactive)
REMARK    1  A    between atoms: C_4  and  O_5 
REMARK    2  A    between atoms: O_5  and  C_6 
REMARK    3  A    between atoms: C_6  and  C_7 
REMARK       I    between atoms: C_7  and  N_8 
REMARK    4  A    between atoms: N_8  and  N_9 
REMARK       I    between atoms: N_9  and  C_10 
REMARK    5  A    between atoms: C_10  and  C_11 
REMARK    6  A    between atoms: C_11  and  C_12 
REMARK    7  A    between atoms: C_12  and  N_13 
REMARK    8  A    between atoms: C_12  and  C_17 
REMARK       I    between atoms: N_13  and  C_14 
REMARK       I    between atoms: C_14  and  N_15 
ROOT
HETATM    1  N   UNL     1     -44.233  56.798 -56.187  1.00  0.00    -0.267 N 
HETATM    2  C   UNL     1     -43.557  57.768 -56.902  1.00  0.00     0.238 C 
HETATM    3  O   UNL     1     -42.337  57.923 -56.850  1.00  0.00    -0.272 OA
HETATM    4  H   UNL     1     -45.159  56.478 -56.458  1.00  0.00     0.190 HD
ENDROOT
BRANCH   2   5
HETATM    5  C   UNL     1     -44.443  58.643 -57.760  1.00  0.00     0.134 C 
BRANCH   5   6
HETATM    6  C   UNL     1     -44.250  58.371 -59.264  1.00  0.00     0.129 C 
BRANCH   6   7
HETATM    7  N   UNL     1     -43.207  57.377 -59.487  1.00  0.00    -0.339 N 
HETATM    8  C   UNL     1     -42.116  57.647 -60.254  1.00  0.00     0.292 C 
HETATM    9  N   UNL     1     -41.282  56.583 -60.356  1.00  0.00    -0.254 NA
HETATM   10  O   UNL     1     -41.872  58.710 -60.804  1.00  0.00    -0.254 OA
HETATM   11  H   UNL     1     -41.155  56.039 -59.516  1.00  0.00     0.128 HD
HETATM   12  H   UNL     1     -40.417  56.815 -60.829  1.00  0.00     0.128 HD
HETATM   13  H   UNL     1     -43.447  56.399 -59.395  1.00  0.00     0.164 HD
ENDBRANCH   6   7
BRANCH   6  14
HETATM   14  C   UNL     1     -45.523  57.907 -59.972  1.00  0.00    -0.013 A 
HETATM   15  C   UNL     1     -46.451  58.830 -60.497  1.00  0.00     0.042 A 
HETATM   16 CL   UNL     1     -46.240  60.541 -60.353  1.00  0.00    -0.084 Cl
HETATM   17  C   UNL     1     -47.590  58.394 -61.184  1.00  0.00     0.024 A 
HETATM   18  C   UNL     1     -47.825  57.035 -61.368  1.00  0.00     0.002 A 
HETATM   19  C   UNL     1     -46.915  56.106 -60.873  1.00  0.00     0.001 A 
HETATM   20  C   UNL     1     -45.774  56.537 -60.191  1.00  0.00     0.011 A 
ENDBRANCH   6  14
ENDBRANCH   5   6
ENDBRANCH   2   5
BRANCH   1  21
HETATM   21  N   UNL     1     -43.473  55.900 -55.427  1.00  0.00    -0.266 N 
HETATM   22  C   UNL     1     -43.680  55.874 -54.059  1.00  0.00     0.260 C 
HETATM   23  O   UNL     1     -44.333  56.729 -53.462  1.00  0.00    -0.269 OA
HETATM   24  H   UNL     1     -43.148  55.072 -55.923  1.00  0.00     0.190 HD
BRANCH  22  25
HETATM   25  C   UNL     1     -43.034  54.684 -53.365  1.00  0.00     0.280 C 
BRANCH  25  26
HETATM   26  O   UNL     1     -42.016  54.167 -54.218  1.00  0.00    -0.342 OA
BRANCH  26  27
HETATM   27  C   UNL     1     -41.210  53.218 -53.654  1.00  0.00     0.069 A 
HETATM   28  C   UNL     1     -40.773  52.058 -54.297  1.00  0.00     0.043 A 
HETATM   29  C   UNL     1     -39.931  51.152 -53.632  1.00  0.00    -0.059 A 
HETATM   30  C   UNL     1     -39.425  49.923 -54.329  1.00  0.00     0.048 C 
HETATM   31  C   UNL     1     -39.515  51.436 -52.326  1.00  0.00     0.007 A 
HETATM   32  C   UNL     1     -39.938  52.603 -51.690  1.00  0.00     0.003 A 
HETATM   33  C   UNL     1     -40.777  53.494 -52.357  1.00  0.00     0.037 A 
ENDBRANCH  26  27
ENDBRANCH  25  26
ENDBRANCH  22  25
ENDBRANCH   1  21
TORSDOF 8
ENDMDL
MODEL 4
REMARK VINA RESULT:      -8.1      2.194      3.969
REMARK  8 active torsions:
REMARK  status: ('A' for Active; 'I' for Inactive)
REMARK    1  A    between atoms: C_4  and  O_5 
REMARK    2  A    between atoms: O_5  and  C_6 
REMARK    3  A    between atoms: C_6  and  C_7 
REMARK       I    between atoms: C_7  and  N_8 
REMARK    4  A    between atoms: N_8  and  N_9 
REMARK       I    between atoms: N_9  and  C_10 
REMARK    5  A    between atoms: C_10  and  C_11 
REMARK    6  A    between atoms: C_11  and  C_12 
REMARK    7  A    between atoms: C_12  and  N_13 
REMARK    8  A    between atoms: C_12  and  C_17 
REMARK       I    between atoms: N_13  and  C_14 
REMARK       I    between atoms: C_14  and  N_15 
ROOT
HETATM    1  N   UNL     1     -41.585  55.601 -56.251  1.00  0.00    -0.267 N 
HETATM    2  C   UNL     1     -40.958  55.476 -55.026  1.00  0.00     0.238 C 
HETATM    3  O   UNL     1     -40.896  56.385 -54.198  1.00  0.00    -0.272 OA
HETATM    4  H   UNL     1     -41.897  54.792 -56.779  1.00  0.00     0.190 HD
ENDROOT
BRANCH   2   5
HETATM    5  C   UNL     1     -40.340  54.118 -54.776  1.00  0.00     0.134 C 
BRANCH   5   6
HETATM    6  C   UNL     1     -40.685  53.569 -53.379  1.00  0.00     0.129 C 
BRANCH   6   7
HETATM    7  N   UNL     1     -42.119  53.643 -53.126  1.00  0.00    -0.339 N 
HETATM    8  C   UNL     1     -42.623  54.351 -52.079  1.00  0.00     0.292 C 
HETATM    9  N   UNL     1     -43.974  54.269 -52.006  1.00  0.00    -0.254 NA
HETATM   10  O   UNL     1     -41.974  55.001 -51.274  1.00  0.00    -0.254 OA
HETATM   11  H   UNL     1     -44.467  54.297 -52.886  1.00  0.00     0.128 HD
HETATM   12  H   UNL     1     -44.361  54.884 -51.299  1.00  0.00     0.128 HD
HETATM   13  H   UNL     1     -42.708  52.901 -53.477  1.00  0.00     0.164 HD
ENDBRANCH   6   7
BRANCH   6  14
HETATM   14  C   UNL     1     -40.224  52.129 -53.155  1.00  0.00    -0.013 A 
HETATM   15  C   UNL     1     -39.882  51.656 -51.871  1.00  0.00     0.042 A 
HETATM   16 CL   UNL     1     -39.923  52.669 -50.469  1.00  0.00    -0.084 Cl
HETATM   17  C   UNL     1     -39.507  50.323 -51.670  1.00  0.00     0.024 A 
HETATM   18  C   UNL     1     -39.471  49.432 -52.739  1.00  0.00     0.002 A 
HETATM   19  C   UNL     1     -39.821  49.871 -54.012  1.00  0.00     0.001 A 
HETATM   20  C   UNL     1     -40.201  51.201 -54.216  1.00  0.00     0.011 A 
ENDBRANCH   6  14
ENDBRANCH   5   6
ENDBRANCH   2   5
BRANCH   1  21
HETATM   21  N   UNL     1     -42.246  56.804 -56.524  1.00  0.00    -0.266 N 
HETATM   22  C   UNL     1     -43.304  56.774 -57.416  1.00  0.00     0.260 C 
HETATM   23  O   UNL     1     -43.555  55.802 -58.128  1.00  0.00    -0.269 OA
HETATM   24  H   UNL     1     -42.205  57.505 -55.786  1.00  0.00     0.190 HD
BRANCH  22  25
HETATM   25  C   UNL     1     -44.133  58.050 -57.426  1.00  0.00     0.280 C 
BRANCH  25  26
HETATM   26  O   UNL     1     -45.260  57.858 -56.576  1.00  0.00    -0.342 OA
BRANCH  26  27
HETATM   27  C   UNL     1     -45.175  58.461 -55.351  1.00  0.00     0.069 A 
HETATM   28  C   UNL     1     -44.895  57.799 -54.154  1.00  0.00     0.043 A 
HETATM   29  C   UNL     1     -44.815  58.516 -52.949  1.00  0.00    -0.059 A 
HETATM   30  C   UNL     1     -44.475  57.819 -51.664  1.00  0.00     0.048 C 
HETATM   31  C   UNL     1     -44.994  59.905 -52.965  1.00  0.00     0.007 A 
HETATM   32  C   UNL     1     -45.257  60.567 -54.164  1.00  0.00     0.003 A 
HETATM   33  C   UNL     1     -45.340  59.846 -55.354  1.00  0.00     0.037 A 
ENDBRANCH  26  27
ENDBRANCH  25  26
ENDBRANCH  22  25
ENDBRANCH   1  21
TORSDOF 8
ENDMDL
MODEL 5
REMARK VINA RESULT:      -8.1      2.126      2.834
REMARK  8 active torsions:
REMARK  status: ('A' for Active; 'I' for Inactive)
REMARK    1  A    between atoms: C_4  and  O_5 
REMARK    2  A    between atoms: O_5  and  C_6 
REMARK    3  A    between atoms: C_6  and  C_7 
REMARK       I    between atoms: C_7  and  N_8 
REMARK    4  A    between atoms: N_8  and  N_9 
REMARK       I    between atoms: N_9  and  C_10 
REMARK    5  A    between atoms: C_10  and  C_11 
REMARK    6  A    between atoms: C_11  and  C_12 
REMARK    7  A    between atoms: C_12  and  N_13 
REMARK    8  A    between atoms: C_12  and  C_17 
REMARK       I    between atoms: N_13  and  C_14 
REMARK       I    between atoms: C_14  and  N_15 
ROOT
HETATM    1  N   UNL     1     -44.616  56.166 -53.779  1.00  0.00    -0.267 N 
HETATM    2  C   UNL     1     -43.787  55.071 -53.930  1.00  0.00     0.238 C 
HETATM    3  O   UNL     1     -43.482  54.595 -55.024  1.00  0.00    -0.272 OA
HETATM    4  H   UNL     1     -44.616  56.727 -52.932  1.00  0.00     0.190 HD
ENDROOT
BRANCH   2   5
HETATM    5  C   UNL     1     -43.278  54.487 -52.630  1.00  0.00     0.134 C 
BRANCH   5   6
HETATM    6  C   UNL     1     -41.769  54.725 -52.437  1.00  0.00     0.129 C 
BRANCH   6   7
HETATM    7  N   UNL     1     -41.516  55.596 -51.296  1.00  0.00    -0.339 N 
HETATM    8  C   UNL     1     -41.600  56.950 -51.400  1.00  0.00     0.292 C 
HETATM    9  N   UNL     1     -41.303  57.576 -50.234  1.00  0.00    -0.254 NA
HETATM   10  O   UNL     1     -41.906  57.575 -52.404  1.00  0.00    -0.254 OA
HETATM   11  H   UNL     1     -41.653  57.136 -49.395  1.00  0.00     0.128 HD
HETATM   12  H   UNL     1     -41.475  58.573 -50.276  1.00  0.00     0.128 HD
HETATM   13  H   UNL     1     -40.936  55.250 -50.545  1.00  0.00     0.164 HD
ENDBRANCH   6   7
BRANCH   6  14
HETATM   14  C   UNL     1     -40.964  53.438 -52.253  1.00  0.00    -0.013 A 
HETATM   15  C   UNL     1     -40.281  52.837 -53.331  1.00  0.00     0.042 A 
HETATM   16 CL   UNL     1     -40.327  53.484 -54.934  1.00  0.00    -0.084 Cl
HETATM   17  C   UNL     1     -39.509  51.685 -53.141  1.00  0.00     0.024 A 
HETATM   18  C   UNL     1     -39.396  51.112 -51.878  1.00  0.00     0.002 A 
HETATM   19  C   UNL     1     -40.047  51.697 -50.797  1.00  0.00     0.001 A 
HETATM   20  C   UNL     1     -40.815  52.851 -50.980  1.00  0.00     0.011 A 
ENDBRANCH   6  14
ENDBRANCH   5   6
ENDBRANCH   2   5
BRANCH   1  21
HETATM   21  N   UNL     1     -45.067  56.806 -54.939  1.00  0.00    -0.266 N 
HETATM   22  C   UNL     1     -44.735  58.138 -55.114  1.00  0.00     0.260 C 
HETATM   23  O   UNL     1     -44.252  58.833 -54.220  1.00  0.00    -0.269 OA
HETATM   24  H   UNL     1     -45.230  56.199 -55.740  1.00  0.00     0.190 HD
BRANCH  22  25
HETATM   25  C   UNL     1     -45.012  58.659 -56.517  1.00  0.00     0.280 C 
BRANCH  25  26
HETATM   26  O   UNL     1     -43.765  58.944 -57.143  1.00  0.00    -0.342 OA
BRANCH  26  27
HETATM   27  C   UNL     1     -43.367  58.039 -58.087  1.00  0.00     0.069 A 
HETATM   28  C   UNL     1     -44.018  56.833 -58.360  1.00  0.00     0.043 A 
HETATM   29  C   UNL     1     -43.536  55.978 -59.364  1.00  0.00    -0.059 A 
HETATM   30  C   UNL     1     -44.251  54.700 -59.691  1.00  0.00     0.048 C 
HETATM   31  C   UNL     1     -42.410  56.359 -60.105  1.00  0.00     0.007 A 
HETATM   32  C   UNL     1     -41.771  57.570 -59.843  1.00  0.00     0.003 A 
HETATM   33  C   UNL     1     -42.254  58.410 -58.841  1.00  0.00     0.037 A 
ENDBRANCH  26  27
ENDBRANCH  25  26
ENDBRANCH  22  25
ENDBRANCH   1  21
TORSDOF 8
ENDMDL
MODEL 6
REMARK VINA RESULT:      -8.0      3.209      9.082
REMARK  8 active torsions:
REMARK  status: ('A' for Active; 'I' for Inactive)
REMARK    1  A    between atoms: C_4  and  O_5 
REMARK    2  A    between atoms: O_5  and  C_6 
REMARK    3  A    between atoms: C_6  and  C_7 
REMARK       I    between atoms: C_7  and  N_8 
REMARK    4  A    between atoms: N_8  and  N_9 
REMARK       I    between atoms: N_9  and  C_10 
REMARK    5  A    between atoms: C_10  and  C_11 
REMARK    6  A    between atoms: C_11  and  C_12 
REMARK    7  A    between atoms: C_12  and  N_13 
REMARK    8  A    between atoms: C_12  and  C_17 
REMARK       I    between atoms: N_13  and  C_14 
REMARK       I    between atoms: C_14  and  N_15 
ROOT
HETATM    1  N   UNL     1     -41.775  55.744 -56.152  1.00  0.00    -0.267 N 
HETATM    2  C   UNL     1     -42.918  56.495 -56.352  1.00  0.00     0.238 C 
HETATM    3  O   UNL     1     -43.937  56.374 -55.672  1.00  0.00    -0.272 OA
HETATM    4  H   UNL     1     -40.867  56.048 -56.491  1.00  0.00     0.190 HD
ENDROOT
BRANCH   2   5
HETATM    5  C   UNL     1     -42.824  57.486 -57.490  1.00  0.00     0.134 C 
BRANCH   5   6
HETATM    6  C   UNL     1     -43.777  57.137 -58.647  1.00  0.00     0.129 C 
BRANCH   6   7
HETATM    7  N   UNL     1     -44.219  55.750 -58.562  1.00  0.00    -0.339 N 
HETATM    8  C   UNL     1     -44.398  54.988 -59.676  1.00  0.00     0.292 C 
HETATM    9  N   UNL     1     -44.836  53.740 -59.380  1.00  0.00    -0.254 NA
HETATM   10  O   UNL     1     -44.198  55.343 -60.827  1.00  0.00    -0.254 OA
HETATM   11  H   UNL     1     -44.426  53.309 -58.565  1.00  0.00     0.128 HD
HETATM   12  H   UNL     1     -44.861  53.137 -60.194  1.00  0.00     0.128 HD
HETATM   13  H   UNL     1     -44.738  55.459 -57.745  1.00  0.00     0.164 HD
ENDBRANCH   6   7
BRANCH   6  14
HETATM   14  C   UNL     1     -45.011  58.037 -58.719  1.00  0.00    -0.013 A 
HETATM   15  C   UNL     1     -45.151  59.016 -59.724  1.00  0.00     0.042 A 
HETATM   16 CL   UNL     1     -43.935  59.294 -60.922  1.00  0.00    -0.084 Cl
HETATM   17  C   UNL     1     -46.306  59.802 -59.807  1.00  0.00     0.024 A 
HETATM   18  C   UNL     1     -47.346  59.627 -58.899  1.00  0.00     0.002 A 
HETATM   19  C   UNL     1     -47.237  58.656 -57.909  1.00  0.00     0.001 A 
HETATM   20  C   UNL     1     -46.087  57.864 -57.825  1.00  0.00     0.011 A 
ENDBRANCH   6  14
ENDBRANCH   5   6
ENDBRANCH   2   5
BRANCH   1  21
HETATM   21  N   UNL     1     -41.759  54.857 -55.069  1.00  0.00    -0.266 N 
HETATM   22  C   UNL     1     -41.287  55.325 -53.855  1.00  0.00     0.260 C 
HETATM   23  O   UNL     1     -40.694  56.397 -53.733  1.00  0.00    -0.269 OA
HETATM   24  H   UNL     1     -42.446  54.106 -55.108  1.00  0.00     0.190 HD
BRANCH  22  25
HETATM   25  C   UNL     1     -41.577  54.396 -52.686  1.00  0.00     0.280 C 
BRANCH  25  26
HETATM   26  O   UNL     1     -40.335  53.935 -52.161  1.00  0.00    -0.342 OA
BRANCH  26  27
HETATM   27  C   UNL     1     -40.124  52.588 -52.264  1.00  0.00     0.069 A 
HETATM   28  C   UNL     1     -40.028  51.885 -53.467  1.00  0.00     0.043 A 
HETATM   29  C   UNL     1     -39.792  50.501 -53.464  1.00  0.00    -0.059 A 
HETATM   30  C   UNL     1     -39.648  49.745 -54.752  1.00  0.00     0.048 C 
HETATM   31  C   UNL     1     -39.631  49.837 -52.242  1.00  0.00     0.007 A 
HETATM   32  C   UNL     1     -39.711  50.542 -51.041  1.00  0.00     0.003 A 
HETATM   33  C   UNL     1     -39.949  51.915 -51.055  1.00  0.00     0.037 A 
ENDBRANCH  26  27
ENDBRANCH  25  26
ENDBRANCH  22  25
ENDBRANCH   1  21
TORSDOF 8
ENDMDL
MODEL 7
REMARK VINA RESULT:      -7.9      1.779      2.168
REMARK  8 active torsions:
REMARK  status: ('A' for Active; 'I' for Inactive)
REMARK    1  A    between atoms: C_4  and  O_5 
REMARK    2  A    between atoms: O_5  and  C_6 
REMARK    3  A    between atoms: C_6  and  C_7 
REMARK       I    between atoms: C_7  and  N_8 
REMARK    4  A    between atoms: N_8  and  N_9 
REMARK       I    between atoms: N_9  and  C_10 
REMARK    5  A    between atoms: C_10  and  C_11 
REMARK    6  A    between atoms: C_11  and  C_12 
REMARK    7  A    between atoms: C_12  and  N_13 
REMARK    8  A    between atoms: C_12  and  C_17 
REMARK       I    between atoms: N_13  and  C_14 
REMARK       I    between atoms: C_14  and  N_15 
ROOT
HETATM    1  N   UNL     1     -42.198  56.305 -55.005  1.00  0.00    -0.267 N 
HETATM    2  C   UNL     1     -42.810  55.101 -54.713  1.00  0.00     0.238 C 
HETATM    3  O   UNL     1     -43.281  54.353 -55.570  1.00  0.00    -0.272 OA
HETATM    4  H   UNL     1     -41.558  56.754 -54.357  1.00  0.00     0.190 HD
ENDROOT
BRANCH   2   5
HETATM    5  C   UNL     1     -42.865  54.770 -53.238  1.00  0.00     0.134 C 
BRANCH   5   6
HETATM    6  C   UNL     1     -41.485  54.885 -52.564  1.00  0.00     0.129 C 
BRANCH   6   7
HETATM    7  N   UNL     1     -41.549  55.734 -51.380  1.00  0.00    -0.339 N 
HETATM    8  C   UNL     1     -41.336  57.076 -51.452  1.00  0.00     0.292 C 
HETATM    9  N   UNL     1     -41.415  57.675 -50.239  1.00  0.00    -0.254 NA
HETATM   10  O   UNL     1     -41.102  57.711 -52.469  1.00  0.00    -0.254 OA
HETATM   11  H   UNL     1     -42.140  57.336 -49.624  1.00  0.00     0.128 HD
HETATM   12  H   UNL     1     -41.370  58.686 -50.303  1.00  0.00     0.128 HD
HETATM   13  H   UNL     1     -41.385  55.312 -50.477  1.00  0.00     0.164 HD
ENDBRANCH   6   7
BRANCH   6  14
HETATM   14  C   UNL     1     -40.883  53.538 -52.165  1.00  0.00    -0.013 A 
HETATM   15  C   UNL     1     -40.231  52.715 -53.107  1.00  0.00     0.042 A 
HETATM   16 CL   UNL     1     -40.093  53.146 -54.776  1.00  0.00    -0.084 Cl
HETATM   17  C   UNL     1     -39.642  51.505 -52.720  1.00  0.00     0.024 A 
HETATM   18  C   UNL     1     -39.684  51.094 -51.391  1.00  0.00     0.002 A 
HETATM   19  C   UNL     1     -40.307  51.897 -50.442  1.00  0.00     0.001 A 
HETATM   20  C   UNL     1     -40.892  53.109 -50.822  1.00  0.00     0.011 A 
ENDBRANCH   6  14
ENDBRANCH   5   6
ENDBRANCH   2   5
BRANCH   1  21
HETATM   21  N   UNL     1     -42.042  56.646 -56.355  1.00  0.00    -0.266 N 
HETATM   22  C   UNL     1     -42.809  57.685 -56.852  1.00  0.00     0.260 C 
HETATM   23  O   UNL     1     -43.756  58.176 -56.237  1.00  0.00    -0.269 OA
HETATM   24  H   UNL     1     -41.135  56.426 -56.761  1.00  0.00     0.190 HD
BRANCH  22  25
HETATM   25  C   UNL     1     -42.368  58.169 -58.225  1.00  0.00     0.280 C 
BRANCH  25  26
HETATM   26  O   UNL     1     -42.389  57.060 -59.119  1.00  0.00    -0.342 OA
BRANCH  26  27
HETATM   27  C   UNL     1     -43.633  56.659 -59.521  1.00  0.00     0.069 A 
HETATM   28  C   UNL     1     -44.691  57.521 -59.817  1.00  0.00     0.043 A 
HETATM   29  C   UNL     1     -45.928  57.008 -60.238  1.00  0.00    -0.059 A 
HETATM   30  C   UNL     1     -47.058  57.928 -60.597  1.00  0.00     0.048 C 
HETATM   31  C   UNL     1     -46.082  55.623 -60.381  1.00  0.00     0.007 A 
HETATM   32  C   UNL     1     -45.020  54.764 -60.100  1.00  0.00     0.003 A 
HETATM   33  C   UNL     1     -43.797  55.283 -59.679  1.00  0.00     0.037 A 
ENDBRANCH  26  27
ENDBRANCH  25  26
ENDBRANCH  22  25
ENDBRANCH   1  21
TORSDOF 8
ENDMDL
MODEL 8
REMARK VINA RESULT:      -7.7      3.128      4.444
REMARK  8 active torsions:
REMARK  status: ('A' for Active; 'I' for Inactive)
REMARK    1  A    between atoms: C_4  and  O_5 
REMARK    2  A    between atoms: O_5  and  C_6 
REMARK    3  A    between atoms: C_6  and  C_7 
REMARK       I    between atoms: C_7  and  N_8 
REMARK    4  A    between atoms: N_8  and  N_9 
REMARK       I    between atoms: N_9  and  C_10 
REMARK    5  A    between atoms: C_10  and  C_11 
REMARK    6  A    between atoms: C_11  and  C_12 
REMARK    7  A    between atoms: C_12  and  N_13 
REMARK    8  A    between atoms: C_12  and  C_17 
REMARK       I    between atoms: N_13  and  C_14 
REMARK       I    between atoms: C_14  and  N_15 
ROOT
HETATM    1  N   UNL     1     -42.723  57.026 -55.734  1.00  0.00    -0.267 N 
HETATM    2  C   UNL     1     -42.021  56.444 -54.696  1.00  0.00     0.238 C 
HETATM    3  O   UNL     1     -41.224  57.058 -53.986  1.00  0.00    -0.272 OA
HETATM    4  H   UNL     1     -43.576  56.617 -56.102  1.00  0.00     0.190 HD
ENDROOT
BRANCH   2   5
HETATM    5  C   UNL     1     -42.304  54.971 -54.499  1.00  0.00     0.134 C 
BRANCH   5   6
HETATM    6  C   UNL     1     -41.857  54.473 -53.112  1.00  0.00     0.129 C 
BRANCH   6   7
HETATM    7  N   UNL     1     -43.006  54.202 -52.256  1.00  0.00    -0.339 N 
HETATM    8  C   UNL     1     -43.365  55.049 -51.253  1.00  0.00     0.292 C 
HETATM    9  N   UNL     1     -44.441  54.601 -50.562  1.00  0.00    -0.254 NA
HETATM   10  O   UNL     1     -42.814  56.102 -50.973  1.00  0.00    -0.254 OA
HETATM   11  H   UNL     1     -45.171  54.169 -51.110  1.00  0.00     0.128 HD
HETATM   12  H   UNL     1     -44.780  55.281 -49.891  1.00  0.00     0.128 HD
HETATM   13  H   UNL     1     -43.312  53.244 -52.152  1.00  0.00     0.164 HD
ENDBRANCH   6   7
BRANCH   6  14
HETATM   14  C   UNL     1     -40.982  53.221 -53.163  1.00  0.00    -0.013 A 
HETATM   15  C   UNL     1     -40.147  52.862 -52.084  1.00  0.00     0.042 A 
HETATM   16 CL   UNL     1     -40.025  53.818 -50.648  1.00  0.00    -0.084 Cl
HETATM   17  C   UNL     1     -39.386  51.688 -52.123  1.00  0.00     0.024 A 
HETATM   18  C   UNL     1     -39.443  50.846 -53.230  1.00  0.00     0.002 A 
HETATM   19  C   UNL     1     -40.272  51.172 -54.299  1.00  0.00     0.001 A 
HETATM   20  C   UNL     1     -41.039  52.340 -54.263  1.00  0.00     0.011 A 
ENDBRANCH   6  14
ENDBRANCH   5   6
ENDBRANCH   2   5
BRANCH   1  21
HETATM   21  N   UNL     1     -42.569  58.404 -55.932  1.00  0.00    -0.266 N 
HETATM   22  C   UNL     1     -42.274  58.846 -57.209  1.00  0.00     0.260 C 
HETATM   23  O   UNL     1     -41.936  58.090 -58.120  1.00  0.00    -0.269 OA
HETATM   24  H   UNL     1     -43.073  59.000 -55.276  1.00  0.00     0.190 HD
BRANCH  22  25
HETATM   25  C   UNL     1     -42.414  60.351 -57.385  1.00  0.00     0.280 C 
BRANCH  25  26
HETATM   26  O   UNL     1     -41.108  60.919 -57.440  1.00  0.00    -0.342 OA
BRANCH  26  27
HETATM   27  C   UNL     1     -40.814  61.590 -58.595  1.00  0.00     0.069 A 
HETATM   28  C   UNL     1     -39.783  62.522 -58.735  1.00  0.00     0.043 A 
HETATM   29  C   UNL     1     -39.554  63.145 -59.972  1.00  0.00    -0.059 A 
HETATM   30  C   UNL     1     -38.424  64.118 -60.141  1.00  0.00     0.048 C 
HETATM   31  C   UNL     1     -40.353  62.804 -61.069  1.00  0.00     0.007 A 
HETATM   32  C   UNL     1     -41.372  61.861 -60.933  1.00  0.00     0.003 A 
HETATM   33  C   UNL     1     -41.595  61.251 -59.700  1.00  0.00     0.037 A 
ENDBRANCH  26  27
ENDBRANCH  25  26
ENDBRANCH  22  25
ENDBRANCH   1  21
TORSDOF 8
ENDMDL
MODEL 9
REMARK VINA RESULT:      -7.7      1.918      2.442
REMARK  8 active torsions:
REMARK  status: ('A' for Active; 'I' for Inactive)
REMARK    1  A    between atoms: C_4  and  O_5 
REMARK    2  A    between atoms: O_5  and  C_6 
REMARK    3  A    between atoms: C_6  and  C_7 
REMARK       I    between atoms: C_7  and  N_8 
REMARK    4  A    between atoms: N_8  and  N_9 
REMARK       I    between atoms: N_9  and  C_10 
REMARK    5  A    between atoms: C_10  and  C_11 
REMARK    6  A    between atoms: C_11  and  C_12 
REMARK    7  A    between atoms: C_12  and  N_13 
REMARK    8  A    between atoms: C_12  and  C_17 
REMARK       I    between atoms: N_13  and  C_14 
REMARK       I    between atoms: C_14  and  N_15 
ROOT
HETATM    1  N   UNL     1     -41.640  55.546 -56.268  1.00  0.00    -0.267 N 
HETATM    2  C   UNL     1     -40.923  55.442 -55.091  1.00  0.00     0.238 C 
HETATM    3  O   UNL     1     -40.747  56.383 -54.317  1.00  0.00    -0.272 OA
HETATM    4  H   UNL     1     -42.036  54.733 -56.730  1.00  0.00     0.190 HD
ENDROOT
BRANCH   2   5
HETATM    5  C   UNL     1     -40.358  54.064 -54.824  1.00  0.00     0.134 C 
BRANCH   5   6
HETATM    6  C   UNL     1     -40.681  53.567 -53.403  1.00  0.00     0.129 C 
BRANCH   6   7
HETATM    7  N   UNL     1     -42.110  53.657 -53.128  1.00  0.00    -0.339 N 
HETATM    8  C   UNL     1     -42.598  54.455 -52.140  1.00  0.00     0.292 C 
HETATM    9  N   UNL     1     -43.947  54.374 -52.032  1.00  0.00    -0.254 NA
HETATM   10  O   UNL     1     -41.937  55.180 -51.412  1.00  0.00    -0.254 OA
HETATM   11  H   UNL     1     -44.457  54.318 -52.900  1.00  0.00     0.128 HD
HETATM   12  H   UNL     1     -44.323  55.049 -51.377  1.00  0.00     0.128 HD
HETATM   13  H   UNL     1     -42.701  52.883 -53.398  1.00  0.00     0.164 HD
ENDBRANCH   6   7
BRANCH   6  14
HETATM   14  C   UNL     1     -40.222  52.134 -53.135  1.00  0.00    -0.013 A 
HETATM   15  C   UNL     1     -39.883  51.700 -51.837  1.00  0.00     0.042 A 
HETATM   16 CL   UNL     1     -39.926  52.754 -50.466  1.00  0.00    -0.084 Cl
HETATM   17  C   UNL     1     -39.509  50.372 -51.596  1.00  0.00     0.024 A 
HETATM   18  C   UNL     1     -39.473  49.450 -52.638  1.00  0.00     0.002 A 
HETATM   19  C   UNL     1     -39.819  49.852 -53.924  1.00  0.00     0.001 A 
HETATM   20  C   UNL     1     -40.198  51.175 -54.169  1.00  0.00     0.011 A 
ENDBRANCH   6  14
ENDBRANCH   5   6
ENDBRANCH   2   5
BRANCH   1  21
HETATM   21  N   UNL     1     -42.258  56.772 -56.547  1.00  0.00    -0.266 N 
HETATM   22  C   UNL     1     -43.076  56.845 -57.661  1.00  0.00     0.260 C 
HETATM   23  O   UNL     1     -43.121  55.965 -58.521  1.00  0.00    -0.269 OA
HETATM   24  H   UNL     1     -42.413  57.378 -55.743  1.00  0.00     0.190 HD
BRANCH  22  25
HETATM   25  C   UNL     1     -43.921  58.109 -57.717  1.00  0.00     0.280 C 
BRANCH  25  26
HETATM   26  O   UNL     1     -45.281  57.749 -57.490  1.00  0.00    -0.342 OA
BRANCH  26  27
HETATM   27  C   UNL     1     -46.191  58.370 -58.300  1.00  0.00     0.069 A 
HETATM   28  C   UNL     1     -47.261  59.146 -57.849  1.00  0.00     0.043 A 
HETATM   29  C   UNL     1     -48.131  59.756 -58.766  1.00  0.00    -0.059 A 
HETATM   30  C   UNL     1     -49.260  60.623 -58.291  1.00  0.00     0.048 C 
HETATM   31  C   UNL     1     -47.900  59.599 -60.138  1.00  0.00     0.007 A 
HETATM   32  C   UNL     1     -46.822  58.838 -60.588  1.00  0.00     0.003 A 
HETATM   33  C   UNL     1     -45.966  58.233 -59.670  1.00  0.00     0.037 A 
ENDBRANCH  26  27
ENDBRANCH  25  26
ENDBRANCH  22  25
ENDBRANCH   1  21
TORSDOF 8
ENDMDL
MODEL 10
REMARK VINA RESULT:      -7.6     14.553     16.419
REMARK  8 active torsions:
REMARK  status: ('A' for Active; 'I' for Inactive)
REMARK    1  A    between atoms: C_4  and  O_5 
REMARK    2  A    between atoms: O_5  and  C_6 
REMARK    3  A    between atoms: C_6  and  C_7 
REMARK       I    between atoms: C_7  and  N_8 
REMARK    4  A    between atoms: N_8  and  N_9 
REMARK       I    between atoms: N_9  and  C_10 
REMARK    5  A    between atoms: C_10  and  C_11 
REMARK    6  A    between atoms: C_11  and  C_12 
REMARK    7  A    between atoms: C_12  and  N_13 
REMARK    8  A    between atoms: C_12  and  C_17 
REMARK       I    between atoms: N_13  and  C_14 
REMARK       I    between atoms: C_14  and  N_15 
ROOT
HETATM    1  N   UNL     1     -35.800  42.365 -54.020  1.00  0.00    -0.267 N 
HETATM    2  C   UNL     1     -36.179  41.858 -52.792  1.00  0.00     0.238 C 
HETATM    3  O   UNL     1     -37.330  41.510 -52.526  1.00  0.00    -0.272 OA
HETATM    4  H   UNL     1     -34.833  42.358 -54.329  1.00  0.00     0.190 HD
ENDROOT
BRANCH   2   5
HETATM    5  C   UNL     1     -35.058  41.767 -51.780  1.00  0.00     0.134 C 
BRANCH   5   6
HETATM    6  C   UNL     1     -34.213  40.492 -51.961  1.00  0.00     0.129 C 
BRANCH   6   7
HETATM    7  N   UNL     1     -33.088  40.730 -52.856  1.00  0.00    -0.339 N 
HETATM    8  C   UNL     1     -33.103  40.309 -54.150  1.00  0.00     0.292 C 
HETATM    9  N   UNL     1     -31.953  40.606 -54.802  1.00  0.00    -0.254 NA
HETATM   10  O   UNL     1     -34.025  39.729 -54.704  1.00  0.00    -0.254 OA
HETATM   11  H   UNL     1     -31.547  41.507 -54.596  1.00  0.00     0.128 HD
HETATM   12  H   UNL     1     -32.005  40.396 -55.792  1.00  0.00     0.128 HD
HETATM   13  H   UNL     1     -32.172  40.868 -52.452  1.00  0.00     0.164 HD
ENDBRANCH   6   7
BRANCH   6  14
HETATM   14  C   UNL     1     -33.678  39.919 -50.648  1.00  0.00    -0.013 A 
HETATM   15  C   UNL     1     -34.457  39.056 -49.849  1.00  0.00     0.042 A 
HETATM   16 CL   UNL     1     -36.073  38.609 -50.272  1.00  0.00    -0.084 Cl
HETATM   17  C   UNL     1     -33.939  38.501 -48.673  1.00  0.00     0.024 A 
HETATM   18  C   UNL     1     -32.637  38.787 -48.272  1.00  0.00     0.002 A 
HETATM   19  C   UNL     1     -31.845  39.623 -49.053  1.00  0.00     0.001 A 
HETATM   20  C   UNL     1     -32.356  40.176 -50.231  1.00  0.00     0.011 A 
ENDBRANCH   6  14
ENDBRANCH   5   6
ENDBRANCH   2   5
BRANCH   1  21
HETATM   21  N   UNL     1     -36.767  42.411 -55.032  1.00  0.00    -0.266 N 
HETATM   22  C   UNL     1     -36.350  42.200 -56.335  1.00  0.00     0.260 C 
HETATM   23  O   UNL     1     -35.165  42.184 -56.667  1.00  0.00    -0.269 OA
HETATM   24  H   UNL     1     -37.716  42.180 -54.743  1.00  0.00     0.190 HD
BRANCH  22  25
HETATM   25  C   UNL     1     -37.494  41.980 -57.314  1.00  0.00     0.280 C 
BRANCH  25  26
HETATM   26  O   UNL     1     -36.937  41.744 -58.605  1.00  0.00    -0.342 OA
BRANCH  26  27
HETATM   27  C   UNL     1     -37.453  40.669 -59.274  1.00  0.00     0.069 A 
HETATM   28  C   UNL     1     -37.169  40.345 -60.602  1.00  0.00     0.043 A 
HETATM   29  C   UNL     1     -37.741  39.206 -61.192  1.00  0.00    -0.059 A 
HETATM   30  C   UNL     1     -37.410  38.828 -62.607  1.00  0.00     0.048 C 
HETATM   31  C   UNL     1     -38.579  38.385 -60.427  1.00  0.00     0.007 A 
HETATM   32  C   UNL     1     -38.849  38.701 -59.096  1.00  0.00     0.003 A 
HETATM   33  C   UNL     1     -38.280  39.836 -58.520  1.00  0.00     0.037 A 
ENDBRANCH  26  27
ENDBRANCH  25  26
ENDBRANCH  22  25
ENDBRANCH   1  21
TORSDOF 8
ENDMDL
