MODEL 1
REMARK VINA RESULT:      -9.4      0.000      0.000
REMARK  6 active torsions:
REMARK  status: ('A' for Active; 'I' for Inactive)
REMARK    1  A    between atoms: C_4  and  C_5 
REMARK    2  A    between atoms: N_7  and  C_8 
REMARK    3  A    between atoms: C_8  and  C_9 
REMARK    4  A    between atoms: C_9  and  C_10 
REMARK       I    between atoms: C_10  and  N_11 
REMARK    5  A    between atoms: N_11  and  N_12 
REMARK    6  A    between atoms: C_24  and  C_25 
ROOT
HETATM    1  C   UNL     1     -41.988  56.204 -55.341  1.00  0.00     0.161 C 
ENDROOT
BRANCH   1   2
HETATM    2  N   UNL     1     -41.604  55.365 -54.217  1.00  0.00    -0.268 N 
HETATM    3  N   UNL     1     -41.238  54.097 -54.472  1.00  0.00    -0.172 NA
HETATM    4  C   UNL     1     -40.858  53.592 -53.288  1.00  0.00     0.089 A 
HETATM    5  C   UNL     1     -40.981  54.584 -52.281  1.00  0.00     0.066 A 
HETATM    6  C   UNL     1     -41.459  55.724 -52.898  1.00  0.00     0.065 A 
BRANCH   4   7
HETATM    7  C   UNL     1     -40.369  52.212 -53.158  1.00  0.00    -0.006 A 
HETATM    8  C   UNL     1     -39.929  51.729 -51.916  1.00  0.00     0.014 A 
HETATM    9  C   UNL     1     -39.461  50.418 -51.780  1.00  0.00     0.001 A 
HETATM   10  C   UNL     1     -39.429  49.571 -52.885  1.00  0.00     0.000 A 
HETATM   11  C   UNL     1     -39.866  50.033 -54.124  1.00  0.00     0.001 A 
HETATM   12  C   UNL     1     -40.333  51.345 -54.260  1.00  0.00     0.014 A 
ENDBRANCH   4   7
BRANCH   6  13
HETATM   13  C   UNL     1     -41.673  57.054 -52.337  1.00  0.00    -0.008 A 
HETATM   14  C   UNL     1     -40.629  57.982 -52.235  1.00  0.00     0.014 A 
HETATM   15  C   UNL     1     -40.858  59.245 -51.684  1.00  0.00     0.001 A 
HETATM   16  C   UNL     1     -42.133  59.596 -51.245  1.00  0.00     0.000 A 
HETATM   17  C   UNL     1     -43.183  58.689 -51.360  1.00  0.00     0.001 A 
HETATM   18  C   UNL     1     -42.954  57.424 -51.906  1.00  0.00     0.014 A 
ENDBRANCH   6  13
ENDBRANCH   1   2
BRANCH   1  19
HETATM   19  C   UNL     1     -42.871  55.476 -56.340  1.00  0.00     0.126 C 
BRANCH  19  20
HETATM   20  C   UNL     1     -42.925  56.208 -57.660  1.00  0.00     0.239 C 
HETATM   21  N   UNL     1     -42.149  57.352 -57.699  1.00  0.00    -0.246 N 
HETATM   22  H   UNL     1     -41.489  57.566 -56.946  1.00  0.00     0.192 HD
HETATM   23  O   UNL     1     -43.630  55.792 -58.578  1.00  0.00    -0.272 OA
BRANCH  21  24
HETATM   24  N   UNL     1     -42.135  58.125 -58.823  1.00  0.00    -0.166 NA
HETATM   25  C   UNL     1     -41.894  59.385 -58.658  1.00  0.00     0.157 A 
HETATM   26  C   UNL     1     -41.666  60.161 -57.356  1.00  0.00     0.277 A 
HETATM   27  C   UNL     1     -41.814  60.373 -59.727  1.00  0.00     0.027 A 
HETATM   28  O   UNL     1     -41.727  59.690 -56.240  1.00  0.00    -0.266 OA
HETATM   29  N   UNL     1     -41.441  61.466 -57.737  1.00  0.00    -0.321 N 
HETATM   30  C   UNL     1     -41.540  61.597 -59.121  1.00  0.00     0.048 A 
HETATM   31  H   UNL     1     -41.265  62.211 -57.081  1.00  0.00     0.169 HD
HETATM   32  C   UNL     1     -41.418  62.751 -59.864  1.00  0.00     0.030 A 
HETATM   33  C   UNL     1     -41.581  62.641 -61.252  1.00  0.00     0.002 A 
HETATM   34  C   UNL     1     -41.857  61.398 -61.859  1.00  0.00     0.001 A 
HETATM   35  C   UNL     1     -41.977  60.238 -61.090  1.00  0.00     0.016 A 
ENDBRANCH  21  24
ENDBRANCH  19  20
ENDBRANCH   1  19
TORSDOF 6
ENDMDL
MODEL 2
REMARK VINA RESULT:      -9.2      1.387      2.386
REMARK  6 active torsions:
REMARK  status: ('A' for Active; 'I' for Inactive)
REMARK    1  A    between atoms: C_4  and  C_5 
REMARK    2  A    between atoms: N_7  and  C_8 
REMARK    3  A    between atoms: C_8  and  C_9 
REMARK    4  A    between atoms: C_9  and  C_10 
REMARK       I    between atoms: C_10  and  N_11 
REMARK    5  A    between atoms: N_11  and  N_12 
REMARK    6  A    between atoms: C_24  and  C_25 
ROOT
HETATM    1  C   UNL     1     -43.303  55.478 -54.869  1.00  0.00     0.161 C 
ENDROOT
BRANCH   1   2
HETATM    2  N   UNL     1     -42.331  54.879 -53.969  1.00  0.00    -0.268 N 
HETATM    3  N   UNL     1     -42.025  53.582 -54.145  1.00  0.00    -0.172 NA
HETATM    4  C   UNL     1     -41.057  53.321 -53.253  1.00  0.00     0.089 A 
HETATM    5  C   UNL     1     -40.751  54.496 -52.519  1.00  0.00     0.066 A 
HETATM    6  C   UNL     1     -41.578  55.494 -52.998  1.00  0.00     0.065 A 
BRANCH   4   7
HETATM    7  C   UNL     1     -40.442  51.990 -53.147  1.00  0.00    -0.006 A 
HETATM    8  C   UNL     1     -40.297  51.182 -54.285  1.00  0.00     0.014 A 
HETATM    9  C   UNL     1     -39.714  49.914 -54.197  1.00  0.00     0.001 A 
HETATM   10  C   UNL     1     -39.266  49.437 -52.968  1.00  0.00     0.000 A 
HETATM   11  C   UNL     1     -39.398  50.227 -51.829  1.00  0.00     0.001 A 
HETATM   12  C   UNL     1     -39.983  51.496 -51.917  1.00  0.00     0.014 A 
ENDBRANCH   4   7
BRANCH   6  13
HETATM   13  C   UNL     1     -41.605  56.912 -52.653  1.00  0.00    -0.008 A 
HETATM   14  C   UNL     1     -42.460  57.408 -51.663  1.00  0.00     0.014 A 
HETATM   15  C   UNL     1     -42.474  58.771 -51.358  1.00  0.00     0.001 A 
HETATM   16  C   UNL     1     -41.623  59.647 -52.031  1.00  0.00     0.000 A 
HETATM   17  C   UNL     1     -40.753  59.160 -53.003  1.00  0.00     0.001 A 
HETATM   18  C   UNL     1     -40.743  57.798 -53.312  1.00  0.00     0.014 A 
ENDBRANCH   6  13
ENDBRANCH   1   2
BRANCH   1  19
HETATM   19  C   UNL     1     -42.929  55.312 -56.331  1.00  0.00     0.126 C 
BRANCH  19  20
HETATM   20  C   UNL     1     -42.602  56.641 -56.969  1.00  0.00     0.239 C 
HETATM   21  N   UNL     1     -42.449  56.581 -58.342  1.00  0.00    -0.246 N 
HETATM   22  H   UNL     1     -42.700  55.736 -58.863  1.00  0.00     0.192 HD
HETATM   23  O   UNL     1     -42.472  57.651 -56.280  1.00  0.00    -0.272 OA
BRANCH  21  24
HETATM   24  N   UNL     1     -42.119  57.707 -59.038  1.00  0.00    -0.166 NA
HETATM   25  C   UNL     1     -43.056  58.246 -59.749  1.00  0.00     0.157 A 
HETATM   26  C   UNL     1     -44.496  57.770 -59.966  1.00  0.00     0.277 A 
HETATM   27  C   UNL     1     -42.916  59.459 -60.545  1.00  0.00     0.027 A 
HETATM   28  O   UNL     1     -44.971  56.746 -59.519  1.00  0.00    -0.266 OA
HETATM   29  N   UNL     1     -45.075  58.706 -60.795  1.00  0.00    -0.321 N 
HETATM   30  C   UNL     1     -44.152  59.687 -61.147  1.00  0.00     0.048 A 
HETATM   31  H   UNL     1     -46.030  58.646 -61.115  1.00  0.00     0.169 HD
HETATM   32  C   UNL     1     -44.348  60.761 -61.988  1.00  0.00     0.030 A 
HETATM   33  C   UNL     1     -43.256  61.610 -62.213  1.00  0.00     0.002 A 
HETATM   34  C   UNL     1     -42.009  61.373 -61.599  1.00  0.00     0.001 A 
HETATM   35  C   UNL     1     -41.826  60.280 -60.748  1.00  0.00     0.016 A 
ENDBRANCH  21  24
ENDBRANCH  19  20
ENDBRANCH   1  19
TORSDOF 6
ENDMDL
MODEL 3
REMARK VINA RESULT:      -9.0      3.002      4.082
REMARK  6 active torsions:
REMARK  status: ('A' for Active; 'I' for Inactive)
REMARK    1  A    between atoms: C_4  and  C_5 
REMARK    2  A    between atoms: N_7  and  C_8 
REMARK    3  A    between atoms: C_8  and  C_9 
REMARK    4  A    between atoms: C_9  and  C_10 
REMARK       I    between atoms: C_10  and  N_11 
REMARK    5  A    between atoms: N_11  and  N_12 
REMARK    6  A    between atoms: C_24  and  C_25 
ROOT
HETATM    1  C   UNL     1     -41.635  56.652 -54.889  1.00  0.00     0.161 C 
ENDROOT
BRANCH   1   2
HETATM    2  N   UNL     1     -41.387  55.721 -53.799  1.00  0.00    -0.268 N 
HETATM    3  N   UNL     1     -41.022  54.466 -54.113  1.00  0.00    -0.172 NA
HETATM    4  C   UNL     1     -40.777  53.863 -52.939  1.00  0.00     0.089 A 
HETATM    5  C   UNL     1     -40.985  54.779 -51.876  1.00  0.00     0.066 A 
HETATM    6  C   UNL     1     -41.372  55.976 -52.449  1.00  0.00     0.065 A 
BRANCH   4   7
HETATM    7  C   UNL     1     -40.333  52.464 -52.867  1.00  0.00    -0.006 A 
HETATM    8  C   UNL     1     -40.322  51.662 -54.018  1.00  0.00     0.014 A 
HETATM    9  C   UNL     1     -39.901  50.329 -53.962  1.00  0.00     0.001 A 
HETATM   10  C   UNL     1     -39.484  49.781 -52.752  1.00  0.00     0.000 A 
HETATM   11  C   UNL     1     -39.485  50.564 -51.600  1.00  0.00     0.001 A 
HETATM   12  C   UNL     1     -39.906  51.897 -51.657  1.00  0.00     0.014 A 
ENDBRANCH   4   7
BRANCH   6  13
HETATM   13  C   UNL     1     -41.616  57.266 -51.811  1.00  0.00    -0.008 A 
HETATM   14  C   UNL     1     -40.605  57.943 -51.120  1.00  0.00     0.014 A 
HETATM   15  C   UNL     1     -40.867  59.172 -50.509  1.00  0.00     0.001 A 
HETATM   16  C   UNL     1     -42.137  59.740 -50.597  1.00  0.00     0.000 A 
HETATM   17  C   UNL     1     -43.145  59.084 -51.299  1.00  0.00     0.001 A 
HETATM   18  C   UNL     1     -42.885  57.853 -51.906  1.00  0.00     0.014 A 
ENDBRANCH   6  13
ENDBRANCH   1   2
BRANCH   1  19
HETATM   19  C   UNL     1     -42.416  56.023 -56.029  1.00  0.00     0.126 C 
BRANCH  19  20
HETATM   20  C   UNL     1     -43.463  56.971 -56.566  1.00  0.00     0.239 C 
HETATM   21  N   UNL     1     -43.920  56.645 -57.829  1.00  0.00    -0.246 N 
HETATM   22  H   UNL     1     -43.672  55.752 -58.264  1.00  0.00     0.192 HD
HETATM   23  O   UNL     1     -43.825  57.943 -55.904  1.00  0.00    -0.272 OA
BRANCH  21  24
HETATM   24  N   UNL     1     -44.844  57.439 -58.443  1.00  0.00    -0.166 NA
HETATM   25  C   UNL     1     -45.540  56.895 -59.388  1.00  0.00     0.157 A 
HETATM   26  C   UNL     1     -45.446  55.478 -59.962  1.00  0.00     0.277 A 
HETATM   27  C   UNL     1     -46.589  57.562 -60.151  1.00  0.00     0.027 A 
HETATM   28  O   UNL     1     -44.634  54.639 -59.629  1.00  0.00    -0.266 OA
HETATM   29  N   UNL     1     -46.416  55.407 -60.938  1.00  0.00    -0.321 N 
HETATM   30  C   UNL     1     -47.078  56.627 -61.060  1.00  0.00     0.048 A 
HETATM   31  H   UNL     1     -46.582  54.583 -61.495  1.00  0.00     0.169 HD
HETATM   32  C   UNL     1     -48.078  56.953 -61.951  1.00  0.00     0.030 A 
HETATM   33  C   UNL     1     -48.579  58.261 -61.904  1.00  0.00     0.002 A 
HETATM   34  C   UNL     1     -48.080  59.201 -60.979  1.00  0.00     0.001 A 
HETATM   35  C   UNL     1     -47.066  58.854 -60.082  1.00  0.00     0.016 A 
ENDBRANCH  21  24
ENDBRANCH  19  20
ENDBRANCH   1  19
TORSDOF 6
ENDMDL
MODEL 4
REMARK VINA RESULT:      -9.0      1.971      9.793
REMARK  6 active torsions:
REMARK  status: ('A' for Active; 'I' for Inactive)
REMARK    1  A    between atoms: C_4  and  C_5 
REMARK    2  A    between atoms: N_7  and  C_8 
REMARK    3  A    between atoms: C_8  and  C_9 
REMARK    4  A    between atoms: C_9  and  C_10 
REMARK       I    between atoms: C_10  and  N_11 
REMARK    5  A    between atoms: N_11  and  N_12 
REMARK    6  A    between atoms: C_24  and  C_25 
ROOT
HETATM    1  C   UNL     1     -42.859  58.437 -56.741  1.00  0.00     0.161 C 
ENDROOT
BRANCH   1   2
HETATM    2  N   UNL     1     -42.648  59.074 -58.031  1.00  0.00    -0.268 N 
HETATM    3  N   UNL     1     -41.868  60.168 -58.074  1.00  0.00    -0.172 NA
HETATM    4  C   UNL     1     -41.776  60.488 -59.374  1.00  0.00     0.089 A 
HETATM    5  C   UNL     1     -42.511  59.556 -60.152  1.00  0.00     0.066 A 
HETATM    6  C   UNL     1     -43.063  58.646 -59.269  1.00  0.00     0.065 A 
BRANCH   4   7
HETATM    7  C   UNL     1     -40.982  61.636 -59.833  1.00  0.00    -0.006 A 
HETATM    8  C   UNL     1     -41.040  62.050 -61.173  1.00  0.00     0.014 A 
HETATM    9  C   UNL     1     -40.288  63.141 -61.621  1.00  0.00     0.001 A 
HETATM   10  C   UNL     1     -39.470  63.835 -60.734  1.00  0.00     0.000 A 
HETATM   11  C   UNL     1     -39.404  63.441 -59.400  1.00  0.00     0.001 A 
HETATM   12  C   UNL     1     -40.155  62.348 -58.952  1.00  0.00     0.014 A 
ENDBRANCH   4   7
BRANCH   6  13
HETATM   13  C   UNL     1     -43.827  57.436 -59.553  1.00  0.00    -0.008 A 
HETATM   14  C   UNL     1     -43.218  56.177 -59.589  1.00  0.00     0.014 A 
HETATM   15  C   UNL     1     -43.970  55.034 -59.873  1.00  0.00     0.001 A 
HETATM   16  C   UNL     1     -45.340  55.140 -60.110  1.00  0.00     0.000 A 
HETATM   17  C   UNL     1     -45.960  56.385 -60.056  1.00  0.00     0.001 A 
HETATM   18  C   UNL     1     -45.208  57.528 -59.777  1.00  0.00     0.014 A 
ENDBRANCH   6  13
ENDBRANCH   1   2
BRANCH   1  19
HETATM   19  C   UNL     1     -42.443  59.319 -55.577  1.00  0.00     0.126 C 
BRANCH  19  20
HETATM   20  C   UNL     1     -41.764  58.514 -54.494  1.00  0.00     0.239 C 
HETATM   21  N   UNL     1     -42.335  57.274 -54.276  1.00  0.00    -0.246 N 
HETATM   22  H   UNL     1     -43.045  56.902 -54.913  1.00  0.00     0.192 HD
HETATM   23  O   UNL     1     -40.807  58.978 -53.876  1.00  0.00    -0.272 OA
BRANCH  21  24
HETATM   24  N   UNL     1     -41.838  56.459 -53.301  1.00  0.00    -0.166 NA
HETATM   25  C   UNL     1     -41.417  55.295 -53.675  1.00  0.00     0.157 A 
HETATM   26  C   UNL     1     -41.439  54.665 -55.073  1.00  0.00     0.277 A 
HETATM   27  C   UNL     1     -40.832  54.289 -52.797  1.00  0.00     0.027 A 
HETATM   28  O   UNL     1     -41.920  55.175 -56.064  1.00  0.00    -0.266 OA
HETATM   29  N   UNL     1     -40.863  53.422 -54.928  1.00  0.00    -0.321 N 
HETATM   30  C   UNL     1     -40.519  53.193 -53.598  1.00  0.00     0.048 A 
HETATM   31  H   UNL     1     -40.748  52.774 -55.692  1.00  0.00     0.169 HD
HETATM   32  C   UNL     1     -39.959  52.054 -53.061  1.00  0.00     0.030 A 
HETATM   33  C   UNL     1     -39.721  52.044 -51.680  1.00  0.00     0.002 A 
HETATM   34  C   UNL     1     -40.041  53.158 -50.876  1.00  0.00     0.001 A 
HETATM   35  C   UNL     1     -40.607  54.306 -51.437  1.00  0.00     0.016 A 
ENDBRANCH  21  24
ENDBRANCH  19  20
ENDBRANCH   1  19
TORSDOF 6
ENDMDL
MODEL 5
REMARK VINA RESULT:      -8.9      2.097      4.301
REMARK  6 active torsions:
REMARK  status: ('A' for Active; 'I' for Inactive)
REMARK    1  A    between atoms: C_4  and  C_5 
REMARK    2  A    between atoms: N_7  and  C_8 
REMARK    3  A    between atoms: C_8  and  C_9 
REMARK    4  A    between atoms: C_9  and  C_10 
REMARK       I    between atoms: C_10  and  N_11 
REMARK    5  A    between atoms: N_11  and  N_12 
REMARK    6  A    between atoms: C_24  and  C_25 
ROOT
HETATM    1  C   UNL     1     -43.895  57.436 -55.075  1.00  0.00     0.161 C 
ENDROOT
BRANCH   1   2
HETATM    2  N   UNL     1     -42.945  56.342 -55.201  1.00  0.00    -0.268 N 
HETATM    3  N   UNL     1     -42.515  55.748 -54.074  1.00  0.00    -0.172 NA
HETATM    4  C   UNL     1     -41.733  54.736 -54.481  1.00  0.00     0.089 A 
HETATM    5  C   UNL     1     -41.694  54.701 -55.899  1.00  0.00     0.066 A 
HETATM    6  C   UNL     1     -42.487  55.740 -56.348  1.00  0.00     0.065 A 
BRANCH   4   7
HETATM    7  C   UNL     1     -41.080  53.832 -53.525  1.00  0.00    -0.006 A 
HETATM    8  C   UNL     1     -40.449  52.661 -53.973  1.00  0.00     0.014 A 
HETATM    9  C   UNL     1     -39.824  51.791 -53.073  1.00  0.00     0.001 A 
HETATM   10  C   UNL     1     -39.821  52.083 -51.711  1.00  0.00     0.000 A 
HETATM   11  C   UNL     1     -40.439  53.243 -51.250  1.00  0.00     0.001 A 
HETATM   12  C   UNL     1     -41.065  54.112 -52.151  1.00  0.00     0.014 A 
ENDBRANCH   4   7
BRANCH   6  13
HETATM   13  C   UNL     1     -42.862  56.088 -57.714  1.00  0.00    -0.008 A 
HETATM   14  C   UNL     1     -42.322  57.207 -58.359  1.00  0.00     0.014 A 
HETATM   15  C   UNL     1     -42.705  57.524 -59.664  1.00  0.00     0.001 A 
HETATM   16  C   UNL     1     -43.619  56.718 -60.341  1.00  0.00     0.000 A 
HETATM   17  C   UNL     1     -44.146  55.591 -59.716  1.00  0.00     0.001 A 
HETATM   18  C   UNL     1     -43.768  55.276 -58.409  1.00  0.00     0.014 A 
ENDBRANCH   6  13
ENDBRANCH   1   2
BRANCH   1  19
HETATM   19  C   UNL     1     -43.391  58.549 -54.174  1.00  0.00     0.126 C 
BRANCH  19  20
HETATM   20  C   UNL     1     -42.291  59.340 -54.842  1.00  0.00     0.239 C 
HETATM   21  N   UNL     1     -42.647  59.872 -56.067  1.00  0.00    -0.246 N 
HETATM   22  H   UNL     1     -43.619  59.851 -56.387  1.00  0.00     0.192 HD
HETATM   23  O   UNL     1     -41.188  59.450 -54.308  1.00  0.00    -0.272 OA
BRANCH  21  24
HETATM   24  N   UNL     1     -41.733  60.581 -56.790  1.00  0.00    -0.166 NA
HETATM   25  C   UNL     1     -42.132  61.053 -57.926  1.00  0.00     0.157 A 
HETATM   26  C   UNL     1     -43.492  60.890 -58.615  1.00  0.00     0.277 A 
HETATM   27  C   UNL     1     -41.321  61.853 -58.837  1.00  0.00     0.027 A 
HETATM   28  O   UNL     1     -44.415  60.224 -58.193  1.00  0.00    -0.266 OA
HETATM   29  N   UNL     1     -43.398  61.597 -59.793  1.00  0.00    -0.321 N 
HETATM   30  C   UNL     1     -42.128  62.151 -59.933  1.00  0.00     0.048 A 
HETATM   31  H   UNL     1     -44.152  61.663 -60.460  1.00  0.00     0.169 HD
HETATM   32  C   UNL     1     -41.647  62.889 -60.993  1.00  0.00     0.030 A 
HETATM   33  C   UNL     1     -40.317  63.324 -60.922  1.00  0.00     0.002 A 
HETATM   34  C   UNL     1     -39.507  63.019 -59.808  1.00  0.00     0.001 A 
HETATM   35  C   UNL     1     -40.011  62.271 -58.741  1.00  0.00     0.016 A 
ENDBRANCH  21  24
ENDBRANCH  19  20
ENDBRANCH   1  19
TORSDOF 6
ENDMDL
MODEL 6
REMARK VINA RESULT:      -8.8      1.682      5.570
REMARK  6 active torsions:
REMARK  status: ('A' for Active; 'I' for Inactive)
REMARK    1  A    between atoms: C_4  and  C_5 
REMARK    2  A    between atoms: N_7  and  C_8 
REMARK    3  A    between atoms: C_8  and  C_9 
REMARK    4  A    between atoms: C_9  and  C_10 
REMARK       I    between atoms: C_10  and  N_11 
REMARK    5  A    between atoms: N_11  and  N_12 
REMARK    6  A    between atoms: C_24  and  C_25 
ROOT
HETATM    1  C   UNL     1     -43.228  54.020 -53.657  1.00  0.00     0.161 C 
ENDROOT
BRANCH   1   2
HETATM    2  N   UNL     1     -42.467  54.910 -52.794  1.00  0.00    -0.268 N 
HETATM    3  N   UNL     1     -42.918  56.166 -52.629  1.00  0.00    -0.172 NA
HETATM    4  C   UNL     1     -42.091  56.725 -51.733  1.00  0.00     0.089 A 
HETATM    5  C   UNL     1     -41.113  55.781 -51.327  1.00  0.00     0.066 A 
HETATM    6  C   UNL     1     -41.374  54.612 -52.017  1.00  0.00     0.065 A 
BRANCH   4   7
HETATM    7  C   UNL     1     -42.270  58.110 -51.276  1.00  0.00    -0.006 A 
HETATM    8  C   UNL     1     -41.213  58.798 -50.659  1.00  0.00     0.014 A 
HETATM    9  C   UNL     1     -41.371  60.116 -50.220  1.00  0.00     0.001 A 
HETATM   10  C   UNL     1     -42.590  60.766 -50.393  1.00  0.00     0.000 A 
HETATM   11  C   UNL     1     -43.649  60.101 -51.006  1.00  0.00     0.001 A 
HETATM   12  C   UNL     1     -43.490  58.781 -51.444  1.00  0.00     0.014 A 
ENDBRANCH   4   7
BRANCH   6  13
HETATM   13  C   UNL     1     -40.728  53.309 -51.899  1.00  0.00    -0.008 A 
HETATM   14  C   UNL     1     -40.105  52.700 -52.994  1.00  0.00     0.014 A 
HETATM   15  C   UNL     1     -39.502  51.447 -52.856  1.00  0.00     0.001 A 
HETATM   16  C   UNL     1     -39.504  50.801 -51.621  1.00  0.00     0.000 A 
HETATM   17  C   UNL     1     -40.103  51.408 -50.521  1.00  0.00     0.001 A 
HETATM   18  C   UNL     1     -40.711  52.658 -50.658  1.00  0.00     0.014 A 
ENDBRANCH   6  13
ENDBRANCH   1   2
BRANCH   1  19
HETATM   19  C   UNL     1     -42.656  53.934 -55.061  1.00  0.00     0.126 C 
BRANCH  19  20
HETATM   20  C   UNL     1     -42.046  55.249 -55.487  1.00  0.00     0.239 C 
HETATM   21  N   UNL     1     -42.963  56.156 -55.987  1.00  0.00    -0.246 N 
HETATM   22  H   UNL     1     -43.969  55.982 -55.912  1.00  0.00     0.192 HD
HETATM   23  O   UNL     1     -40.834  55.436 -55.395  1.00  0.00    -0.272 OA
BRANCH  21  24
HETATM   24  N   UNL     1     -42.538  57.371 -56.438  1.00  0.00    -0.166 NA
HETATM   25  C   UNL     1     -42.614  57.576 -57.713  1.00  0.00     0.157 A 
HETATM   26  C   UNL     1     -43.075  56.618 -58.818  1.00  0.00     0.277 A 
HETATM   27  C   UNL     1     -42.234  58.809 -58.392  1.00  0.00     0.027 A 
HETATM   28  O   UNL     1     -43.405  55.462 -58.651  1.00  0.00    -0.266 OA
HETATM   29  N   UNL     1     -42.975  57.332 -59.992  1.00  0.00    -0.321 N 
HETATM   30  C   UNL     1     -42.471  58.608 -59.750  1.00  0.00     0.048 A 
HETATM   31  H   UNL     1     -43.210  56.948 -60.895  1.00  0.00     0.169 HD
HETATM   32  C   UNL     1     -42.196  59.591 -60.675  1.00  0.00     0.030 A 
HETATM   33  C   UNL     1     -41.668  60.797 -60.195  1.00  0.00     0.002 A 
HETATM   34  C   UNL     1     -41.432  60.993 -58.818  1.00  0.00     0.001 A 
HETATM   35  C   UNL     1     -41.717  59.986 -57.892  1.00  0.00     0.016 A 
ENDBRANCH  21  24
ENDBRANCH  19  20
ENDBRANCH   1  19
TORSDOF 6
ENDMDL
MODEL 7
REMARK VINA RESULT:      -8.8      3.498      8.032
REMARK  6 active torsions:
REMARK  status: ('A' for Active; 'I' for Inactive)
REMARK    1  A    between atoms: C_4  and  C_5 
REMARK    2  A    between atoms: N_7  and  C_8 
REMARK    3  A    between atoms: C_8  and  C_9 
REMARK    4  A    between atoms: C_9  and  C_10 
REMARK       I    between atoms: C_10  and  N_11 
REMARK    5  A    between atoms: N_11  and  N_12 
REMARK    6  A    between atoms: C_24  and  C_25 
ROOT
HETATM    1  C   UNL     1     -42.871  55.417 -52.293  1.00  0.00     0.161 C 
ENDROOT
BRANCH   1   2
HETATM    2  N   UNL     1     -42.496  55.220 -53.685  1.00  0.00    -0.268 N 
HETATM    3  N   UNL     1     -42.978  56.083 -54.596  1.00  0.00    -0.172 NA
HETATM    4  C   UNL     1     -42.412  55.725 -55.759  1.00  0.00     0.089 A 
HETATM    5  C   UNL     1     -41.548  54.619 -55.552  1.00  0.00     0.066 A 
HETATM    6  C   UNL     1     -41.609  54.310 -54.206  1.00  0.00     0.065 A 
BRANCH   4   7
HETATM    7  C   UNL     1     -42.685  56.452 -57.006  1.00  0.00    -0.006 A 
HETATM    8  C   UNL     1     -43.168  55.771 -58.134  1.00  0.00     0.014 A 
HETATM    9  C   UNL     1     -43.431  56.451 -59.327  1.00  0.00     0.001 A 
HETATM   10  C   UNL     1     -43.215  57.825 -59.408  1.00  0.00     0.000 A 
HETATM   11  C   UNL     1     -42.739  58.518 -58.298  1.00  0.00     0.001 A 
HETATM   12  C   UNL     1     -42.475  57.836 -57.104  1.00  0.00     0.014 A 
ENDBRANCH   4   7
BRANCH   6  13
HETATM   13  C   UNL     1     -40.845  53.320 -53.454  1.00  0.00    -0.008 A 
HETATM   14  C   UNL     1     -40.429  52.118 -54.038  1.00  0.00     0.014 A 
HETATM   15  C   UNL     1     -39.706  51.183 -53.292  1.00  0.00     0.001 A 
HETATM   16  C   UNL     1     -39.381  51.449 -51.963  1.00  0.00     0.000 A 
HETATM   17  C   UNL     1     -39.772  52.650 -51.379  1.00  0.00     0.001 A 
HETATM   18  C   UNL     1     -40.499  53.583 -52.121  1.00  0.00     0.014 A 
ENDBRANCH   6  13
ENDBRANCH   1   2
BRANCH   1  19
HETATM   19  C   UNL     1     -43.923  56.497 -52.118  1.00  0.00     0.126 C 
BRANCH  19  20
HETATM   20  C   UNL     1     -43.306  57.796 -51.654  1.00  0.00     0.239 C 
HETATM   21  N   UNL     1     -44.092  58.907 -51.894  1.00  0.00    -0.246 N 
HETATM   22  H   UNL     1     -45.061  58.808 -52.209  1.00  0.00     0.192 HD
HETATM   23  O   UNL     1     -42.191  57.808 -51.134  1.00  0.00    -0.272 OA
BRANCH  21  24
HETATM   24  N   UNL     1     -43.637  60.147 -51.553  1.00  0.00    -0.166 NA
HETATM   25  C   UNL     1     -44.229  60.732 -50.563  1.00  0.00     0.157 A 
HETATM   26  C   UNL     1     -45.421  60.246 -49.730  1.00  0.00     0.277 A 
HETATM   27  C   UNL     1     -43.882  62.043 -50.029  1.00  0.00     0.027 A 
HETATM   28  O   UNL     1     -46.038  59.218 -49.921  1.00  0.00    -0.266 OA
HETATM   29  N   UNL     1     -45.648  61.235 -48.797  1.00  0.00    -0.321 N 
HETATM   30  C   UNL     1     -44.760  62.292 -48.977  1.00  0.00     0.048 A 
HETATM   31  H   UNL     1     -46.385  61.188 -48.111  1.00  0.00     0.169 HD
HETATM   32  C   UNL     1     -44.705  63.471 -48.265  1.00  0.00     0.030 A 
HETATM   33  C   UNL     1     -43.732  64.406 -48.644  1.00  0.00     0.002 A 
HETATM   34  C   UNL     1     -42.846  64.146 -49.710  1.00  0.00     0.001 A 
HETATM   35  C   UNL     1     -42.915  62.945 -50.421  1.00  0.00     0.016 A 
ENDBRANCH  21  24
ENDBRANCH  19  20
ENDBRANCH   1  19
TORSDOF 6
ENDMDL
MODEL 8
REMARK VINA RESULT:      -8.6      2.319      9.641
REMARK  6 active torsions:
REMARK  status: ('A' for Active; 'I' for Inactive)
REMARK    1  A    between atoms: C_4  and  C_5 
REMARK    2  A    between atoms: N_7  and  C_8 
REMARK    3  A    between atoms: C_8  and  C_9 
REMARK    4  A    between atoms: C_9  and  C_10 
REMARK       I    between atoms: C_10  and  N_11 
REMARK    5  A    between atoms: N_11  and  N_12 
REMARK    6  A    between atoms: C_24  and  C_25 
ROOT
HETATM    1  C   UNL     1     -43.004  57.626 -57.045  1.00  0.00     0.161 C 
ENDROOT
BRANCH   1   2
HETATM    2  N   UNL     1     -42.943  58.584 -58.138  1.00  0.00    -0.268 N 
HETATM    3  N   UNL     1     -41.998  59.539 -58.087  1.00  0.00    -0.172 NA
HETATM    4  C   UNL     1     -42.113  60.214 -59.241  1.00  0.00     0.089 A 
HETATM    5  C   UNL     1     -43.148  59.648 -60.028  1.00  0.00     0.066 A 
HETATM    6  C   UNL     1     -43.670  58.592 -59.304  1.00  0.00     0.065 A 
BRANCH   4   7
HETATM    7  C   UNL     1     -41.228  61.341 -59.567  1.00  0.00    -0.006 A 
HETATM    8  C   UNL     1     -41.116  61.796 -60.890  1.00  0.00     0.014 A 
HETATM    9  C   UNL     1     -40.278  62.868 -61.213  1.00  0.00     0.001 A 
HETATM   10  C   UNL     1     -39.541  63.501 -60.216  1.00  0.00     0.000 A 
HETATM   11  C   UNL     1     -39.643  63.065 -58.897  1.00  0.00     0.001 A 
HETATM   12  C   UNL     1     -40.481  61.992 -58.575  1.00  0.00     0.014 A 
ENDBRANCH   4   7
BRANCH   6  13
HETATM   13  C   UNL     1     -44.687  57.621 -59.695  1.00  0.00    -0.008 A 
HETATM   14  C   UNL     1     -44.380  56.534 -60.521  1.00  0.00     0.014 A 
HETATM   15  C   UNL     1     -45.374  55.623 -60.889  1.00  0.00     0.001 A 
HETATM   16  C   UNL     1     -46.678  55.784 -60.422  1.00  0.00     0.000 A 
HETATM   17  C   UNL     1     -46.988  56.850 -59.583  1.00  0.00     0.001 A 
HETATM   18  C   UNL     1     -45.997  57.764 -59.219  1.00  0.00     0.014 A 
ENDBRANCH   6  13
ENDBRANCH   1   2
BRANCH   1  19
HETATM   19  C   UNL     1     -42.597  56.226 -57.470  1.00  0.00     0.126 C 
BRANCH  19  20
HETATM   20  C   UNL     1     -42.416  55.321 -56.275  1.00  0.00     0.239 C 
HETATM   21  N   UNL     1     -41.303  55.619 -55.510  1.00  0.00    -0.246 N 
HETATM   22  H   UNL     1     -40.767  56.475 -55.673  1.00  0.00     0.192 HD
HETATM   23  O   UNL     1     -43.204  54.402 -56.060  1.00  0.00    -0.272 OA
BRANCH  21  24
HETATM   24  N   UNL     1     -41.005  54.856 -54.419  1.00  0.00    -0.166 NA
HETATM   25  C   UNL     1     -41.168  55.409 -53.261  1.00  0.00     0.157 A 
HETATM   26  C   UNL     1     -41.609  56.839 -52.929  1.00  0.00     0.277 A 
HETATM   27  C   UNL     1     -40.928  54.761 -51.977  1.00  0.00     0.027 A 
HETATM   28  O   UNL     1     -41.834  57.710 -53.744  1.00  0.00    -0.266 OA
HETATM   29  N   UNL     1     -41.633  56.909 -51.553  1.00  0.00    -0.321 N 
HETATM   30  C   UNL     1     -41.223  55.702 -50.993  1.00  0.00     0.048 A 
HETATM   31  H   UNL     1     -41.885  57.744 -51.047  1.00  0.00     0.169 HD
HETATM   32  C   UNL     1     -41.081  55.403 -49.655  1.00  0.00     0.030 A 
HETATM   33  C   UNL     1     -40.628  54.118 -49.328  1.00  0.00     0.002 A 
HETATM   34  C   UNL     1     -40.332  53.171 -50.330  1.00  0.00     0.001 A 
HETATM   35  C   UNL     1     -40.483  53.489 -51.682  1.00  0.00     0.016 A 
ENDBRANCH  21  24
ENDBRANCH  19  20
ENDBRANCH   1  19
TORSDOF 6
ENDMDL
MODEL 9
REMARK VINA RESULT:      -8.6      3.254      8.581
REMARK  6 active torsions:
REMARK  status: ('A' for Active; 'I' for Inactive)
REMARK    1  A    between atoms: C_4  and  C_5 
REMARK    2  A    between atoms: N_7  and  C_8 
REMARK    3  A    between atoms: C_8  and  C_9 
REMARK    4  A    between atoms: C_9  and  C_10 
REMARK       I    between atoms: C_10  and  N_11 
REMARK    5  A    between atoms: N_11  and  N_12 
REMARK    6  A    between atoms: C_24  and  C_25 
ROOT
HETATM    1  C   UNL     1     -42.354  58.147 -54.388  1.00  0.00     0.161 C 
ENDROOT
BRANCH   1   2
HETATM    2  N   UNL     1     -43.296  58.283 -55.489  1.00  0.00    -0.268 N 
HETATM    3  N   UNL     1     -43.250  57.370 -56.474  1.00  0.00    -0.172 NA
HETATM    4  C   UNL     1     -44.266  57.681 -57.294  1.00  0.00     0.089 A 
HETATM    5  C   UNL     1     -44.963  58.809 -56.789  1.00  0.00     0.066 A 
HETATM    6  C   UNL     1     -44.327  59.181 -55.619  1.00  0.00     0.065 A 
BRANCH   4   7
HETATM    7  C   UNL     1     -44.555  56.891 -58.499  1.00  0.00    -0.006 A 
HETATM    8  C   UNL     1     -45.706  57.151 -59.260  1.00  0.00     0.014 A 
HETATM    9  C   UNL     1     -45.992  56.406 -60.408  1.00  0.00     0.001 A 
HETATM   10  C   UNL     1     -45.130  55.390 -60.812  1.00  0.00     0.000 A 
HETATM   11  C   UNL     1     -43.982  55.121 -60.071  1.00  0.00     0.001 A 
HETATM   12  C   UNL     1     -43.696  55.866 -58.922  1.00  0.00     0.014 A 
ENDBRANCH   4   7
BRANCH   6  13
HETATM   13  C   UNL     1     -44.697  60.217 -54.661  1.00  0.00    -0.008 A 
HETATM   14  C   UNL     1     -45.477  59.928 -53.535  1.00  0.00     0.014 A 
HETATM   15  C   UNL     1     -45.826  60.940 -52.638  1.00  0.00     0.001 A 
HETATM   16  C   UNL     1     -45.386  62.245 -52.850  1.00  0.00     0.000 A 
HETATM   17  C   UNL     1     -44.593  62.540 -53.955  1.00  0.00     0.001 A 
HETATM   18  C   UNL     1     -44.248  61.530 -54.856  1.00  0.00     0.014 A 
ENDBRANCH   6  13
ENDBRANCH   1   2
BRANCH   1  19
HETATM   19  C   UNL     1     -42.879  57.257 -53.276  1.00  0.00     0.126 C 
BRANCH  19  20
HETATM   20  C   UNL     1     -42.649  55.796 -53.587  1.00  0.00     0.239 C 
HETATM   21  N   UNL     1     -41.316  55.453 -53.713  1.00  0.00    -0.246 N 
HETATM   22  H   UNL     1     -40.577  56.112 -53.455  1.00  0.00     0.192 HD
HETATM   23  O   UNL     1     -43.600  55.029 -53.727  1.00  0.00    -0.272 OA
BRANCH  21  24
HETATM   24  N   UNL     1     -40.972  54.171 -54.026  1.00  0.00    -0.166 NA
HETATM   25  C   UNL     1     -40.608  53.411 -53.045  1.00  0.00     0.157 A 
HETATM   26  C   UNL     1     -40.459  53.759 -51.559  1.00  0.00     0.277 A 
HETATM   27  C   UNL     1     -40.224  52.009 -53.163  1.00  0.00     0.027 A 
HETATM   28  O   UNL     1     -40.623  54.861 -51.078  1.00  0.00    -0.266 OA
HETATM   29  N   UNL     1     -40.060  52.593 -50.944  1.00  0.00    -0.321 N 
HETATM   30  C   UNL     1     -39.909  51.572 -51.878  1.00  0.00     0.048 A 
HETATM   31  H   UNL     1     -39.877  52.525 -49.954  1.00  0.00     0.169 HD
HETATM   32  C   UNL     1     -39.487  50.280 -51.648  1.00  0.00     0.030 A 
HETATM   33  C   UNL     1     -39.388  49.429 -52.757  1.00  0.00     0.002 A 
HETATM   34  C   UNL     1     -39.711  49.879 -54.054  1.00  0.00     0.001 A 
HETATM   35  C   UNL     1     -40.138  51.192 -54.270  1.00  0.00     0.016 A 
ENDBRANCH  21  24
ENDBRANCH  19  20
ENDBRANCH   1  19
TORSDOF 6
ENDMDL
MODEL 10
REMARK VINA RESULT:      -8.6      2.305      8.633
REMARK  6 active torsions:
REMARK  status: ('A' for Active; 'I' for Inactive)
REMARK    1  A    between atoms: C_4  and  C_5 
REMARK    2  A    between atoms: N_7  and  C_8 
REMARK    3  A    between atoms: C_8  and  C_9 
REMARK    4  A    between atoms: C_9  and  C_10 
REMARK       I    between atoms: C_10  and  N_11 
REMARK    5  A    between atoms: N_11  and  N_12 
REMARK    6  A    between atoms: C_24  and  C_25 
ROOT
HETATM    1  C   UNL     1     -44.331  57.678 -53.614  1.00  0.00     0.161 C 
ENDROOT
BRANCH   1   2
HETATM    2  N   UNL     1     -43.354  58.283 -54.505  1.00  0.00    -0.268 N 
HETATM    3  N   UNL     1     -43.585  58.223 -55.828  1.00  0.00    -0.172 NA
HETATM    4  C   UNL     1     -42.591  58.924 -56.394  1.00  0.00     0.089 A 
HETATM    5  C   UNL     1     -41.733  59.440 -55.389  1.00  0.00     0.066 A 
HETATM    6  C   UNL     1     -42.244  59.022 -54.174  1.00  0.00     0.065 A 
BRANCH   4   7
HETATM    7  C   UNL     1     -42.504  59.102 -57.851  1.00  0.00    -0.006 A 
HETATM    8  C   UNL     1     -42.870  60.322 -58.440  1.00  0.00     0.014 A 
HETATM    9  C   UNL     1     -42.792  60.504 -59.825  1.00  0.00     0.001 A 
HETATM   10  C   UNL     1     -42.344  59.467 -60.639  1.00  0.00     0.000 A 
HETATM   11  C   UNL     1     -41.973  58.250 -60.071  1.00  0.00     0.001 A 
HETATM   12  C   UNL     1     -42.053  58.069 -58.686  1.00  0.00     0.014 A 
ENDBRANCH   4   7
BRANCH   6  13
HETATM   13  C   UNL     1     -41.798  59.355 -52.825  1.00  0.00    -0.008 A 
HETATM   14  C   UNL     1     -40.628  58.808 -52.286  1.00  0.00     0.014 A 
HETATM   15  C   UNL     1     -40.228  59.135 -50.988  1.00  0.00     0.001 A 
HETATM   16  C   UNL     1     -40.987  60.021 -50.224  1.00  0.00     0.000 A 
HETATM   17  C   UNL     1     -42.141  60.586 -50.759  1.00  0.00     0.001 A 
HETATM   18  C   UNL     1     -42.544  60.256 -52.054  1.00  0.00     0.014 A 
ENDBRANCH   6  13
ENDBRANCH   1   2
BRANCH   1  19
HETATM   19  C   UNL     1     -43.694  56.772 -52.575  1.00  0.00     0.126 C 
BRANCH  19  20
HETATM   20  C   UNL     1     -43.253  55.462 -53.186  1.00  0.00     0.239 C 
HETATM   21  N   UNL     1     -41.920  55.165 -52.972  1.00  0.00    -0.246 N 
HETATM   22  H   UNL     1     -41.355  55.719 -52.324  1.00  0.00     0.192 HD
HETATM   23  O   UNL     1     -44.045  54.771 -53.824  1.00  0.00    -0.272 OA
BRANCH  21  24
HETATM   24  N   UNL     1     -41.385  54.026 -53.500  1.00  0.00    -0.166 NA
HETATM   25  C   UNL     1     -40.919  53.160 -52.659  1.00  0.00     0.157 A 
HETATM   26  C   UNL     1     -40.833  53.249 -51.131  1.00  0.00     0.277 A 
HETATM   27  C   UNL     1     -40.329  51.875 -53.015  1.00  0.00     0.027 A 
HETATM   28  O   UNL     1     -41.163  54.209 -50.465  1.00  0.00    -0.266 OA
HETATM   29  N   UNL     1     -40.268  52.061 -50.722  1.00  0.00    -0.321 N 
HETATM   30  C   UNL     1     -39.959  51.261 -51.820  1.00  0.00     0.048 A 
HETATM   31  H   UNL     1     -40.083  51.840 -49.756  1.00  0.00     0.169 HD
HETATM   32  C   UNL     1     -39.350  50.025 -51.812  1.00  0.00     0.030 A 
HETATM   33  C   UNL     1     -39.118  49.414 -53.052  1.00  0.00     0.002 A 
HETATM   34  C   UNL     1     -39.497  50.042 -54.257  1.00  0.00     0.001 A 
HETATM   35  C   UNL     1     -40.114  51.296 -54.248  1.00  0.00     0.016 A 
ENDBRANCH  21  24
ENDBRANCH  19  20
ENDBRANCH   1  19
TORSDOF 6
ENDMDL
