MODEL 1
REMARK VINA RESULT:      -8.6      0.000      0.000
REMARK  4 active torsions:
REMARK  status: ('A' for Active; 'I' for Inactive)
REMARK    1  A    between atoms: C_4  and  O_5 
REMARK    2  A    between atoms: O_5  and  C_6 
REMARK    3  A    between atoms: C_9  and  N_10 
REMARK       I    between atoms: N_10  and  C_11 
REMARK    4  A    between atoms: C_11  and  C_12 
ROOT
HETATM    1  C   UNL     1     -40.952  54.078 -53.263  1.00  0.00     0.076 A 
HETATM    2  C   UNL     1     -42.338  54.139 -53.167  1.00  0.00     0.039 A 
HETATM    3  C   UNL     1     -43.108  54.395 -54.306  1.00  0.00     0.032 A 
HETATM    4  C   UNL     1     -42.492  54.614 -55.542  1.00  0.00     0.035 A 
HETATM    5  C   UNL     1     -41.091  54.586 -55.617  1.00  0.00     0.032 A 
HETATM    6  C   UNL     1     -40.321  54.325 -54.481  1.00  0.00     0.039 A 
ENDROOT
BRANCH   4   7
HETATM    7  N   UNL     1     -43.196  54.851 -56.742  1.00  0.00    -0.323 N 
HETATM    8  C   UNL     1     -43.161  55.989 -57.523  1.00  0.00     0.257 C 
HETATM    9  O   UNL     1     -42.444  56.971 -57.364  1.00  0.00    -0.267 OA
HETATM   10  H   UNL     1     -43.770  54.086 -57.069  1.00  0.00     0.169 HD
BRANCH   8  11
HETATM   11  C   UNL     1     -44.100  55.930 -58.691  1.00  0.00     0.048 A 
HETATM   12  C   UNL     1     -45.044  56.883 -58.779  1.00  0.00     0.108 A 
HETATM   13  N   UNL     1     -45.946  56.882 -59.816  1.00  0.00    -0.333 N 
HETATM   14  C   UNL     1     -45.972  55.934 -60.811  1.00  0.00     0.245 A 
HETATM   15  H   UNL     1     -46.652  57.607 -59.878  1.00  0.00     0.168 HD
HETATM   16  O   UNL     1     -46.775  55.954 -61.736  1.00  0.00    -0.268 OA
HETATM   17  C   UNL     1     -44.956  54.853 -60.696  1.00  0.00     0.075 A 
HETATM   18  C   UNL     1     -44.080  54.865 -59.680  1.00  0.00     0.024 A 
ENDBRANCH   8  11
ENDBRANCH   4   7
BRANCH   1  19
HETATM   19  O   UNL     1     -40.231  53.837 -52.120  1.00  0.00    -0.311 OA
BRANCH  19  20
HETATM   20  C   UNL     1     -40.040  52.522 -51.754  1.00  0.00     0.076 A 
HETATM   21  C   UNL     1     -40.385  52.201 -50.439  1.00  0.00     0.037 A 
HETATM   22  C   UNL     1     -40.262  50.889 -49.980  1.00  0.00     0.003 A 
HETATM   23  C   UNL     1     -39.801  49.891 -50.839  1.00  0.00     0.000 A 
HETATM   24  C   UNL     1     -39.471  50.204 -52.157  1.00  0.00     0.003 A 
HETATM   25  C   UNL     1     -39.597  51.516 -52.618  1.00  0.00     0.037 A 
ENDBRANCH  19  20
ENDBRANCH   1  19
TORSDOF 4
ENDMDL
MODEL 2
REMARK VINA RESULT:      -8.0      1.097      1.869
REMARK  4 active torsions:
REMARK  status: ('A' for Active; 'I' for Inactive)
REMARK    1  A    between atoms: C_4  and  O_5 
REMARK    2  A    between atoms: O_5  and  C_6 
REMARK    3  A    between atoms: C_9  and  N_10 
REMARK       I    between atoms: N_10  and  C_11 
REMARK    4  A    between atoms: C_11  and  C_12 
ROOT
HETATM    1  C   UNL     1     -41.064  54.035 -53.578  1.00  0.00     0.076 A 
HETATM    2  C   UNL     1     -40.436  54.460 -54.743  1.00  0.00     0.039 A 
HETATM    3  C   UNL     1     -41.195  54.979 -55.797  1.00  0.00     0.032 A 
HETATM    4  C   UNL     1     -42.587  55.054 -55.697  1.00  0.00     0.035 A 
HETATM    5  C   UNL     1     -43.211  54.587 -54.529  1.00  0.00     0.032 A 
HETATM    6  C   UNL     1     -42.453  54.073 -53.473  1.00  0.00     0.039 A 
ENDROOT
BRANCH   4   7
HETATM    7  N   UNL     1     -43.422  55.589 -56.701  1.00  0.00    -0.323 N 
HETATM    8  C   UNL     1     -43.335  56.837 -57.286  1.00  0.00     0.257 C 
HETATM    9  O   UNL     1     -42.461  57.678 -57.103  1.00  0.00    -0.267 OA
HETATM   10  H   UNL     1     -44.149  54.973 -57.038  1.00  0.00     0.169 HD
BRANCH   8  11
HETATM   11  C   UNL     1     -44.439  57.107 -58.264  1.00  0.00     0.048 A 
HETATM   12  C   UNL     1     -44.299  56.620 -59.510  1.00  0.00     0.108 A 
HETATM   13  N   UNL     1     -45.266  56.841 -60.461  1.00  0.00    -0.333 N 
HETATM   14  C   UNL     1     -46.413  57.566 -60.237  1.00  0.00     0.245 A 
HETATM   15  H   UNL     1     -45.155  56.466 -61.396  1.00  0.00     0.168 HD
HETATM   16  O   UNL     1     -47.271  57.743 -61.093  1.00  0.00    -0.268 OA
HETATM   17  C   UNL     1     -46.553  58.143 -58.874  1.00  0.00     0.075 A 
HETATM   18  C   UNL     1     -45.603  57.919 -57.952  1.00  0.00     0.024 A 
ENDBRANCH   8  11
ENDBRANCH   4   7
BRANCH   1  19
HETATM   19  O   UNL     1     -40.286  53.519 -52.571  1.00  0.00    -0.311 OA
BRANCH  19  20
HETATM   20  C   UNL     1     -40.023  52.165 -52.600  1.00  0.00     0.076 A 
HETATM   21  C   UNL     1     -39.802  51.563 -51.360  1.00  0.00     0.037 A 
HETATM   22  C   UNL     1     -39.561  50.191 -51.278  1.00  0.00     0.003 A 
HETATM   23  C   UNL     1     -39.550  49.415 -52.437  1.00  0.00     0.000 A 
HETATM   24  C   UNL     1     -39.788  50.010 -53.676  1.00  0.00     0.003 A 
HETATM   25  C   UNL     1     -40.031  51.383 -53.758  1.00  0.00     0.037 A 
ENDBRANCH  19  20
ENDBRANCH   1  19
TORSDOF 4
ENDMDL
MODEL 3
REMARK VINA RESULT:      -7.7      4.368      5.518
REMARK  4 active torsions:
REMARK  status: ('A' for Active; 'I' for Inactive)
REMARK    1  A    between atoms: C_4  and  O_5 
REMARK    2  A    between atoms: O_5  and  C_6 
REMARK    3  A    between atoms: C_9  and  N_10 
REMARK       I    between atoms: N_10  and  C_11 
REMARK    4  A    between atoms: C_11  and  C_12 
ROOT
HETATM    1  C   UNL     1     -40.888  53.695 -54.444  1.00  0.00     0.076 A 
HETATM    2  C   UNL     1     -40.345  54.974 -54.498  1.00  0.00     0.039 A 
HETATM    3  C   UNL     1     -41.138  56.084 -54.190  1.00  0.00     0.032 A 
HETATM    4  C   UNL     1     -42.484  55.920 -53.848  1.00  0.00     0.035 A 
HETATM    5  C   UNL     1     -43.028  54.626 -53.833  1.00  0.00     0.032 A 
HETATM    6  C   UNL     1     -42.236  53.515 -54.136  1.00  0.00     0.039 A 
ENDROOT
BRANCH   4   7
HETATM    7  N   UNL     1     -43.343  56.982 -53.497  1.00  0.00    -0.323 N 
HETATM    8  C   UNL     1     -43.746  57.349 -52.228  1.00  0.00     0.257 C 
HETATM    9  O   UNL     1     -43.362  56.873 -51.165  1.00  0.00    -0.267 OA
HETATM   10  H   UNL     1     -43.678  57.546 -54.267  1.00  0.00     0.169 HD
BRANCH   8  11
HETATM   11  C   UNL     1     -44.732  58.480 -52.227  1.00  0.00     0.048 A 
HETATM   12  C   UNL     1     -44.978  59.090 -53.400  1.00  0.00     0.108 A 
HETATM   13  N   UNL     1     -45.860  60.143 -53.470  1.00  0.00    -0.333 N 
HETATM   14  C   UNL     1     -46.531  60.657 -52.386  1.00  0.00     0.245 A 
HETATM   15  H   UNL     1     -46.044  60.594 -54.359  1.00  0.00     0.168 HD
HETATM   16  O   UNL     1     -47.322  61.587 -52.467  1.00  0.00    -0.268 OA
HETATM   17  C   UNL     1     -46.230  60.014 -51.080  1.00  0.00     0.075 A 
HETATM   18  C   UNL     1     -45.368  58.986 -51.023  1.00  0.00     0.024 A 
ENDBRANCH   8  11
ENDBRANCH   4   7
BRANCH   1  19
HETATM   19  O   UNL     1     -40.082  52.632 -54.767  1.00  0.00    -0.311 OA
BRANCH  19  20
HETATM   20  C   UNL     1     -39.854  51.686 -53.789  1.00  0.00     0.076 A 
HETATM   21  C   UNL     1     -39.832  52.163 -52.477  1.00  0.00     0.037 A 
HETATM   22  C   UNL     1     -39.643  51.280 -51.412  1.00  0.00     0.003 A 
HETATM   23  C   UNL     1     -39.485  49.916 -51.658  1.00  0.00     0.000 A 
HETATM   24  C   UNL     1     -39.523  49.435 -52.966  1.00  0.00     0.003 A 
HETATM   25  C   UNL     1     -39.714  50.316 -54.032  1.00  0.00     0.037 A 
ENDBRANCH  19  20
ENDBRANCH   1  19
TORSDOF 4
ENDMDL
MODEL 4
REMARK VINA RESULT:      -7.5      4.623      6.148
REMARK  4 active torsions:
REMARK  status: ('A' for Active; 'I' for Inactive)
REMARK    1  A    between atoms: C_4  and  O_5 
REMARK    2  A    between atoms: O_5  and  C_6 
REMARK    3  A    between atoms: C_9  and  N_10 
REMARK       I    between atoms: N_10  and  C_11 
REMARK    4  A    between atoms: C_11  and  C_12 
ROOT
HETATM    1  C   UNL     1     -41.074  54.110 -54.056  1.00  0.00     0.076 A 
HETATM    2  C   UNL     1     -42.325  53.768 -53.552  1.00  0.00     0.039 A 
HETATM    3  C   UNL     1     -43.145  54.752 -52.991  1.00  0.00     0.032 A 
HETATM    4  C   UNL     1     -42.707  56.078 -52.911  1.00  0.00     0.035 A 
HETATM    5  C   UNL     1     -41.428  56.401 -53.390  1.00  0.00     0.032 A 
HETATM    6  C   UNL     1     -40.610  55.420 -53.956  1.00  0.00     0.039 A 
ENDROOT
BRANCH   4   7
HETATM    7  N   UNL     1     -43.483  57.133 -52.386  1.00  0.00    -0.323 N 
HETATM    8  C   UNL     1     -44.239  58.049 -53.091  1.00  0.00     0.257 C 
HETATM    9  O   UNL     1     -44.446  58.059 -54.300  1.00  0.00    -0.267 OA
HETATM   10  H   UNL     1     -43.497  57.205 -51.377  1.00  0.00     0.169 HD
BRANCH   8  11
HETATM   11  C   UNL     1     -44.872  59.089 -52.215  1.00  0.00     0.048 A 
HETATM   12  C   UNL     1     -44.607  59.037 -50.898  1.00  0.00     0.108 A 
HETATM   13  N   UNL     1     -45.165  59.950 -50.035  1.00  0.00    -0.333 N 
HETATM   14  C   UNL     1     -46.022  60.952 -50.425  1.00  0.00     0.245 A 
HETATM   15  H   UNL     1     -44.956  59.908 -49.044  1.00  0.00     0.168 HD
HETATM   16  O   UNL     1     -46.501  61.765 -49.645  1.00  0.00    -0.268 OA
HETATM   17  C   UNL     1     -46.352  60.988 -51.874  1.00  0.00     0.075 A 
HETATM   18  C   UNL     1     -45.801  60.091 -52.708  1.00  0.00     0.024 A 
ENDBRANCH   8  11
ENDBRANCH   4   7
BRANCH   1  19
HETATM   19  O   UNL     1     -40.294  53.113 -54.587  1.00  0.00    -0.311 OA
BRANCH  19  20
HETATM   20  C   UNL     1     -40.056  52.004 -53.803  1.00  0.00     0.076 A 
HETATM   21  C   UNL     1     -40.107  50.773 -54.460  1.00  0.00     0.037 A 
HETATM   22  C   UNL     1     -39.848  49.593 -53.763  1.00  0.00     0.003 A 
HETATM   23  C   UNL     1     -39.527  49.641 -52.405  1.00  0.00     0.000 A 
HETATM   24  C   UNL     1     -39.460  50.870 -51.750  1.00  0.00     0.003 A 
HETATM   25  C   UNL     1     -39.716  52.052 -52.447  1.00  0.00     0.037 A 
ENDBRANCH  19  20
ENDBRANCH   1  19
TORSDOF 4
ENDMDL
MODEL 5
REMARK VINA RESULT:      -7.5      4.995      8.520
REMARK  4 active torsions:
REMARK  status: ('A' for Active; 'I' for Inactive)
REMARK    1  A    between atoms: C_4  and  O_5 
REMARK    2  A    between atoms: O_5  and  C_6 
REMARK    3  A    between atoms: C_9  and  N_10 
REMARK       I    between atoms: N_10  and  C_11 
REMARK    4  A    between atoms: C_11  and  C_12 
ROOT
HETATM    1  C   UNL     1     -44.704  57.742 -52.058  1.00  0.00     0.076 A 
HETATM    2  C   UNL     1     -44.363  57.361 -53.352  1.00  0.00     0.039 A 
HETATM    3  C   UNL     1     -43.589  56.216 -53.562  1.00  0.00     0.032 A 
HETATM    4  C   UNL     1     -43.134  55.459 -52.478  1.00  0.00     0.035 A 
HETATM    5  C   UNL     1     -43.454  55.876 -51.177  1.00  0.00     0.032 A 
HETATM    6  C   UNL     1     -44.232  57.018 -50.965  1.00  0.00     0.039 A 
ENDROOT
BRANCH   4   7
HETATM    7  N   UNL     1     -42.374  54.278 -52.605  1.00  0.00    -0.323 N 
HETATM    8  C   UNL     1     -41.136  54.137 -53.202  1.00  0.00     0.257 C 
HETATM    9  O   UNL     1     -40.430  55.032 -53.654  1.00  0.00    -0.267 OA
HETATM   10  H   UNL     1     -42.780  53.450 -52.190  1.00  0.00     0.169 HD
BRANCH   8  11
HETATM   11  C   UNL     1     -40.654  52.717 -53.230  1.00  0.00     0.048 A 
HETATM   12  C   UNL     1     -40.011  52.257 -52.142  1.00  0.00     0.108 A 
HETATM   13  N   UNL     1     -39.530  50.970 -52.106  1.00  0.00    -0.333 N 
HETATM   14  C   UNL     1     -39.646  50.076 -53.144  1.00  0.00     0.245 A 
HETATM   15  H   UNL     1     -39.051  50.629 -51.280  1.00  0.00     0.168 HD
HETATM   16  O   UNL     1     -39.223  48.928 -53.090  1.00  0.00    -0.268 OA
HETATM   17  C   UNL     1     -40.319  50.593 -54.365  1.00  0.00     0.075 A 
HETATM   18  C   UNL     1     -40.785  51.852 -54.390  1.00  0.00     0.024 A 
ENDBRANCH   8  11
ENDBRANCH   4   7
BRANCH   1  19
HETATM   19  O   UNL     1     -45.454  58.880 -51.892  1.00  0.00    -0.311 OA
BRANCH  19  20
HETATM   20  C   UNL     1     -44.877  59.927 -51.205  1.00  0.00     0.076 A 
HETATM   21  C   UNL     1     -45.486  60.269 -49.996  1.00  0.00     0.037 A 
HETATM   22  C   UNL     1     -44.959  61.293 -49.208  1.00  0.00     0.003 A 
HETATM   23  C   UNL     1     -43.814  61.973 -49.624  1.00  0.00     0.000 A 
HETATM   24  C   UNL     1     -43.193  61.623 -50.823  1.00  0.00     0.003 A 
HETATM   25  C   UNL     1     -43.718  60.597 -51.611  1.00  0.00     0.037 A 
ENDBRANCH  19  20
ENDBRANCH   1  19
TORSDOF 4
ENDMDL
MODEL 6
REMARK VINA RESULT:      -7.5      2.549      9.206
REMARK  4 active torsions:
REMARK  status: ('A' for Active; 'I' for Inactive)
REMARK    1  A    between atoms: C_4  and  O_5 
REMARK    2  A    between atoms: O_5  and  C_6 
REMARK    3  A    between atoms: C_9  and  N_10 
REMARK       I    between atoms: N_10  and  C_11 
REMARK    4  A    between atoms: C_11  and  C_12 
ROOT
HETATM    1  C   UNL     1     -42.915  56.877 -57.613  1.00  0.00     0.076 A 
HETATM    2  C   UNL     1     -42.946  55.515 -57.335  1.00  0.00     0.039 A 
HETATM    3  C   UNL     1     -42.609  55.054 -56.058  1.00  0.00     0.032 A 
HETATM    4  C   UNL     1     -42.219  55.953 -55.061  1.00  0.00     0.035 A 
HETATM    5  C   UNL     1     -42.157  57.321 -55.367  1.00  0.00     0.032 A 
HETATM    6  C   UNL     1     -42.498  57.784 -56.641  1.00  0.00     0.039 A 
ENDROOT
BRANCH   4   7
HETATM    7  N   UNL     1     -41.891  55.574 -53.742  1.00  0.00    -0.323 N 
HETATM    8  C   UNL     1     -40.982  54.611 -53.348  1.00  0.00     0.257 C 
HETATM    9  O   UNL     1     -40.228  53.969 -54.072  1.00  0.00    -0.267 OA
HETATM   10  H   UNL     1     -42.364  56.086 -53.010  1.00  0.00     0.169 HD
BRANCH   8  11
HETATM   11  C   UNL     1     -40.944  54.411 -51.862  1.00  0.00     0.048 A 
HETATM   12  C   UNL     1     -41.536  55.343 -51.094  1.00  0.00     0.108 A 
HETATM   13  N   UNL     1     -41.527  55.229 -49.724  1.00  0.00    -0.333 N 
HETATM   14  C   UNL     1     -40.922  54.200 -49.042  1.00  0.00     0.245 A 
HETATM   15  H   UNL     1     -41.979  55.933 -49.153  1.00  0.00     0.168 HD
HETATM   16  O   UNL     1     -40.933  54.108 -47.821  1.00  0.00    -0.268 OA
HETATM   17  C   UNL     1     -40.229  53.189 -49.885  1.00  0.00     0.075 A 
HETATM   18  C   UNL     1     -40.245  53.309 -51.222  1.00  0.00     0.024 A 
ENDBRANCH   8  11
ENDBRANCH   4   7
BRANCH   1  19
HETATM   19  O   UNL     1     -43.240  57.289 -58.882  1.00  0.00    -0.311 OA
BRANCH  19  20
HETATM   20  C   UNL     1     -44.510  57.005 -59.337  1.00  0.00     0.076 A 
HETATM   21  C   UNL     1     -44.589  56.077 -60.378  1.00  0.00     0.037 A 
HETATM   22  C   UNL     1     -45.831  55.696 -60.887  1.00  0.00     0.003 A 
HETATM   23  C   UNL     1     -47.000  56.236 -60.350  1.00  0.00     0.000 A 
HETATM   24  C   UNL     1     -46.926  57.150 -59.299  1.00  0.00     0.003 A 
HETATM   25  C   UNL     1     -45.684  57.530 -58.787  1.00  0.00     0.037 A 
ENDBRANCH  19  20
ENDBRANCH   1  19
TORSDOF 4
ENDMDL
MODEL 7
REMARK VINA RESULT:      -7.5      5.711      6.823
REMARK  4 active torsions:
REMARK  status: ('A' for Active; 'I' for Inactive)
REMARK    1  A    between atoms: C_4  and  O_5 
REMARK    2  A    between atoms: O_5  and  C_6 
REMARK    3  A    between atoms: C_9  and  N_10 
REMARK       I    between atoms: N_10  and  C_11 
REMARK    4  A    between atoms: C_11  and  C_12 
ROOT
HETATM    1  C   UNL     1     -40.744  53.429 -50.417  1.00  0.00     0.076 A 
HETATM    2  C   UNL     1     -40.019  54.520 -49.949  1.00  0.00     0.039 A 
HETATM    3  C   UNL     1     -40.583  55.800 -49.982  1.00  0.00     0.032 A 
HETATM    4  C   UNL     1     -41.866  55.995 -50.504  1.00  0.00     0.035 A 
HETATM    5  C   UNL     1     -42.571  54.890 -51.006  1.00  0.00     0.032 A 
HETATM    6  C   UNL     1     -42.010  53.610 -50.969  1.00  0.00     0.039 A 
ENDROOT
BRANCH   4   7
HETATM    7  N   UNL     1     -42.517  57.246 -50.548  1.00  0.00    -0.323 N 
HETATM    8  C   UNL     1     -42.360  58.240 -51.494  1.00  0.00     0.257 C 
HETATM    9  O   UNL     1     -41.690  58.182 -52.520  1.00  0.00    -0.267 OA
HETATM   10  H   UNL     1     -43.188  57.415 -49.811  1.00  0.00     0.169 HD
BRANCH   8  11
HETATM   11  C   UNL     1     -43.151  59.476 -51.186  1.00  0.00     0.048 A 
HETATM   12  C   UNL     1     -44.387  59.570 -51.708  1.00  0.00     0.108 A 
HETATM   13  N   UNL     1     -45.162  60.682 -51.478  1.00  0.00    -0.333 N 
HETATM   14  C   UNL     1     -44.753  61.762 -50.733  1.00  0.00     0.245 A 
HETATM   15  H   UNL     1     -46.094  60.742 -51.871  1.00  0.00     0.168 HD
HETATM   16  O   UNL     1     -45.461  62.740 -50.527  1.00  0.00    -0.268 OA
HETATM   17  C   UNL     1     -43.372  61.683 -50.188  1.00  0.00     0.075 A 
HETATM   18  C   UNL     1     -42.624  60.592 -50.419  1.00  0.00     0.024 A 
ENDBRANCH   8  11
ENDBRANCH   4   7
BRANCH   1  19
HETATM   19  O   UNL     1     -40.151  52.192 -50.380  1.00  0.00    -0.311 OA
BRANCH  19  20
HETATM   20  C   UNL     1     -39.943  51.549 -51.582  1.00  0.00     0.076 A 
HETATM   21  C   UNL     1     -39.728  50.171 -51.505  1.00  0.00     0.037 A 
HETATM   22  C   UNL     1     -39.541  49.423 -52.669  1.00  0.00     0.003 A 
HETATM   23  C   UNL     1     -39.581  50.051 -53.914  1.00  0.00     0.000 A 
HETATM   24  C   UNL     1     -39.813  51.423 -53.996  1.00  0.00     0.003 A 
HETATM   25  C   UNL     1     -40.001  52.172 -52.833  1.00  0.00     0.037 A 
ENDBRANCH  19  20
ENDBRANCH   1  19
TORSDOF 4
ENDMDL
MODEL 8
REMARK VINA RESULT:      -7.4     14.396     18.019
REMARK  4 active torsions:
REMARK  status: ('A' for Active; 'I' for Inactive)
REMARK    1  A    between atoms: C_4  and  O_5 
REMARK    2  A    between atoms: O_5  and  C_6 
REMARK    3  A    between atoms: C_9  and  N_10 
REMARK       I    between atoms: N_10  and  C_11 
REMARK    4  A    between atoms: C_11  and  C_12 
ROOT
HETATM    1  C   UNL     1     -36.312  41.836 -56.925  1.00  0.00     0.076 A 
HETATM    2  C   UNL     1     -35.047  41.282 -57.087  1.00  0.00     0.039 A 
HETATM    3  C   UNL     1     -34.283  40.942 -55.966  1.00  0.00     0.032 A 
HETATM    4  C   UNL     1     -34.774  41.177 -54.678  1.00  0.00     0.035 A 
HETATM    5  C   UNL     1     -36.037  41.770 -54.529  1.00  0.00     0.032 A 
HETATM    6  C   UNL     1     -36.803  42.105 -55.649  1.00  0.00     0.039 A 
ENDROOT
BRANCH   4   7
HETATM    7  N   UNL     1     -34.080  40.838 -53.496  1.00  0.00    -0.323 N 
HETATM    8  C   UNL     1     -34.325  39.767 -52.658  1.00  0.00     0.257 C 
HETATM    9  O   UNL     1     -35.135  38.864 -52.835  1.00  0.00    -0.267 OA
HETATM   10  H   UNL     1     -33.305  41.441 -53.257  1.00  0.00     0.169 HD
BRANCH   8  11
HETATM   11  C   UNL     1     -33.444  39.757 -51.445  1.00  0.00     0.048 A 
HETATM   12  C   UNL     1     -32.152  40.091 -51.611  1.00  0.00     0.108 A 
HETATM   13  N   UNL     1     -31.285  40.089 -50.544  1.00  0.00    -0.333 N 
HETATM   14  C   UNL     1     -31.645  39.744 -49.263  1.00  0.00     0.245 A 
HETATM   15  H   UNL     1     -30.315  40.347 -50.677  1.00  0.00     0.168 HD
HETATM   16  O   UNL     1     -30.863  39.759 -48.321  1.00  0.00    -0.268 OA
HETATM   17  C   UNL     1     -33.062  39.333 -49.081  1.00  0.00     0.075 A 
HETATM   18  C   UNL     1     -33.900  39.339 -50.130  1.00  0.00     0.024 A 
ENDBRANCH   8  11
ENDBRANCH   4   7
BRANCH   1  19
HETATM   19  O   UNL     1     -37.025  42.168 -58.050  1.00  0.00    -0.311 OA
BRANCH  19  20
HETATM   20  C   UNL     1     -37.417  41.140 -58.882  1.00  0.00     0.076 A 
HETATM   21  C   UNL     1     -38.205  40.149 -58.292  1.00  0.00     0.037 A 
HETATM   22  C   UNL     1     -38.681  39.083 -59.057  1.00  0.00     0.003 A 
HETATM   23  C   UNL     1     -38.378  39.011 -60.417  1.00  0.00     0.000 A 
HETATM   24  C   UNL     1     -37.606  40.008 -61.012  1.00  0.00     0.003 A 
HETATM   25  C   UNL     1     -37.130  41.076 -60.249  1.00  0.00     0.037 A 
ENDBRANCH  19  20
ENDBRANCH   1  19
TORSDOF 4
ENDMDL
MODEL 9
REMARK VINA RESULT:      -7.1      2.811      3.757
REMARK  4 active torsions:
REMARK  status: ('A' for Active; 'I' for Inactive)
REMARK    1  A    between atoms: C_4  and  O_5 
REMARK    2  A    between atoms: O_5  and  C_6 
REMARK    3  A    between atoms: C_9  and  N_10 
REMARK       I    between atoms: N_10  and  C_11 
REMARK    4  A    between atoms: C_11  and  C_12 
ROOT
HETATM    1  C   UNL     1     -42.553  54.380 -53.441  1.00  0.00     0.076 A 
HETATM    2  C   UNL     1     -41.511  54.209 -54.346  1.00  0.00     0.039 A 
HETATM    3  C   UNL     1     -41.416  55.041 -55.466  1.00  0.00     0.032 A 
HETATM    4  C   UNL     1     -42.375  56.032 -55.697  1.00  0.00     0.035 A 
HETATM    5  C   UNL     1     -43.441  56.168 -54.794  1.00  0.00     0.032 A 
HETATM    6  C   UNL     1     -43.535  55.341 -53.671  1.00  0.00     0.039 A 
ENDROOT
BRANCH   4   7
HETATM    7  N   UNL     1     -42.336  56.929 -56.785  1.00  0.00    -0.323 N 
HETATM    8  C   UNL     1     -42.813  56.716 -58.064  1.00  0.00     0.257 C 
HETATM    9  O   UNL     1     -43.437  55.740 -58.465  1.00  0.00    -0.267 OA
HETATM   10  H   UNL     1     -41.931  57.834 -56.590  1.00  0.00     0.169 HD
BRANCH   8  11
HETATM   11  C   UNL     1     -42.532  57.858 -58.994  1.00  0.00     0.048 A 
HETATM   12  C   UNL     1     -41.948  57.572 -60.172  1.00  0.00     0.108 A 
HETATM   13  N   UNL     1     -41.649  58.572 -61.067  1.00  0.00    -0.333 N 
HETATM   14  C   UNL     1     -41.898  59.905 -60.841  1.00  0.00     0.245 A 
HETATM   15  H   UNL     1     -41.214  58.347 -61.954  1.00  0.00     0.168 HD
HETATM   16  O   UNL     1     -41.637  60.782 -61.654  1.00  0.00    -0.268 OA
HETATM   17  C   UNL     1     -42.505  60.232 -59.523  1.00  0.00     0.075 A 
HETATM   18  C   UNL     1     -42.793  59.247 -58.657  1.00  0.00     0.024 A 
ENDBRANCH   8  11
ENDBRANCH   4   7
BRANCH   1  19
HETATM   19  O   UNL     1     -42.620  53.535 -52.360  1.00  0.00    -0.311 OA
BRANCH  19  20
HETATM   20  C   UNL     1     -41.861  53.855 -51.254  1.00  0.00     0.076 A 
HETATM   21  C   UNL     1     -40.710  53.087 -51.065  1.00  0.00     0.037 A 
HETATM   22  C   UNL     1     -39.856  53.354 -49.994  1.00  0.00     0.003 A 
HETATM   23  C   UNL     1     -40.146  54.397 -49.114  1.00  0.00     0.000 A 
HETATM   24  C   UNL     1     -41.286  55.177 -49.310  1.00  0.00     0.003 A 
HETATM   25  C   UNL     1     -42.140  54.912 -50.383  1.00  0.00     0.037 A 
ENDBRANCH  19  20
ENDBRANCH   1  19
TORSDOF 4
ENDMDL
MODEL 10
REMARK VINA RESULT:      -7.1      5.045      8.730
REMARK  4 active torsions:
REMARK  status: ('A' for Active; 'I' for Inactive)
REMARK    1  A    between atoms: C_4  and  O_5 
REMARK    2  A    between atoms: O_5  and  C_6 
REMARK    3  A    between atoms: C_9  and  N_10 
REMARK       I    between atoms: N_10  and  C_11 
REMARK    4  A    between atoms: C_11  and  C_12 
ROOT
HETATM    1  C   UNL     1     -43.077  58.538 -51.263  1.00  0.00     0.076 A 
HETATM    2  C   UNL     1     -43.919  57.594 -51.842  1.00  0.00     0.039 A 
HETATM    3  C   UNL     1     -43.434  56.318 -52.147  1.00  0.00     0.032 A 
HETATM    4  C   UNL     1     -42.099  55.989 -51.894  1.00  0.00     0.035 A 
HETATM    5  C   UNL     1     -41.252  56.963 -51.343  1.00  0.00     0.032 A 
HETATM    6  C   UNL     1     -41.736  58.237 -51.033  1.00  0.00     0.039 A 
ENDROOT
BRANCH   4   7
HETATM    7  N   UNL     1     -41.540  54.718 -52.145  1.00  0.00    -0.323 N 
HETATM    8  C   UNL     1     -40.799  54.331 -53.245  1.00  0.00     0.257 C 
HETATM    9  O   UNL     1     -40.416  55.046 -54.164  1.00  0.00    -0.267 OA
HETATM   10  H   UNL     1     -41.685  54.027 -51.422  1.00  0.00     0.169 HD
BRANCH   8  11
HETATM   11  C   UNL     1     -40.429  52.878 -53.224  1.00  0.00     0.048 A 
HETATM   12  C   UNL     1     -39.964  52.372 -52.068  1.00  0.00     0.108 A 
HETATM   13  N   UNL     1     -39.593  51.050 -51.981  1.00  0.00    -0.333 N 
HETATM   14  C   UNL     1     -39.650  50.166 -53.032  1.00  0.00     0.245 A 
HETATM   15  H   UNL     1     -39.249  50.675 -51.105  1.00  0.00     0.168 HD
HETATM   16  O   UNL     1     -39.327  48.989 -52.935  1.00  0.00    -0.268 OA
HETATM   17  C   UNL     1     -40.123  50.731 -54.323  1.00  0.00     0.075 A 
HETATM   18  C   UNL     1     -40.483  52.022 -54.397  1.00  0.00     0.024 A 
ENDBRANCH   8  11
ENDBRANCH   4   7
BRANCH   1  19
HETATM   19  O   UNL     1     -43.587  59.783 -50.991  1.00  0.00    -0.311 OA
BRANCH  19  20
HETATM   20  C   UNL     1     -43.766  60.643 -52.054  1.00  0.00     0.076 A 
HETATM   21  C   UNL     1     -44.986  61.322 -52.087  1.00  0.00     0.037 A 
HETATM   22  C   UNL     1     -45.252  62.241 -53.103  1.00  0.00     0.003 A 
HETATM   23  C   UNL     1     -44.293  62.491 -54.085  1.00  0.00     0.000 A 
HETATM   24  C   UNL     1     -43.067  61.827 -54.046  1.00  0.00     0.003 A 
HETATM   25  C   UNL     1     -42.799  60.909 -53.028  1.00  0.00     0.037 A 
ENDBRANCH  19  20
ENDBRANCH   1  19
TORSDOF 4
ENDMDL
