MODEL 1
REMARK VINA RESULT:      -8.2      0.000      0.000
REMARK  6 active torsions:
REMARK  status: ('A' for Active; 'I' for Inactive)
REMARK    1  A    between atoms: N_2  and  C_4 
REMARK    2  A    between atoms: C_4  and  C_5 
REMARK    3  A    between atoms: C_5  and  C_6 
REMARK    4  A    between atoms: C_6  and  N_7 
REMARK    5  A    between atoms: C_17  and  C_18 
REMARK    6  A    between atoms: C_26  and  O_27 
ROOT
HETATM    1  N   UNL     1     -42.723  56.826 -58.590  1.00  0.00    -0.327 N 
HETATM    2  C   UNL     1     -43.011  56.312 -57.390  1.00  0.00     0.113 C 
HETATM    3  N   UNL     1     -43.583  55.137 -57.204  1.00  0.00    -0.385 N 
HETATM    4  H   UNL     1     -43.777  54.773 -56.277  1.00  0.00     0.157 HD
HETATM    5  H   UNL     1     -43.942  54.550 -57.942  1.00  0.00     0.157 HD
HETATM    6  C   UNL     1     -42.616  57.123 -56.191  1.00  0.00     0.052 C 
HETATM    7  C   UNL     1     -42.095  58.348 -56.394  1.00  0.00     0.182 C 
HETATM    8  O   UNL     1     -41.686  59.175 -55.362  1.00  0.00    -0.291 OA
HETATM    9  C   UNL     1     -42.003  58.858 -54.067  1.00  0.00     0.087 A 
HETATM   10  C   UNL     1     -42.565  57.628 -53.718  1.00  0.00    -0.011 A 
HETATM   11  C   UNL     1     -42.804  56.585 -54.784  1.00  0.00     0.095 C 
HETATM   12  C   UNL     1     -41.741  59.833 -53.102  1.00  0.00     0.074 A 
HETATM   13  C   UNL     1     -42.061  59.575 -51.776  1.00  0.00     0.068 A 
HETATM   14  C   UNL     1     -42.635  58.365 -51.405  1.00  0.00     0.037 A 
HETATM   15  C   UNL     1     -42.888  57.391 -52.372  1.00  0.00     0.014 A 
HETATM   16  N   UNL     1     -41.942  58.890 -57.638  1.00  0.00    -0.219 NA
HETATM   17  C   UNL     1     -42.266  58.191 -58.659  1.00  0.00     0.214 C 
ENDROOT
BRANCH   1  18
HETATM   18  C   UNL     1     -42.962  56.142 -59.883  1.00  0.00     0.133 C 
BRANCH  18  19
HETATM   19  C   UNL     1     -44.333  56.477 -60.501  1.00  0.00     0.048 C 
BRANCH  19  20
HETATM   20  C   UNL     1     -45.410  55.425 -60.230  1.00  0.00     0.235 C 
BRANCH  20  21
HETATM   21  N   UNL     1     -46.727  56.075 -59.845  1.00  0.00    -0.079 N 
HETATM   22  C   UNL     1     -47.597  56.460 -61.023  1.00  0.00     0.269 C 
HETATM   23  H   UNL     1     -47.282  55.418 -59.278  1.00  0.00     0.278 HD
HETATM   24  C   UNL     1     -46.517  57.282 -58.951  1.00  0.00     0.269 C 
ENDBRANCH  20  21
ENDBRANCH  19  20
ENDBRANCH  18  19
ENDBRANCH   1  18
BRANCH  11  25
HETATM   25  C   UNL     1     -41.958  55.333 -54.543  1.00  0.00    -0.045 A 
HETATM   26  C   UNL     1     -42.494  54.243 -53.833  1.00  0.00     0.010 A 
HETATM   27  C   UNL     1     -41.733  53.091 -53.617  1.00  0.00     0.024 A 
HETATM   28  C   UNL     1     -40.424  53.027 -54.089  1.00  0.00     0.034 A 
HETATM   29 CL   UNL     1     -39.494  51.603 -53.842  1.00  0.00    -0.084 Cl
HETATM   30  C   UNL     1     -39.864  54.109 -54.761  1.00  0.00     0.024 A 
HETATM   31  C   UNL     1     -40.624  55.259 -54.985  1.00  0.00     0.010 A 
ENDBRANCH  11  25
BRANCH  13  32
HETATM   32  O   UNL     1     -41.833  60.489 -50.793  1.00  0.00    -0.361 OA
HETATM   33  H   UNL     1     -42.672  60.745 -50.374  1.00  0.00     0.217 HD
ENDBRANCH  13  32
TORSDOF 6
ENDMDL
MODEL 2
REMARK VINA RESULT:      -7.6      3.449      5.134
REMARK  6 active torsions:
REMARK  status: ('A' for Active; 'I' for Inactive)
REMARK    1  A    between atoms: N_2  and  C_4 
REMARK    2  A    between atoms: C_4  and  C_5 
REMARK    3  A    between atoms: C_5  and  C_6 
REMARK    4  A    between atoms: C_6  and  N_7 
REMARK    5  A    between atoms: C_17  and  C_18 
REMARK    6  A    between atoms: C_26  and  O_27 
ROOT
HETATM    1  N   UNL     1     -42.655  56.505 -56.238  1.00  0.00    -0.327 N 
HETATM    2  C   UNL     1     -42.235  57.072 -55.102  1.00  0.00     0.113 C 
HETATM    3  N   UNL     1     -41.993  58.362 -54.961  1.00  0.00    -0.385 N 
HETATM    4  H   UNL     1     -41.686  58.759 -54.080  1.00  0.00     0.157 HD
HETATM    5  H   UNL     1     -42.012  59.034 -55.714  1.00  0.00     0.157 HD
HETATM    6  C   UNL     1     -42.071  56.171 -53.914  1.00  0.00     0.052 C 
HETATM    7  C   UNL     1     -42.256  54.848 -54.087  1.00  0.00     0.182 C 
HETATM    8  O   UNL     1     -42.142  53.929 -53.058  1.00  0.00    -0.291 OA
HETATM    9  C   UNL     1     -41.616  54.315 -51.853  1.00  0.00     0.087 A 
HETATM   10  C   UNL     1     -41.358  55.653 -51.548  1.00  0.00    -0.011 A 
HETATM   11  C   UNL     1     -41.699  56.729 -52.552  1.00  0.00     0.095 C 
HETATM   12  C   UNL     1     -41.340  53.299 -50.936  1.00  0.00     0.074 A 
HETATM   13  C   UNL     1     -40.786  53.629 -49.706  1.00  0.00     0.068 A 
HETATM   14  C   UNL     1     -40.508  54.952 -49.384  1.00  0.00     0.037 A 
HETATM   15  C   UNL     1     -40.791  55.964 -50.301  1.00  0.00     0.014 A 
HETATM   16  N   UNL     1     -42.553  54.295 -55.299  1.00  0.00    -0.219 NA
HETATM   17  C   UNL     1     -42.707  55.067 -56.308  1.00  0.00     0.214 C 
ENDROOT
BRANCH   1  18
HETATM   18  C   UNL     1     -42.950  57.240 -57.491  1.00  0.00     0.133 C 
BRANCH  18  19
HETATM   19  C   UNL     1     -43.597  56.356 -58.574  1.00  0.00     0.048 C 
BRANCH  19  20
HETATM   20  C   UNL     1     -44.940  56.882 -59.084  1.00  0.00     0.235 C 
BRANCH  20  21
HETATM   21  N   UNL     1     -45.810  55.751 -59.604  1.00  0.00    -0.079 N 
HETATM   22  C   UNL     1     -45.041  54.643 -60.292  1.00  0.00     0.269 C 
HETATM   23  H   UNL     1     -46.309  55.312 -58.817  1.00  0.00     0.278 HD
HETATM   24  C   UNL     1     -46.902  56.262 -60.525  1.00  0.00     0.269 C 
ENDBRANCH  20  21
ENDBRANCH  19  20
ENDBRANCH  18  19
ENDBRANCH   1  18
BRANCH  11  25
HETATM   25  C   UNL     1     -42.778  57.673 -52.017  1.00  0.00    -0.045 A 
HETATM   26  C   UNL     1     -42.444  58.984 -51.631  1.00  0.00     0.010 A 
HETATM   27  C   UNL     1     -43.424  59.856 -51.151  1.00  0.00     0.024 A 
HETATM   28  C   UNL     1     -44.742  59.421 -51.033  1.00  0.00     0.034 A 
HETATM   29 CL   UNL     1     -45.952  60.500 -50.463  1.00  0.00    -0.084 Cl
HETATM   30  C   UNL     1     -45.086  58.116 -51.376  1.00  0.00     0.024 A 
HETATM   31  C   UNL     1     -44.109  57.244 -51.862  1.00  0.00     0.010 A 
ENDBRANCH  11  25
BRANCH  13  32
HETATM   32  O   UNL     1     -40.493  52.681 -48.774  1.00  0.00    -0.361 OA
HETATM   33  H   UNL     1     -41.098  52.759 -48.018  1.00  0.00     0.217 HD
ENDBRANCH  13  32
TORSDOF 6
ENDMDL
MODEL 3
REMARK VINA RESULT:      -7.6      1.382      1.776
REMARK  6 active torsions:
REMARK  status: ('A' for Active; 'I' for Inactive)
REMARK    1  A    between atoms: N_2  and  C_4 
REMARK    2  A    between atoms: C_4  and  C_5 
REMARK    3  A    between atoms: C_5  and  C_6 
REMARK    4  A    between atoms: C_6  and  N_7 
REMARK    5  A    between atoms: C_17  and  C_18 
REMARK    6  A    between atoms: C_26  and  O_27 
ROOT
HETATM    1  N   UNL     1     -43.201  58.128 -57.204  1.00  0.00    -0.327 N 
HETATM    2  C   UNL     1     -43.284  57.396 -56.088  1.00  0.00     0.113 C 
HETATM    3  N   UNL     1     -44.028  56.313 -55.965  1.00  0.00    -0.385 N 
HETATM    4  H   UNL     1     -44.058  55.775 -55.105  1.00  0.00     0.157 HD
HETATM    5  H   UNL     1     -44.677  55.980 -56.662  1.00  0.00     0.157 HD
HETATM    6  C   UNL     1     -42.438  57.829 -54.927  1.00  0.00     0.052 C 
HETATM    7  C   UNL     1     -41.735  58.973 -55.043  1.00  0.00     0.182 C 
HETATM    8  O   UNL     1     -40.914  59.459 -54.040  1.00  0.00    -0.291 OA
HETATM    9  C   UNL     1     -40.958  58.898 -52.790  1.00  0.00     0.087 A 
HETATM   10  C   UNL     1     -41.664  57.722 -52.527  1.00  0.00    -0.011 A 
HETATM   11  C   UNL     1     -42.380  57.010 -53.651  1.00  0.00     0.095 C 
HETATM   12  C   UNL     1     -40.262  59.565 -51.780  1.00  0.00     0.074 A 
HETATM   13  C   UNL     1     -40.289  59.054 -50.489  1.00  0.00     0.068 A 
HETATM   14  C   UNL     1     -40.996  57.894 -50.199  1.00  0.00     0.037 A 
HETATM   15  C   UNL     1     -41.684  57.227 -51.213  1.00  0.00     0.014 A 
HETATM   16  N   UNL     1     -41.785  59.762 -56.155  1.00  0.00    -0.219 NA
HETATM   17  C   UNL     1     -42.495  59.382 -57.150  1.00  0.00     0.214 C 
ENDROOT
BRANCH   1  18
HETATM   18  C   UNL     1     -43.896  57.814 -58.475  1.00  0.00     0.133 C 
BRANCH  18  19
HETATM   19  C   UNL     1     -43.022  57.018 -59.463  1.00  0.00     0.048 C 
BRANCH  19  20
HETATM   20  C   UNL     1     -43.820  56.155 -60.442  1.00  0.00     0.235 C 
BRANCH  20  21
HETATM   21  N   UNL     1     -44.972  55.454 -59.742  1.00  0.00    -0.079 N 
HETATM   22  C   UNL     1     -44.821  53.950 -59.654  1.00  0.00     0.269 C 
HETATM   23  H   UNL     1     -45.043  55.795 -58.773  1.00  0.00     0.278 HD
HETATM   24  C   UNL     1     -46.306  55.797 -60.377  1.00  0.00     0.269 C 
ENDBRANCH  20  21
ENDBRANCH  19  20
ENDBRANCH  18  19
ENDBRANCH   1  18
BRANCH  11  25
HETATM   25  C   UNL     1     -41.788  55.621 -53.900  1.00  0.00    -0.045 A 
HETATM   26  C   UNL     1     -42.353  54.490 -53.284  1.00  0.00     0.010 A 
HETATM   27  C   UNL     1     -41.825  53.217 -53.513  1.00  0.00     0.024 A 
HETATM   28  C   UNL     1     -40.718  53.065 -54.344  1.00  0.00     0.034 A 
HETATM   29 CL   UNL     1     -40.082  51.497 -54.644  1.00  0.00    -0.084 Cl
HETATM   30  C   UNL     1     -40.123  54.176 -54.934  1.00  0.00     0.024 A 
HETATM   31  C   UNL     1     -40.651  55.449 -54.712  1.00  0.00     0.010 A 
ENDBRANCH  11  25
BRANCH  13  32
HETATM   32  O   UNL     1     -39.632  59.663 -49.464  1.00  0.00    -0.361 OA
HETATM   33  H   UNL     1     -38.679  59.484 -49.526  1.00  0.00     0.217 HD
ENDBRANCH  13  32
TORSDOF 6
ENDMDL
MODEL 4
REMARK VINA RESULT:      -7.0      3.248      6.946
REMARK  6 active torsions:
REMARK  status: ('A' for Active; 'I' for Inactive)
REMARK    1  A    between atoms: N_2  and  C_4 
REMARK    2  A    between atoms: C_4  and  C_5 
REMARK    3  A    between atoms: C_5  and  C_6 
REMARK    4  A    between atoms: C_6  and  N_7 
REMARK    5  A    between atoms: C_17  and  C_18 
REMARK    6  A    between atoms: C_26  and  O_27 
ROOT
HETATM    1  N   UNL     1     -42.183  56.463 -54.794  1.00  0.00    -0.327 N 
HETATM    2  C   UNL     1     -42.166  56.560 -56.127  1.00  0.00     0.113 C 
HETATM    3  N   UNL     1     -42.212  55.527 -56.948  1.00  0.00    -0.385 N 
HETATM    4  H   UNL     1     -42.209  55.639 -57.955  1.00  0.00     0.157 HD
HETATM    5  H   UNL     1     -42.172  54.561 -56.656  1.00  0.00     0.157 HD
HETATM    6  C   UNL     1     -42.133  57.943 -56.707  1.00  0.00     0.052 C 
HETATM    7  C   UNL     1     -42.019  58.986 -55.861  1.00  0.00     0.182 C 
HETATM    8  O   UNL     1     -41.990  60.303 -56.287  1.00  0.00    -0.291 OA
HETATM    9  C   UNL     1     -41.856  60.587 -57.621  1.00  0.00     0.087 A 
HETATM   10  C   UNL     1     -41.935  59.598 -58.604  1.00  0.00    -0.011 A 
HETATM   11  C   UNL     1     -42.215  58.167 -58.206  1.00  0.00     0.095 C 
HETATM   12  C   UNL     1     -41.627  61.923 -57.957  1.00  0.00     0.074 A 
HETATM   13  C   UNL     1     -41.462  62.266 -59.292  1.00  0.00     0.068 A 
HETATM   14  C   UNL     1     -41.522  61.298 -60.287  1.00  0.00     0.037 A 
HETATM   15  C   UNL     1     -41.757  59.966 -59.947  1.00  0.00     0.014 A 
HETATM   16  N   UNL     1     -41.903  58.833 -54.510  1.00  0.00    -0.219 NA
HETATM   17  C   UNL     1     -41.948  57.653 -54.017  1.00  0.00     0.214 C 
ENDROOT
BRANCH   1  18
HETATM   18  C   UNL     1     -42.296  55.192 -54.040  1.00  0.00     0.133 C 
BRANCH  18  19
HETATM   19  C   UNL     1     -40.935  54.645 -53.569  1.00  0.00     0.048 C 
BRANCH  19  20
HETATM   20  C   UNL     1     -40.459  53.413 -54.342  1.00  0.00     0.235 C 
BRANCH  20  21
HETATM   21  N   UNL     1     -40.544  52.161 -53.486  1.00  0.00    -0.079 N 
HETATM   22  C   UNL     1     -39.956  52.317 -52.100  1.00  0.00     0.269 C 
HETATM   23  H   UNL     1     -41.532  51.903 -53.354  1.00  0.00     0.278 HD
HETATM   24  C   UNL     1     -39.915  50.966 -54.177  1.00  0.00     0.269 C 
ENDBRANCH  20  21
ENDBRANCH  19  20
ENDBRANCH  18  19
ENDBRANCH   1  18
BRANCH  11  25
HETATM   25  C   UNL     1     -43.548  57.679 -58.776  1.00  0.00    -0.045 A 
HETATM   26  C   UNL     1     -44.762  58.112 -58.211  1.00  0.00     0.010 A 
HETATM   27  C   UNL     1     -45.983  57.679 -58.731  1.00  0.00     0.024 A 
HETATM   28  C   UNL     1     -46.005  56.794 -59.807  1.00  0.00     0.034 A 
HETATM   29 CL   UNL     1     -47.507  56.278 -60.461  1.00  0.00    -0.084 Cl
HETATM   30  C   UNL     1     -44.815  56.325 -60.356  1.00  0.00     0.024 A 
HETATM   31  C   UNL     1     -43.591  56.761 -59.842  1.00  0.00     0.010 A 
ENDBRANCH  11  25
BRANCH  13  32
HETATM   32  O   UNL     1     -41.233  63.551 -59.678  1.00  0.00    -0.361 OA
HETATM   33  H   UNL     1     -41.563  64.166 -59.001  1.00  0.00     0.217 HD
ENDBRANCH  13  32
TORSDOF 6
ENDMDL
MODEL 5
REMARK VINA RESULT:      -7.0      2.567      3.424
REMARK  6 active torsions:
REMARK  status: ('A' for Active; 'I' for Inactive)
REMARK    1  A    between atoms: N_2  and  C_4 
REMARK    2  A    between atoms: C_4  and  C_5 
REMARK    3  A    between atoms: C_5  and  C_6 
REMARK    4  A    between atoms: C_6  and  N_7 
REMARK    5  A    between atoms: C_17  and  C_18 
REMARK    6  A    between atoms: C_26  and  O_27 
ROOT
HETATM    1  N   UNL     1     -43.266  56.515 -55.995  1.00  0.00    -0.327 N 
HETATM    2  C   UNL     1     -43.789  56.356 -54.775  1.00  0.00     0.113 C 
HETATM    3  N   UNL     1     -44.139  55.191 -54.263  1.00  0.00    -0.385 N 
HETATM    4  H   UNL     1     -44.523  55.107 -53.328  1.00  0.00     0.157 HD
HETATM    5  H   UNL     1     -44.133  54.317 -54.768  1.00  0.00     0.157 HD
HETATM    6  C   UNL     1     -43.944  57.591 -53.937  1.00  0.00     0.052 C 
HETATM    7  C   UNL     1     -43.647  58.781 -54.494  1.00  0.00     0.182 C 
HETATM    8  O   UNL     1     -43.743  59.980 -53.809  1.00  0.00    -0.291 OA
HETATM    9  C   UNL     1     -44.361  60.020 -52.587  1.00  0.00     0.087 A 
HETATM   10  C   UNL     1     -44.739  58.862 -51.905  1.00  0.00    -0.011 A 
HETATM   11  C   UNL     1     -44.431  57.508 -52.502  1.00  0.00     0.095 C 
HETATM   12  C   UNL     1     -44.604  61.286 -52.050  1.00  0.00     0.074 A 
HETATM   13  C   UNL     1     -45.246  61.389 -50.823  1.00  0.00     0.068 A 
HETATM   14  C   UNL     1     -45.645  60.251 -50.132  1.00  0.00     0.037 A 
HETATM   15  C   UNL     1     -45.394  58.989 -50.670  1.00  0.00     0.014 A 
HETATM   16  N   UNL     1     -43.243  58.909 -55.792  1.00  0.00    -0.219 NA
HETATM   17  C   UNL     1     -43.097  57.853 -56.499  1.00  0.00     0.214 C 
ENDROOT
BRANCH   1  18
HETATM   18  C   UNL     1     -42.964  55.410 -56.936  1.00  0.00     0.133 C 
BRANCH  18  19
HETATM   19  C   UNL     1     -42.978  55.849 -58.412  1.00  0.00     0.048 C 
BRANCH  19  20
HETATM   20  C   UNL     1     -44.145  55.277 -59.219  1.00  0.00     0.235 C 
BRANCH  20  21
HETATM   21  N   UNL     1     -45.251  56.303 -59.388  1.00  0.00    -0.079 N 
HETATM   22  C   UNL     1     -46.367  55.866 -60.313  1.00  0.00     0.269 C 
HETATM   23  H   UNL     1     -45.689  56.488 -58.474  1.00  0.00     0.278 HD
HETATM   24  C   UNL     1     -44.708  57.644 -59.841  1.00  0.00     0.269 C 
ENDBRANCH  20  21
ENDBRANCH  19  20
ENDBRANCH  18  19
ENDBRANCH   1  18
BRANCH  11  25
HETATM   25  C   UNL     1     -43.460  56.716 -51.623  1.00  0.00    -0.045 A 
HETATM   26  C   UNL     1     -42.124  57.137 -51.486  1.00  0.00     0.010 A 
HETATM   27  C   UNL     1     -41.234  56.426 -50.678  1.00  0.00     0.024 A 
HETATM   28  C   UNL     1     -41.663  55.279 -50.015  1.00  0.00     0.034 A 
HETATM   29 CL   UNL     1     -40.575  54.416 -49.003  1.00  0.00    -0.084 Cl
HETATM   30  C   UNL     1     -42.971  54.827 -50.166  1.00  0.00     0.024 A 
HETATM   31  C   UNL     1     -43.866  55.538 -50.969  1.00  0.00     0.010 A 
ENDBRANCH  11  25
BRANCH  13  32
HETATM   32  O   UNL     1     -45.513  62.596 -50.253  1.00  0.00    -0.361 OA
HETATM   33  H   UNL     1     -44.914  62.750 -49.504  1.00  0.00     0.217 HD
ENDBRANCH  13  32
TORSDOF 6
ENDMDL
MODEL 6
REMARK VINA RESULT:      -7.0      3.654      7.458
REMARK  6 active torsions:
REMARK  status: ('A' for Active; 'I' for Inactive)
REMARK    1  A    between atoms: N_2  and  C_4 
REMARK    2  A    between atoms: C_4  and  C_5 
REMARK    3  A    between atoms: C_5  and  C_6 
REMARK    4  A    between atoms: C_6  and  N_7 
REMARK    5  A    between atoms: C_17  and  C_18 
REMARK    6  A    between atoms: C_26  and  O_27 
ROOT
HETATM    1  N   UNL     1     -42.262  54.658 -53.335  1.00  0.00    -0.327 N 
HETATM    2  C   UNL     1     -43.231  55.561 -53.517  1.00  0.00     0.113 C 
HETATM    3  N   UNL     1     -44.049  55.975 -52.567  1.00  0.00    -0.385 N 
HETATM    4  H   UNL     1     -44.766  56.671 -52.739  1.00  0.00     0.157 HD
HETATM    5  H   UNL     1     -44.087  55.589 -51.635  1.00  0.00     0.157 HD
HETATM    6  C   UNL     1     -43.354  56.158 -54.888  1.00  0.00     0.052 C 
HETATM    7  C   UNL     1     -42.559  55.680 -55.865  1.00  0.00     0.182 C 
HETATM    8  O   UNL     1     -42.580  56.165 -57.162  1.00  0.00    -0.291 OA
HETATM    9  C   UNL     1     -43.581  57.015 -57.555  1.00  0.00     0.087 A 
HETATM   10  C   UNL     1     -44.486  57.570 -56.648  1.00  0.00    -0.011 A 
HETATM   11  C   UNL     1     -44.351  57.265 -55.175  1.00  0.00     0.095 C 
HETATM   12  C   UNL     1     -43.659  57.299 -58.920  1.00  0.00     0.074 A 
HETATM   13  C   UNL     1     -44.665  58.138 -59.380  1.00  0.00     0.068 A 
HETATM   14  C   UNL     1     -45.587  58.691 -58.499  1.00  0.00     0.037 A 
HETATM   15  C   UNL     1     -45.501  58.409 -57.136  1.00  0.00     0.014 A 
HETATM   16  N   UNL     1     -41.674  54.660 -55.665  1.00  0.00    -0.219 NA
HETATM   17  C   UNL     1     -41.560  54.163 -54.491  1.00  0.00     0.214 C 
ENDROOT
BRANCH   1  18
HETATM   18  C   UNL     1     -41.935  54.019 -52.038  1.00  0.00     0.133 C 
BRANCH  18  19
HETATM   19  C   UNL     1     -40.458  53.596 -51.926  1.00  0.00     0.048 C 
BRANCH  19  20
HETATM   20  C   UNL     1     -40.227  52.377 -51.031  1.00  0.00     0.235 C 
BRANCH  20  21
HETATM   21  N   UNL     1     -39.368  51.338 -51.730  1.00  0.00    -0.079 N 
HETATM   22  C   UNL     1     -39.616  51.228 -53.219  1.00  0.00     0.269 C 
HETATM   23  H   UNL     1     -38.374  51.584 -51.619  1.00  0.00     0.278 HD
HETATM   24  C   UNL     1     -39.507  49.971 -51.087  1.00  0.00     0.269 C 
ENDBRANCH  20  21
ENDBRANCH  19  20
ENDBRANCH  18  19
ENDBRANCH   1  18
BRANCH  11  25
HETATM   25  C   UNL     1     -44.039  58.527 -54.368  1.00  0.00    -0.045 A 
HETATM   26  C   UNL     1     -45.043  59.144 -53.599  1.00  0.00     0.010 A 
HETATM   27  C   UNL     1     -44.764  60.290 -52.852  1.00  0.00     0.024 A 
HETATM   28  C   UNL     1     -43.485  60.843 -52.881  1.00  0.00     0.034 A 
HETATM   29 CL   UNL     1     -43.136  62.241 -51.945  1.00  0.00    -0.084 Cl
HETATM   30  C   UNL     1     -42.488  60.269 -53.664  1.00  0.00     0.024 A 
HETATM   31  C   UNL     1     -42.763  59.119 -54.408  1.00  0.00     0.010 A 
ENDBRANCH  11  25
BRANCH  13  32
HETATM   32  O   UNL     1     -44.793  58.448 -60.700  1.00  0.00    -0.361 OA
HETATM   33  H   UNL     1     -44.341  59.287 -60.890  1.00  0.00     0.217 HD
ENDBRANCH  13  32
TORSDOF 6
ENDMDL
MODEL 7
REMARK VINA RESULT:      -6.9      3.906      7.138
REMARK  6 active torsions:
REMARK  status: ('A' for Active; 'I' for Inactive)
REMARK    1  A    between atoms: N_2  and  C_4 
REMARK    2  A    between atoms: C_4  and  C_5 
REMARK    3  A    between atoms: C_5  and  C_6 
REMARK    4  A    between atoms: C_6  and  N_7 
REMARK    5  A    between atoms: C_17  and  C_18 
REMARK    6  A    between atoms: C_26  and  O_27 
ROOT
HETATM    1  N   UNL     1     -44.460  58.189 -52.497  1.00  0.00    -0.327 N 
HETATM    2  C   UNL     1     -44.458  57.203 -53.399  1.00  0.00     0.113 C 
HETATM    3  N   UNL     1     -45.367  57.059 -54.345  1.00  0.00    -0.385 N 
HETATM    4  H   UNL     1     -45.327  56.304 -55.020  1.00  0.00     0.157 HD
HETATM    5  H   UNL     1     -46.201  57.621 -54.429  1.00  0.00     0.157 HD
HETATM    6  C   UNL     1     -43.318  56.229 -53.337  1.00  0.00     0.052 C 
HETATM    7  C   UNL     1     -42.434  56.346 -52.327  1.00  0.00     0.182 C 
HETATM    8  O   UNL     1     -41.340  55.510 -52.180  1.00  0.00    -0.291 OA
HETATM    9  C   UNL     1     -41.237  54.380 -52.948  1.00  0.00     0.087 A 
HETATM   10  C   UNL     1     -42.100  54.125 -54.017  1.00  0.00    -0.011 A 
HETATM   11  C   UNL     1     -43.165  55.134 -54.377  1.00  0.00     0.095 C 
HETATM   12  C   UNL     1     -40.224  53.482 -52.607  1.00  0.00     0.074 A 
HETATM   13  C   UNL     1     -40.086  52.309 -53.338  1.00  0.00     0.068 A 
HETATM   14  C   UNL     1     -40.940  52.025 -54.396  1.00  0.00     0.037 A 
HETATM   15  C   UNL     1     -41.947  52.929 -54.737  1.00  0.00     0.014 A 
HETATM   16  N   UNL     1     -42.552  57.290 -51.347  1.00  0.00    -0.219 NA
HETATM   17  C   UNL     1     -43.516  58.128 -51.411  1.00  0.00     0.214 C 
ENDROOT
BRANCH   1  18
HETATM   18  C   UNL     1     -45.455  59.288 -52.448  1.00  0.00     0.133 C 
BRANCH  18  19
HETATM   19  C   UNL     1     -46.090  59.469 -51.056  1.00  0.00     0.048 C 
BRANCH  19  20
HETATM   20  C   UNL     1     -45.821  60.836 -50.425  1.00  0.00     0.235 C 
BRANCH  20  21
HETATM   21  N   UNL     1     -44.703  60.757 -49.400  1.00  0.00    -0.079 N 
HETATM   22  C   UNL     1     -45.089  61.247 -48.021  1.00  0.00     0.269 C 
HETATM   23  H   UNL     1     -44.410  59.776 -49.287  1.00  0.00     0.278 HD
HETATM   24  C   UNL     1     -43.458  61.485 -49.870  1.00  0.00     0.269 C 
ENDBRANCH  20  21
ENDBRANCH  19  20
ENDBRANCH  18  19
ENDBRANCH   1  18
BRANCH  11  25
HETATM   25  C   UNL     1     -42.937  55.714 -55.775  1.00  0.00    -0.045 A 
HETATM   26  C   UNL     1     -42.319  56.968 -55.930  1.00  0.00     0.010 A 
HETATM   27  C   UNL     1     -42.098  57.499 -57.203  1.00  0.00     0.024 A 
HETATM   28  C   UNL     1     -42.510  56.793 -58.331  1.00  0.00     0.034 A 
HETATM   29 CL   UNL     1     -42.220  57.436 -59.897  1.00  0.00    -0.084 Cl
HETATM   30  C   UNL     1     -43.157  55.568 -58.196  1.00  0.00     0.024 A 
HETATM   31  C   UNL     1     -43.373  55.030 -56.925  1.00  0.00     0.010 A 
ENDBRANCH  11  25
BRANCH  13  32
HETATM   32  O   UNL     1     -39.119  51.395 -53.049  1.00  0.00    -0.361 OA
HETATM   33  H   UNL     1     -39.329  50.940 -52.216  1.00  0.00     0.217 HD
ENDBRANCH  13  32
TORSDOF 6
ENDMDL
MODEL 8
REMARK VINA RESULT:      -6.9      3.660      6.373
REMARK  6 active torsions:
REMARK  status: ('A' for Active; 'I' for Inactive)
REMARK    1  A    between atoms: N_2  and  C_4 
REMARK    2  A    between atoms: C_4  and  C_5 
REMARK    3  A    between atoms: C_5  and  C_6 
REMARK    4  A    between atoms: C_6  and  N_7 
REMARK    5  A    between atoms: C_17  and  C_18 
REMARK    6  A    between atoms: C_26  and  O_27 
ROOT
HETATM    1  N   UNL     1     -42.282  55.143 -53.995  1.00  0.00    -0.327 N 
HETATM    2  C   UNL     1     -42.481  56.253 -53.275  1.00  0.00     0.113 C 
HETATM    3  N   UNL     1     -42.641  56.269 -51.965  1.00  0.00    -0.385 N 
HETATM    4  H   UNL     1     -42.778  57.132 -51.451  1.00  0.00     0.157 HD
HETATM    5  H   UNL     1     -42.720  55.446 -51.387  1.00  0.00     0.157 HD
HETATM    6  C   UNL     1     -42.480  57.554 -54.021  1.00  0.00     0.052 C 
HETATM    7  C   UNL     1     -42.383  57.519 -55.364  1.00  0.00     0.182 C 
HETATM    8  O   UNL     1     -42.361  58.659 -56.150  1.00  0.00    -0.291 OA
HETATM    9  C   UNL     1     -42.660  59.876 -55.595  1.00  0.00     0.087 A 
HETATM   10  C   UNL     1     -42.806  60.050 -54.217  1.00  0.00    -0.011 A 
HETATM   11  C   UNL     1     -42.594  58.878 -53.287  1.00  0.00     0.095 C 
HETATM   12  C   UNL     1     -42.821  60.945 -56.479  1.00  0.00     0.074 A 
HETATM   13  C   UNL     1     -43.145  62.197 -55.975  1.00  0.00     0.068 A 
HETATM   14  C   UNL     1     -43.310  62.393 -54.610  1.00  0.00     0.037 A 
HETATM   15  C   UNL     1     -43.142  61.324 -53.729  1.00  0.00     0.014 A 
HETATM   16  N   UNL     1     -42.317  56.353 -56.071  1.00  0.00    -0.219 NA
HETATM   17  C   UNL     1     -42.302  55.245 -55.431  1.00  0.00     0.214 C 
ENDROOT
BRANCH   1  18
HETATM   18  C   UNL     1     -42.171  53.777 -53.429  1.00  0.00     0.133 C 
BRANCH  18  19
HETATM   19  C   UNL     1     -40.715  53.345 -53.171  1.00  0.00     0.048 C 
BRANCH  19  20
HETATM   20  C   UNL     1     -40.147  52.410 -54.240  1.00  0.00     0.235 C 
BRANCH  20  21
HETATM   21  N   UNL     1     -39.362  51.271 -53.611  1.00  0.00    -0.079 N 
HETATM   22  C   UNL     1     -39.719  49.901 -54.148  1.00  0.00     0.269 C 
HETATM   23  H   UNL     1     -38.358  51.403 -53.797  1.00  0.00     0.278 HD
HETATM   24  C   UNL     1     -39.484  51.274 -52.099  1.00  0.00     0.269 C 
ENDBRANCH  20  21
ENDBRANCH  19  20
ENDBRANCH  18  19
ENDBRANCH   1  18
BRANCH  11  25
HETATM   25  C   UNL     1     -41.402  59.110 -52.356  1.00  0.00    -0.045 A 
HETATM   26  C   UNL     1     -40.089  58.920 -52.825  1.00  0.00     0.010 A 
HETATM   27  C   UNL     1     -38.995  59.140 -51.986  1.00  0.00     0.024 A 
HETATM   28  C   UNL     1     -39.202  59.532 -50.665  1.00  0.00     0.034 A 
HETATM   29 CL   UNL     1     -37.856  59.823 -49.637  1.00  0.00    -0.084 Cl
HETATM   30  C   UNL     1     -40.494  59.690 -50.172  1.00  0.00     0.024 A 
HETATM   31  C   UNL     1     -41.590  59.477 -51.011  1.00  0.00     0.010 A 
ENDBRANCH  11  25
BRANCH  13  32
HETATM   32  O   UNL     1     -43.317  63.274 -56.790  1.00  0.00    -0.361 OA
HETATM   33  H   UNL     1     -42.501  63.451 -57.286  1.00  0.00     0.217 HD
ENDBRANCH  13  32
TORSDOF 6
ENDMDL
MODEL 9
REMARK VINA RESULT:      -6.9      1.593      2.050
REMARK  6 active torsions:
REMARK  status: ('A' for Active; 'I' for Inactive)
REMARK    1  A    between atoms: N_2  and  C_4 
REMARK    2  A    between atoms: C_4  and  C_5 
REMARK    3  A    between atoms: C_5  and  C_6 
REMARK    4  A    between atoms: C_6  and  N_7 
REMARK    5  A    between atoms: C_17  and  C_18 
REMARK    6  A    between atoms: C_26  and  O_27 
ROOT
HETATM    1  N   UNL     1     -43.281  57.321 -57.286  1.00  0.00    -0.327 N 
HETATM    2  C   UNL     1     -43.281  56.679 -56.114  1.00  0.00     0.113 C 
HETATM    3  N   UNL     1     -43.938  55.558 -55.881  1.00  0.00    -0.385 N 
HETATM    4  H   UNL     1     -43.905  55.092 -54.981  1.00  0.00     0.157 HD
HETATM    5  H   UNL     1     -44.576  55.122 -56.530  1.00  0.00     0.157 HD
HETATM    6  C   UNL     1     -42.443  57.268 -55.017  1.00  0.00     0.052 C 
HETATM    7  C   UNL     1     -41.832  58.447 -55.246  1.00  0.00     0.182 C 
HETATM    8  O   UNL     1     -41.026  59.073 -54.310  1.00  0.00    -0.291 OA
HETATM    9  C   UNL     1     -40.997  58.615 -53.019  1.00  0.00     0.087 A 
HETATM   10  C   UNL     1     -41.605  57.416 -52.640  1.00  0.00    -0.011 A 
HETATM   11  C   UNL     1     -42.291  56.563 -53.682  1.00  0.00     0.095 C 
HETATM   12  C   UNL     1     -40.330  59.412 -52.087  1.00  0.00     0.074 A 
HETATM   13  C   UNL     1     -40.286  59.008 -50.759  1.00  0.00     0.068 A 
HETATM   14  C   UNL     1     -40.896  57.827 -50.355  1.00  0.00     0.037 A 
HETATM   15  C   UNL     1     -41.556  57.031 -51.291  1.00  0.00     0.014 A 
HETATM   16  N   UNL     1     -41.969  59.136 -56.416  1.00  0.00    -0.219 NA
HETATM   17  C   UNL     1     -42.672  58.625 -57.354  1.00  0.00     0.214 C 
ENDROOT
BRANCH   1  18
HETATM   18  C   UNL     1     -43.981  56.853 -58.506  1.00  0.00     0.133 C 
BRANCH  18  19
HETATM   19  C   UNL     1     -44.858  57.940 -59.156  1.00  0.00     0.048 C 
BRANCH  19  20
HETATM   20  C   UNL     1     -46.284  57.998 -58.605  1.00  0.00     0.235 C 
BRANCH  20  21
HETATM   21  N   UNL     1     -46.979  59.284 -59.017  1.00  0.00    -0.079 N 
HETATM   22  C   UNL     1     -48.046  59.750 -58.049  1.00  0.00     0.269 C 
HETATM   23  H   UNL     1     -46.287  60.045 -59.074  1.00  0.00     0.278 HD
HETATM   24  C   UNL     1     -47.565  59.182 -60.413  1.00  0.00     0.269 C 
ENDBRANCH  20  21
ENDBRANCH  19  20
ENDBRANCH  18  19
ENDBRANCH   1  18
BRANCH  11  25
HETATM   25  C   UNL     1     -41.602  55.206 -53.837  1.00  0.00    -0.045 A 
HETATM   26  C   UNL     1     -40.537  55.051 -54.744  1.00  0.00     0.010 A 
HETATM   27  C   UNL     1     -39.896  53.818 -54.884  1.00  0.00     0.024 A 
HETATM   28  C   UNL     1     -40.323  52.725 -54.135  1.00  0.00     0.034 A 
HETATM   29 CL   UNL     1     -39.521  51.213 -54.291  1.00  0.00    -0.084 Cl
HETATM   30  C   UNL     1     -41.398  52.848 -53.259  1.00  0.00     0.024 A 
HETATM   31  C   UNL     1     -42.038  54.081 -53.112  1.00  0.00     0.010 A 
ENDBRANCH  11  25
BRANCH  13  32
HETATM   32  O   UNL     1     -39.653  59.747 -49.806  1.00  0.00    -0.361 OA
HETATM   33  H   UNL     1     -40.151  59.711 -48.972  1.00  0.00     0.217 HD
ENDBRANCH  13  32
TORSDOF 6
ENDMDL
MODEL 10
REMARK VINA RESULT:      -6.8      3.704      7.420
REMARK  6 active torsions:
REMARK  status: ('A' for Active; 'I' for Inactive)
REMARK    1  A    between atoms: N_2  and  C_4 
REMARK    2  A    between atoms: C_4  and  C_5 
REMARK    3  A    between atoms: C_5  and  C_6 
REMARK    4  A    between atoms: C_6  and  N_7 
REMARK    5  A    between atoms: C_17  and  C_18 
REMARK    6  A    between atoms: C_26  and  O_27 
ROOT
HETATM    1  N   UNL     1     -41.789  53.803 -52.854  1.00  0.00    -0.327 N 
HETATM    2  C   UNL     1     -42.794  54.685 -52.865  1.00  0.00     0.113 C 
HETATM    3  N   UNL     1     -43.610  54.894 -51.848  1.00  0.00    -0.385 N 
HETATM    4  H   UNL     1     -44.354  55.581 -51.888  1.00  0.00     0.157 HD
HETATM    5  H   UNL     1     -43.618  54.349 -50.999  1.00  0.00     0.157 HD
HETATM    6  C   UNL     1     -42.962  55.508 -54.108  1.00  0.00     0.052 C 
HETATM    7  C   UNL     1     -42.166  55.240 -55.162  1.00  0.00     0.182 C 
HETATM    8  O   UNL     1     -42.228  55.944 -56.353  1.00  0.00    -0.291 OA
HETATM    9  C   UNL     1     -43.265  56.810 -56.581  1.00  0.00     0.087 A 
HETATM   10  C   UNL     1     -44.175  57.161 -55.581  1.00  0.00    -0.011 A 
HETATM   11  C   UNL     1     -44.004  56.608 -54.185  1.00  0.00     0.095 C 
HETATM   12  C   UNL     1     -43.377  57.325 -57.873  1.00  0.00     0.074 A 
HETATM   13  C   UNL     1     -44.422  58.192 -58.168  1.00  0.00     0.068 A 
HETATM   14  C   UNL     1     -45.348  58.545 -57.195  1.00  0.00     0.037 A 
HETATM   15  C   UNL     1     -45.228  58.033 -55.903  1.00  0.00     0.014 A 
HETATM   16  N   UNL     1     -41.242  54.236 -55.154  1.00  0.00    -0.219 NA
HETATM   17  C   UNL     1     -41.090  53.546 -54.087  1.00  0.00     0.214 C 
ENDROOT
BRANCH   1  18
HETATM   18  C   UNL     1     -41.417  52.960 -51.693  1.00  0.00     0.133 C 
BRANCH  18  19
HETATM   19  C   UNL     1     -39.909  52.990 -51.382  1.00  0.00     0.048 C 
BRANCH  19  20
HETATM   20  C   UNL     1     -39.531  53.925 -50.231  1.00  0.00     0.235 C 
BRANCH  20  21
HETATM   21  N   UNL     1     -40.752  54.314 -49.417  1.00  0.00    -0.079 N 
HETATM   22  C   UNL     1     -41.113  55.782 -49.503  1.00  0.00     0.269 C 
HETATM   23  H   UNL     1     -41.573  53.793 -49.759  1.00  0.00     0.278 HD
HETATM   24  C   UNL     1     -40.609  53.907 -47.963  1.00  0.00     0.269 C 
ENDBRANCH  20  21
ENDBRANCH  19  20
ENDBRANCH  18  19
ENDBRANCH   1  18
BRANCH  11  25
HETATM   25  C   UNL     1     -43.724  57.721 -53.173  1.00  0.00    -0.045 A 
HETATM   26  C   UNL     1     -42.457  58.330 -53.122  1.00  0.00     0.010 A 
HETATM   27  C   UNL     1     -42.197  59.354 -52.208  1.00  0.00     0.024 A 
HETATM   28  C   UNL     1     -43.191  59.764 -51.323  1.00  0.00     0.034 A 
HETATM   29 CL   UNL     1     -42.878  61.037 -50.212  1.00  0.00    -0.084 Cl
HETATM   30  C   UNL     1     -44.439  59.148 -51.333  1.00  0.00     0.024 A 
HETATM   31  C   UNL     1     -44.705  58.128 -52.250  1.00  0.00     0.010 A 
ENDBRANCH  11  25
BRANCH  13  32
HETATM   32  O   UNL     1     -44.583  58.723 -59.411  1.00  0.00    -0.361 OA
HETATM   33  H   UNL     1     -45.158  59.505 -59.367  1.00  0.00     0.217 HD
ENDBRANCH  13  32
TORSDOF 6
ENDMDL
