MODEL 1
REMARK VINA RESULT:      -9.0      0.000      0.000
REMARK  6 active torsions:
REMARK  status: ('A' for Active; 'I' for Inactive)
REMARK    1  A    between atoms: C_5  and  C_6 
REMARK    2  A    between atoms: C_12  and  C_13 
REMARK       I    between atoms: C_13  and  N_14 
REMARK    3  A    between atoms: N_14  and  C_15 
REMARK    4  A    between atoms: C_18  and  C_19 
REMARK    5  A    between atoms: C_19  and  O_20 
REMARK    6  A    between atoms: C_25  and  C_26 
ROOT
HETATM    1  C   UNL     1     -42.703  55.849 -51.772  1.00  0.00     0.118 C 
HETATM    2  N   UNL     1     -43.475  56.477 -52.865  1.00  0.00    -0.365 N 
HETATM    3  C   UNL     1     -42.866  57.434 -53.631  1.00  0.00     0.138 A 
HETATM    4  N   UNL     1     -41.665  57.990 -53.249  1.00  0.00    -0.240 N 
HETATM    5  N   UNL     1     -41.158  58.846 -54.145  1.00  0.00    -0.181 NA
HETATM    6  C   UNL     1     -42.108  58.911 -55.081  1.00  0.00     0.160 A 
HETATM    7  C   UNL     1     -43.207  58.055 -54.821  1.00  0.00     0.096 A 
HETATM    8  C   UNL     1     -40.970  57.683 -52.010  1.00  0.00     0.221 C 
HETATM    9  C   UNL     1     -41.922  56.952 -51.043  1.00  0.00     0.066 C 
HETATM   10  H   UNL     1     -44.437  56.670 -52.577  1.00  0.00     0.161 HD
ENDROOT
BRANCH   7  11
HETATM   11  C   UNL     1     -44.381  57.906 -55.669  1.00  0.00     0.261 C 
HETATM   12  N   UNL     1     -44.144  58.150 -57.008  1.00  0.00    -0.323 N 
HETATM   13  H   UNL     1     -43.222  58.510 -57.226  1.00  0.00     0.169 HD
HETATM   14  O   UNL     1     -45.455  57.574 -55.178  1.00  0.00    -0.267 OA
BRANCH  12  15
HETATM   15  C   UNL     1     -45.010  57.909 -58.093  1.00  0.00     0.035 A 
HETATM   16  C   UNL     1     -46.149  58.665 -58.363  1.00  0.00     0.030 A 
HETATM   17  C   UNL     1     -47.001  58.328 -59.425  1.00  0.00     0.012 A 
HETATM   18  C   UNL     1     -46.735  57.225 -60.247  1.00  0.00    -0.030 A 
HETATM   19  C   UNL     1     -45.581  56.475 -59.970  1.00  0.00     0.012 A 
HETATM   20  C   UNL     1     -44.722  56.820 -58.918  1.00  0.00     0.030 A 
BRANCH  18  21
HETATM   21  C   UNL     1     -47.680  56.776 -61.348  1.00  0.00     0.147 C 
HETATM   22  C   UNL     1     -48.394  57.890 -62.111  1.00  0.00     0.044 C 
BRANCH  21  23
HETATM   23  O   UNL     1     -46.952  55.993 -62.297  1.00  0.00    -0.391 OA
HETATM   24  H   UNL     1     -47.542  55.277 -62.590  1.00  0.00     0.210 HD
ENDBRANCH  21  23
ENDBRANCH  18  21
ENDBRANCH  12  15
ENDBRANCH   7  11
BRANCH   1  25
HETATM   25  C   UNL     1     -41.806  54.704 -52.237  1.00  0.00    -0.035 A 
HETATM   26  C   UNL     1     -40.841  54.103 -51.413  1.00  0.00     0.010 A 
HETATM   27  C   UNL     1     -40.088  53.010 -51.858  1.00  0.00     0.007 A 
HETATM   28  C   UNL     1     -40.264  52.502 -53.146  1.00  0.00    -0.062 A 
HETATM   29  C   UNL     1     -39.495  51.302 -53.616  1.00  0.00     0.048 C 
HETATM   30  C   UNL     1     -41.196  53.113 -53.989  1.00  0.00     0.007 A 
HETATM   31  C   UNL     1     -41.947  54.205 -53.545  1.00  0.00     0.010 A 
ENDBRANCH   1  25
BRANCH   8  32
HETATM   32  C   UNL     1     -40.437  58.928 -51.333  1.00  0.00     0.409 C 
HETATM   33  F   UNL     1     -41.235  60.002 -51.533  1.00  0.00    -0.169 F 
HETATM   34  F   UNL     1     -40.399  58.727 -49.986  1.00  0.00    -0.169 F 
HETATM   35  F   UNL     1     -39.181  59.254 -51.696  1.00  0.00    -0.169 F 
ENDBRANCH   8  32
TORSDOF 6
ENDMDL
MODEL 2
REMARK VINA RESULT:      -8.8      3.156      8.624
REMARK  6 active torsions:
REMARK  status: ('A' for Active; 'I' for Inactive)
REMARK    1  A    between atoms: C_5  and  C_6 
REMARK    2  A    between atoms: C_12  and  C_13 
REMARK       I    between atoms: C_13  and  N_14 
REMARK    3  A    between atoms: N_14  and  C_15 
REMARK    4  A    between atoms: C_18  and  C_19 
REMARK    5  A    between atoms: C_19  and  O_20 
REMARK    6  A    between atoms: C_25  and  C_26 
ROOT
HETATM    1  C   UNL     1     -42.487  57.132 -58.865  1.00  0.00     0.118 C 
HETATM    2  N   UNL     1     -42.293  56.354 -57.624  1.00  0.00    -0.365 N 
HETATM    3  C   UNL     1     -42.688  56.907 -56.435  1.00  0.00     0.138 A 
HETATM    4  N   UNL     1     -43.018  58.241 -56.349  1.00  0.00    -0.240 N 
HETATM    5  N   UNL     1     -43.465  58.609 -55.141  1.00  0.00    -0.181 NA
HETATM    6  C   UNL     1     -43.327  57.500 -54.411  1.00  0.00     0.160 A 
HETATM    7  C   UNL     1     -42.842  56.397 -55.157  1.00  0.00     0.096 A 
HETATM    8  C   UNL     1     -42.925  59.187 -57.448  1.00  0.00     0.221 C 
HETATM    9  C   UNL     1     -42.078  58.585 -58.587  1.00  0.00     0.066 C 
HETATM   10  H   UNL     1     -41.390  55.874 -57.623  1.00  0.00     0.161 HD
ENDROOT
BRANCH   7  11
HETATM   11  C   UNL     1     -42.605  55.060 -54.631  1.00  0.00     0.261 C 
HETATM   12  N   UNL     1     -41.269  54.714 -54.552  1.00  0.00    -0.323 N 
HETATM   13  H   UNL     1     -40.625  55.377 -54.969  1.00  0.00     0.169 HD
HETATM   14  O   UNL     1     -43.550  54.357 -54.291  1.00  0.00    -0.267 OA
BRANCH  12  15
HETATM   15  C   UNL     1     -40.708  53.587 -53.921  1.00  0.00     0.035 A 
HETATM   16  C   UNL     1     -40.334  52.424 -54.591  1.00  0.00     0.030 A 
HETATM   17  C   UNL     1     -39.841  51.315 -53.888  1.00  0.00     0.012 A 
HETATM   18  C   UNL     1     -39.708  51.340 -52.494  1.00  0.00    -0.030 A 
HETATM   19  C   UNL     1     -40.081  52.519 -51.829  1.00  0.00     0.012 A 
HETATM   20  C   UNL     1     -40.561  53.632 -52.532  1.00  0.00     0.030 A 
BRANCH  18  21
HETATM   21  C   UNL     1     -39.263  50.131 -51.691  1.00  0.00     0.147 C 
HETATM   22  C   UNL     1     -39.969  49.920 -50.353  1.00  0.00     0.044 C 
BRANCH  21  23
HETATM   23  O   UNL     1     -39.455  48.952 -52.477  1.00  0.00    -0.391 OA
HETATM   24  H   UNL     1     -39.269  48.190 -51.902  1.00  0.00     0.210 HD
ENDBRANCH  21  23
ENDBRANCH  18  21
ENDBRANCH  12  15
ENDBRANCH   7  11
BRANCH   1  25
HETATM   25  C   UNL     1     -43.896  57.020 -59.443  1.00  0.00    -0.035 A 
HETATM   26  C   UNL     1     -44.707  58.134 -59.709  1.00  0.00     0.010 A 
HETATM   27  C   UNL     1     -45.966  57.990 -60.303  1.00  0.00     0.007 A 
HETATM   28  C   UNL     1     -46.457  56.725 -60.629  1.00  0.00    -0.062 A 
HETATM   29  C   UNL     1     -47.785  56.562 -61.310  1.00  0.00     0.048 C 
HETATM   30  C   UNL     1     -45.676  55.603 -60.339  1.00  0.00     0.007 A 
HETATM   31  C   UNL     1     -44.419  55.749 -59.744  1.00  0.00     0.010 A 
ENDBRANCH   1  25
BRANCH   8  32
HETATM   32  C   UNL     1     -42.312  60.503 -57.017  1.00  0.00     0.409 C 
HETATM   33  F   UNL     1     -41.457  60.997 -57.943  1.00  0.00    -0.169 F 
HETATM   34  F   UNL     1     -43.296  61.433 -56.872  1.00  0.00    -0.169 F 
HETATM   35  F   UNL     1     -41.674  60.448 -55.832  1.00  0.00    -0.169 F 
ENDBRANCH   8  32
TORSDOF 6
ENDMDL
MODEL 3
REMARK VINA RESULT:      -8.1      1.597      2.018
REMARK  6 active torsions:
REMARK  status: ('A' for Active; 'I' for Inactive)
REMARK    1  A    between atoms: C_5  and  C_6 
REMARK    2  A    between atoms: C_12  and  C_13 
REMARK       I    between atoms: C_13  and  N_14 
REMARK    3  A    between atoms: N_14  and  C_15 
REMARK    4  A    between atoms: C_18  and  C_19 
REMARK    5  A    between atoms: C_19  and  O_20 
REMARK    6  A    between atoms: C_25  and  C_26 
ROOT
HETATM    1  C   UNL     1     -43.718  55.269 -53.376  1.00  0.00     0.118 C 
HETATM    2  N   UNL     1     -44.043  55.817 -54.710  1.00  0.00    -0.365 N 
HETATM    3  C   UNL     1     -43.345  56.906 -55.159  1.00  0.00     0.138 A 
HETATM    4  N   UNL     1     -42.543  57.635 -54.309  1.00  0.00    -0.240 N 
HETATM    5  N   UNL     1     -41.862  58.614 -54.918  1.00  0.00    -0.181 NA
HETATM    6  C   UNL     1     -42.313  58.568 -56.174  1.00  0.00     0.160 A 
HETATM    7  C   UNL     1     -43.247  57.525 -56.394  1.00  0.00     0.096 A 
HETATM    8  C   UNL     1     -42.405  57.382 -52.885  1.00  0.00     0.221 C 
HETATM    9  C   UNL     1     -43.534  56.447 -52.407  1.00  0.00     0.066 C 
HETATM   10  H   UNL     1     -45.053  55.829 -54.870  1.00  0.00     0.161 HD
ENDROOT
BRANCH   7  11
HETATM   11  C   UNL     1     -43.896  57.226 -57.662  1.00  0.00     0.261 C 
HETATM   12  N   UNL     1     -45.220  57.618 -57.725  1.00  0.00    -0.323 N 
HETATM   13  H   UNL     1     -45.612  57.959 -56.853  1.00  0.00     0.169 HD
HETATM   14  O   UNL     1     -43.264  56.687 -58.564  1.00  0.00    -0.267 OA
BRANCH  12  15
HETATM   15  C   UNL     1     -46.057  57.644 -58.857  1.00  0.00     0.035 A 
HETATM   16  C   UNL     1     -46.360  56.524 -59.628  1.00  0.00     0.030 A 
HETATM   17  C   UNL     1     -47.151  56.637 -60.781  1.00  0.00     0.012 A 
HETATM   18  C   UNL     1     -47.662  57.874 -61.193  1.00  0.00    -0.030 A 
HETATM   19  C   UNL     1     -47.357  58.995 -60.404  1.00  0.00     0.012 A 
HETATM   20  C   UNL     1     -46.578  58.881 -59.245  1.00  0.00     0.030 A 
BRANCH  18  21
HETATM   21  C   UNL     1     -48.445  58.050 -62.482  1.00  0.00     0.147 C 
HETATM   22  C   UNL     1     -48.752  56.770 -63.257  1.00  0.00     0.044 C 
BRANCH  21  23
HETATM   23  O   UNL     1     -49.688  58.693 -62.189  1.00  0.00    -0.391 OA
HETATM   24  H   UNL     1     -49.483  59.605 -61.920  1.00  0.00     0.210 HD
ENDBRANCH  21  23
ENDBRANCH  18  21
ENDBRANCH  12  15
ENDBRANCH   7  11
BRANCH   1  25
HETATM   25  C   UNL     1     -42.520  54.322 -53.381  1.00  0.00    -0.035 A 
HETATM   26  C   UNL     1     -41.779  54.016 -52.228  1.00  0.00     0.010 A 
HETATM   27  C   UNL     1     -40.732  53.089 -52.265  1.00  0.00     0.007 A 
HETATM   28  C   UNL     1     -40.383  52.457 -53.459  1.00  0.00    -0.062 A 
HETATM   29  C   UNL     1     -39.293  51.426 -53.499  1.00  0.00     0.048 C 
HETATM   30  C   UNL     1     -41.089  52.776 -54.622  1.00  0.00     0.007 A 
HETATM   31  C   UNL     1     -42.135  53.704 -54.584  1.00  0.00     0.010 A 
ENDBRANCH   1  25
BRANCH   8  32
HETATM   32  C   UNL     1     -42.444  58.659 -52.073  1.00  0.00     0.409 C 
HETATM   33  F   UNL     1     -43.395  59.516 -52.511  1.00  0.00    -0.169 F 
HETATM   34  F   UNL     1     -42.763  58.364 -50.782  1.00  0.00    -0.169 F 
HETATM   35  F   UNL     1     -41.267  59.314 -52.025  1.00  0.00    -0.169 F 
ENDBRANCH   8  32
TORSDOF 6
ENDMDL
MODEL 4
REMARK VINA RESULT:      -8.1      3.384      8.285
REMARK  6 active torsions:
REMARK  status: ('A' for Active; 'I' for Inactive)
REMARK    1  A    between atoms: C_5  and  C_6 
REMARK    2  A    between atoms: C_12  and  C_13 
REMARK       I    between atoms: C_13  and  N_14 
REMARK    3  A    between atoms: N_14  and  C_15 
REMARK    4  A    between atoms: C_18  and  C_19 
REMARK    5  A    between atoms: C_19  and  O_20 
REMARK    6  A    between atoms: C_25  and  C_26 
ROOT
HETATM    1  C   UNL     1     -42.381  58.610 -57.591  1.00  0.00     0.118 C 
HETATM    2  N   UNL     1     -41.960  57.940 -56.343  1.00  0.00    -0.365 N 
HETATM    3  C   UNL     1     -42.858  57.845 -55.314  1.00  0.00     0.138 A 
HETATM    4  N   UNL     1     -44.030  58.568 -55.328  1.00  0.00    -0.240 N 
HETATM    5  N   UNL     1     -44.840  58.301 -54.295  1.00  0.00    -0.181 NA
HETATM    6  C   UNL     1     -44.124  57.454 -53.553  1.00  0.00     0.160 A 
HETATM    7  C   UNL     1     -42.871  57.128 -54.130  1.00  0.00     0.096 A 
HETATM    8  C   UNL     1     -44.399  59.523 -56.360  1.00  0.00     0.221 C 
HETATM    9  C   UNL     1     -43.165  59.875 -57.213  1.00  0.00     0.066 C 
HETATM   10  H   UNL     1     -41.003  58.197 -56.088  1.00  0.00     0.161 HD
ENDROOT
BRANCH   7  11
HETATM   11  C   UNL     1     -41.886  56.223 -53.555  1.00  0.00     0.261 C 
HETATM   12  N   UNL     1     -42.234  54.888 -53.630  1.00  0.00    -0.323 N 
HETATM   13  H   UNL     1     -43.172  54.704 -53.968  1.00  0.00     0.169 HD
HETATM   14  O   UNL     1     -40.849  56.669 -53.075  1.00  0.00    -0.267 OA
BRANCH  12  15
HETATM   15  C   UNL     1     -41.427  53.771 -53.342  1.00  0.00     0.035 A 
HETATM   16  C   UNL     1     -40.980  52.864 -54.301  1.00  0.00     0.030 A 
HETATM   17  C   UNL     1     -40.231  51.737 -53.931  1.00  0.00     0.012 A 
HETATM   18  C   UNL     1     -39.908  51.487 -52.592  1.00  0.00    -0.030 A 
HETATM   19  C   UNL     1     -40.357  52.411 -51.635  1.00  0.00     0.012 A 
HETATM   20  C   UNL     1     -41.093  53.544 -52.004  1.00  0.00     0.030 A 
BRANCH  18  21
HETATM   21  C   UNL     1     -39.178  50.233 -52.145  1.00  0.00     0.147 C 
HETATM   22  C   UNL     1     -39.483  49.751 -50.728  1.00  0.00     0.044 C 
BRANCH  21  23
HETATM   23  O   UNL     1     -39.485  49.167 -53.046  1.00  0.00    -0.391 OA
HETATM   24  H   UNL     1     -39.548  48.354 -52.517  1.00  0.00     0.210 HD
ENDBRANCH  21  23
ENDBRANCH  18  21
ENDBRANCH  12  15
ENDBRANCH   7  11
BRANCH   1  25
HETATM   25  C   UNL     1     -43.157  57.701 -58.541  1.00  0.00    -0.035 A 
HETATM   26  C   UNL     1     -44.127  58.177 -59.436  1.00  0.00     0.010 A 
HETATM   27  C   UNL     1     -44.766  57.317 -60.338  1.00  0.00     0.007 A 
HETATM   28  C   UNL     1     -44.466  55.954 -60.354  1.00  0.00    -0.062 A 
HETATM   29  C   UNL     1     -45.110  55.032 -61.349  1.00  0.00     0.048 C 
HETATM   30  C   UNL     1     -43.527  55.460 -59.446  1.00  0.00     0.007 A 
HETATM   31  C   UNL     1     -42.891  56.319 -58.544  1.00  0.00     0.010 A 
ENDBRANCH   1  25
BRANCH   8  32
HETATM   32  C   UNL     1     -44.978  60.795 -55.778  1.00  0.00     0.409 C 
HETATM   33  F   UNL     1     -44.282  61.229 -54.701  1.00  0.00    -0.169 F 
HETATM   34  F   UNL     1     -44.903  61.790 -56.705  1.00  0.00    -0.169 F 
HETATM   35  F   UNL     1     -46.278  60.701 -55.438  1.00  0.00    -0.169 F 
ENDBRANCH   8  32
TORSDOF 6
ENDMDL
MODEL 5
REMARK VINA RESULT:      -8.1      0.971      1.624
REMARK  6 active torsions:
REMARK  status: ('A' for Active; 'I' for Inactive)
REMARK    1  A    between atoms: C_5  and  C_6 
REMARK    2  A    between atoms: C_12  and  C_13 
REMARK       I    between atoms: C_13  and  N_14 
REMARK    3  A    between atoms: N_14  and  C_15 
REMARK    4  A    between atoms: C_18  and  C_19 
REMARK    5  A    between atoms: C_19  and  O_20 
REMARK    6  A    between atoms: C_25  and  C_26 
ROOT
HETATM    1  C   UNL     1     -43.068  55.927 -52.092  1.00  0.00     0.118 C 
HETATM    2  N   UNL     1     -43.824  56.622 -53.155  1.00  0.00    -0.365 N 
HETATM    3  C   UNL     1     -43.170  57.537 -53.935  1.00  0.00     0.138 A 
HETATM    4  N   UNL     1     -41.918  57.996 -53.589  1.00  0.00    -0.240 N 
HETATM    5  N   UNL     1     -41.377  58.820 -54.496  1.00  0.00    -0.181 NA
HETATM    6  C   UNL     1     -42.349  58.965 -55.400  1.00  0.00     0.160 A 
HETATM    7  C   UNL     1     -43.502  58.193 -55.108  1.00  0.00     0.096 A 
HETATM    8  C   UNL     1     -41.208  57.626 -52.376  1.00  0.00     0.221 C 
HETATM    9  C   UNL     1     -42.181  56.961 -51.383  1.00  0.00     0.066 C 
HETATM   10  H   UNL     1     -44.759  56.885 -52.834  1.00  0.00     0.161 HD
ENDROOT
BRANCH   7  11
HETATM   11  C   UNL     1     -44.711  58.141 -55.918  1.00  0.00     0.261 C 
HETATM   12  N   UNL     1     -44.534  58.558 -57.223  1.00  0.00    -0.323 N 
HETATM   13  H   UNL     1     -43.624  58.954 -57.432  1.00  0.00     0.169 HD
HETATM   14  O   UNL     1     -45.760  57.736 -55.429  1.00  0.00    -0.267 OA
BRANCH  12  15
HETATM   15  C   UNL     1     -45.445  58.449 -58.292  1.00  0.00     0.035 A 
HETATM   16  C   UNL     1     -46.138  57.283 -58.610  1.00  0.00     0.030 A 
HETATM   17  C   UNL     1     -46.981  57.231 -59.730  1.00  0.00     0.012 A 
HETATM   18  C   UNL     1     -47.156  58.345 -60.561  1.00  0.00    -0.030 A 
HETATM   19  C   UNL     1     -46.459  59.516 -60.226  1.00  0.00     0.012 A 
HETATM   20  C   UNL     1     -45.626  59.574 -59.101  1.00  0.00     0.030 A 
BRANCH  18  21
HETATM   21  C   UNL     1     -47.989  58.299 -61.829  1.00  0.00     0.147 C 
HETATM   22  C   UNL     1     -48.503  56.921 -62.242  1.00  0.00     0.044 C 
BRANCH  21  23
HETATM   23  O   UNL     1     -49.120  59.160 -61.677  1.00  0.00    -0.391 OA
HETATM   24  H   UNL     1     -49.911  58.633 -61.880  1.00  0.00     0.210 HD
ENDBRANCH  21  23
ENDBRANCH  18  21
ENDBRANCH  12  15
ENDBRANCH   7  11
BRANCH   1  25
HETATM   25  C   UNL     1     -42.275  54.722 -52.595  1.00  0.00    -0.035 A 
HETATM   26  C   UNL     1     -42.415  54.198 -53.889  1.00  0.00     0.010 A 
HETATM   27  C   UNL     1     -41.619  53.136 -54.331  1.00  0.00     0.007 A 
HETATM   28  C   UNL     1     -40.674  52.554 -53.484  1.00  0.00    -0.062 A 
HETATM   29  C   UNL     1     -39.782  51.447 -53.963  1.00  0.00     0.048 C 
HETATM   30  C   UNL     1     -40.547  53.043 -52.181  1.00  0.00     0.007 A 
HETATM   31  C   UNL     1     -41.345  54.104 -51.740  1.00  0.00     0.010 A 
ENDBRANCH   1  25
BRANCH   8  32
HETATM   32  C   UNL     1     -40.560  58.821 -51.709  1.00  0.00     0.409 C 
HETATM   33  F   UNL     1     -39.385  59.158 -52.291  1.00  0.00    -0.169 F 
HETATM   34  F   UNL     1     -41.373  59.906 -51.837  1.00  0.00    -0.169 F 
HETATM   35  F   UNL     1     -40.353  58.665 -50.387  1.00  0.00    -0.169 F 
ENDBRANCH   8  32
TORSDOF 6
ENDMDL
MODEL 6
REMARK VINA RESULT:      -7.7      1.537      1.877
REMARK  6 active torsions:
REMARK  status: ('A' for Active; 'I' for Inactive)
REMARK    1  A    between atoms: C_5  and  C_6 
REMARK    2  A    between atoms: C_12  and  C_13 
REMARK       I    between atoms: C_13  and  N_14 
REMARK    3  A    between atoms: N_14  and  C_15 
REMARK    4  A    between atoms: C_18  and  C_19 
REMARK    5  A    between atoms: C_19  and  O_20 
REMARK    6  A    between atoms: C_25  and  C_26 
ROOT
HETATM    1  C   UNL     1     -42.934  54.641 -52.408  1.00  0.00     0.118 C 
HETATM    2  N   UNL     1     -43.417  55.372 -53.599  1.00  0.00    -0.365 N 
HETATM    3  C   UNL     1     -42.718  56.471 -54.022  1.00  0.00     0.138 A 
HETATM    4  N   UNL     1     -41.748  57.042 -53.228  1.00  0.00    -0.240 N 
HETATM    5  N   UNL     1     -41.098  58.054 -53.818  1.00  0.00    -0.181 NA
HETATM    6  C   UNL     1     -41.735  58.193 -54.983  1.00  0.00     0.160 A 
HETATM    7  C   UNL     1     -42.763  57.237 -55.174  1.00  0.00     0.096 A 
HETATM    8  C   UNL     1     -41.415  56.602 -51.884  1.00  0.00     0.221 C 
HETATM    9  C   UNL     1     -42.523  55.674 -51.348  1.00  0.00     0.066 C 
HETATM   10  H   UNL     1     -44.436  55.456 -53.595  1.00  0.00     0.161 HD
ENDROOT
BRANCH   7  11
HETATM   11  C   UNL     1     -43.616  57.137 -56.350  1.00  0.00     0.261 C 
HETATM   12  N   UNL     1     -44.403  58.251 -56.572  1.00  0.00    -0.323 N 
HETATM   13  H   UNL     1     -44.380  58.950 -55.838  1.00  0.00     0.169 HD
HETATM   14  O   UNL     1     -43.579  56.132 -57.051  1.00  0.00    -0.267 OA
BRANCH  12  15
HETATM   15  C   UNL     1     -45.181  58.541 -57.710  1.00  0.00     0.035 A 
HETATM   16  C   UNL     1     -44.656  58.988 -58.920  1.00  0.00     0.030 A 
HETATM   17  C   UNL     1     -45.499  59.319 -59.991  1.00  0.00     0.012 A 
HETATM   18  C   UNL     1     -46.891  59.211 -59.881  1.00  0.00    -0.030 A 
HETATM   19  C   UNL     1     -47.409  58.752 -58.659  1.00  0.00     0.012 A 
HETATM   20  C   UNL     1     -46.567  58.409 -57.593  1.00  0.00     0.030 A 
BRANCH  18  21
HETATM   21  C   UNL     1     -47.837  59.645 -60.986  1.00  0.00     0.147 C 
HETATM   22  C   UNL     1     -48.059  61.150 -61.124  1.00  0.00     0.044 C 
BRANCH  21  23
HETATM   23  O   UNL     1     -47.349  59.157 -62.238  1.00  0.00    -0.391 OA
HETATM   24  H   UNL     1     -46.624  59.745 -62.511  1.00  0.00     0.210 HD
ENDBRANCH  21  23
ENDBRANCH  18  21
ENDBRANCH  12  15
ENDBRANCH   7  11
BRANCH   1  25
HETATM   25  C   UNL     1     -41.822  53.641 -52.714  1.00  0.00    -0.035 A 
HETATM   26  C   UNL     1     -40.936  53.158 -51.739  1.00  0.00     0.010 A 
HETATM   27  C   UNL     1     -39.974  52.189 -52.050  1.00  0.00     0.007 A 
HETATM   28  C   UNL     1     -39.860  51.692 -53.349  1.00  0.00    -0.062 A 
HETATM   29  C   UNL     1     -38.865  50.618 -53.681  1.00  0.00     0.048 C 
HETATM   30  C   UNL     1     -40.713  52.188 -54.337  1.00  0.00     0.007 A 
HETATM   31  C   UNL     1     -41.671  53.157 -54.026  1.00  0.00     0.010 A 
ENDBRANCH   1  25
BRANCH   8  32
HETATM   32  C   UNL     1     -41.240  57.766 -50.931  1.00  0.00     0.409 C 
HETATM   33  F   UNL     1     -41.267  57.375 -49.635  1.00  0.00    -0.169 F 
HETATM   34  F   UNL     1     -40.019  58.334 -51.133  1.00  0.00    -0.169 F 
HETATM   35  F   UNL     1     -42.142  58.752 -51.099  1.00  0.00    -0.169 F 
ENDBRANCH   8  32
TORSDOF 6
ENDMDL
MODEL 7
REMARK VINA RESULT:      -7.6      3.676      8.964
REMARK  6 active torsions:
REMARK  status: ('A' for Active; 'I' for Inactive)
REMARK    1  A    between atoms: C_5  and  C_6 
REMARK    2  A    between atoms: C_12  and  C_13 
REMARK       I    between atoms: C_13  and  N_14 
REMARK    3  A    between atoms: N_14  and  C_15 
REMARK    4  A    between atoms: C_18  and  C_19 
REMARK    5  A    between atoms: C_19  and  O_20 
REMARK    6  A    between atoms: C_25  and  C_26 
ROOT
HETATM    1  C   UNL     1     -42.861  58.899 -60.432  1.00  0.00     0.118 C 
HETATM    2  N   UNL     1     -42.510  57.972 -59.335  1.00  0.00    -0.365 N 
HETATM    3  C   UNL     1     -42.425  58.466 -58.061  1.00  0.00     0.138 A 
HETATM    4  N   UNL     1     -42.410  59.823 -57.827  1.00  0.00    -0.240 N 
HETATM    5  N   UNL     1     -42.410  60.145 -56.527  1.00  0.00    -0.181 NA
HETATM    6  C   UNL     1     -42.327  58.961 -55.916  1.00  0.00     0.160 A 
HETATM    7  C   UNL     1     -42.328  57.867 -56.817  1.00  0.00     0.096 A 
HETATM    8  C   UNL     1     -42.417  60.841 -58.864  1.00  0.00     0.221 C 
HETATM    9  C   UNL     1     -42.076  60.202 -60.225  1.00  0.00     0.066 C 
HETATM   10  H   UNL     1     -41.773  57.322 -59.620  1.00  0.00     0.161 HD
ENDROOT
BRANCH   7  11
HETATM   11  C   UNL     1     -42.260  56.462 -56.440  1.00  0.00     0.261 C 
HETATM   12  N   UNL     1     -41.300  56.180 -55.487  1.00  0.00    -0.323 N 
HETATM   13  H   UNL     1     -40.687  56.952 -55.247  1.00  0.00     0.169 HD
HETATM   14  O   UNL     1     -43.026  55.652 -56.949  1.00  0.00    -0.267 OA
BRANCH  12  15
HETATM   15  C   UNL     1     -41.114  54.973 -54.784  1.00  0.00     0.035 A 
HETATM   16  C   UNL     1     -41.638  54.720 -53.518  1.00  0.00     0.030 A 
HETATM   17  C   UNL     1     -41.357  53.518 -52.851  1.00  0.00     0.012 A 
HETATM   18  C   UNL     1     -40.545  52.536 -53.433  1.00  0.00    -0.030 A 
HETATM   19  C   UNL     1     -40.029  52.800 -54.712  1.00  0.00     0.012 A 
HETATM   20  C   UNL     1     -40.320  53.994 -55.385  1.00  0.00     0.030 A 
BRANCH  18  21
HETATM   21  C   UNL     1     -40.147  51.265 -52.706  1.00  0.00     0.147 C 
HETATM   22  C   UNL     1     -39.651  50.119 -53.586  1.00  0.00     0.044 C 
BRANCH  21  23
HETATM   23  O   UNL     1     -39.117  51.569 -51.762  1.00  0.00    -0.391 OA
HETATM   24  H   UNL     1     -39.434  52.311 -51.221  1.00  0.00     0.210 HD
ENDBRANCH  21  23
ENDBRANCH  18  21
ENDBRANCH  12  15
ENDBRANCH   7  11
BRANCH   1  25
HETATM   25  C   UNL     1     -44.363  59.135 -60.574  1.00  0.00    -0.035 A 
HETATM   26  C   UNL     1     -44.905  60.223 -61.276  1.00  0.00     0.010 A 
HETATM   27  C   UNL     1     -46.288  60.364 -61.440  1.00  0.00     0.007 A 
HETATM   28  C   UNL     1     -47.168  59.430 -60.889  1.00  0.00    -0.062 A 
HETATM   29  C   UNL     1     -48.649  59.545 -61.100  1.00  0.00     0.048 C 
HETATM   30  C   UNL     1     -46.645  58.360 -60.159  1.00  0.00     0.007 A 
HETATM   31  C   UNL     1     -45.263  58.222 -59.994  1.00  0.00     0.010 A 
ENDBRANCH   1  25
BRANCH   8  32
HETATM   32  C   UNL     1     -41.429  61.952 -58.578  1.00  0.00     0.409 C 
HETATM   33  F   UNL     1     -41.194  62.721 -59.667  1.00  0.00    -0.169 F 
HETATM   34  F   UNL     1     -41.947  62.782 -57.630  1.00  0.00    -0.169 F 
HETATM   35  F   UNL     1     -40.247  61.524 -58.093  1.00  0.00    -0.169 F 
ENDBRANCH   8  32
TORSDOF 6
ENDMDL
MODEL 8
REMARK VINA RESULT:      -7.6      5.598      9.295
REMARK  6 active torsions:
REMARK  status: ('A' for Active; 'I' for Inactive)
REMARK    1  A    between atoms: C_5  and  C_6 
REMARK    2  A    between atoms: C_12  and  C_13 
REMARK       I    between atoms: C_13  and  N_14 
REMARK    3  A    between atoms: N_14  and  C_15 
REMARK    4  A    between atoms: C_18  and  C_19 
REMARK    5  A    between atoms: C_19  and  O_20 
REMARK    6  A    between atoms: C_25  and  C_26 
ROOT
HETATM    1  C   UNL     1     -41.230  57.650 -52.441  1.00  0.00     0.118 C 
HETATM    2  N   UNL     1     -41.869  58.770 -51.718  1.00  0.00    -0.365 N 
HETATM    3  C   UNL     1     -43.236  58.834 -51.684  1.00  0.00     0.138 A 
HETATM    4  N   UNL     1     -44.004  58.038 -52.504  1.00  0.00    -0.240 N 
HETATM    5  N   UNL     1     -45.320  58.156 -52.291  1.00  0.00    -0.181 NA
HETATM    6  C   UNL     1     -45.399  59.124 -51.374  1.00  0.00     0.160 A 
HETATM    7  C   UNL     1     -44.131  59.597 -50.952  1.00  0.00     0.096 A 
HETATM    8  C   UNL     1     -43.472  57.126 -53.503  1.00  0.00     0.221 C 
HETATM    9  C   UNL     1     -41.985  57.442 -53.762  1.00  0.00     0.066 C 
HETATM   10  H   UNL     1     -41.377  59.651 -51.889  1.00  0.00     0.161 HD
ENDROOT
BRANCH   7  11
HETATM   11  C   UNL     1     -43.905  60.636 -49.958  1.00  0.00     0.261 C 
HETATM   12  N   UNL     1     -44.944  60.793 -49.060  1.00  0.00    -0.323 N 
HETATM   13  H   UNL     1     -45.778  60.254 -49.265  1.00  0.00     0.169 HD
HETATM   14  O   UNL     1     -42.856  61.270 -49.961  1.00  0.00    -0.267 OA
BRANCH  12  15
HETATM   15  C   UNL     1     -44.955  61.568 -47.884  1.00  0.00     0.035 A 
HETATM   16  C   UNL     1     -44.935  61.033 -46.598  1.00  0.00     0.030 A 
HETATM   17  C   UNL     1     -45.012  61.865 -45.471  1.00  0.00     0.012 A 
HETATM   18  C   UNL     1     -45.111  63.256 -45.601  1.00  0.00    -0.030 A 
HETATM   19  C   UNL     1     -45.122  63.785 -46.902  1.00  0.00     0.012 A 
HETATM   20  C   UNL     1     -45.032  62.955 -48.027  1.00  0.00     0.030 A 
BRANCH  18  21
HETATM   21  C   UNL     1     -45.287  64.180 -44.409  1.00  0.00     0.147 C 
HETATM   22  C   UNL     1     -46.723  64.588 -44.086  1.00  0.00     0.044 C 
BRANCH  21  23
HETATM   23  O   UNL     1     -44.737  63.554 -43.247  1.00  0.00    -0.391 OA
HETATM   24  H   UNL     1     -45.098  64.019 -42.474  1.00  0.00     0.210 HD
ENDBRANCH  21  23
ENDBRANCH  18  21
ENDBRANCH  12  15
ENDBRANCH   7  11
BRANCH   1  25
HETATM   25  C   UNL     1     -41.129  56.369 -51.616  1.00  0.00    -0.035 A 
HETATM   26  C   UNL     1     -40.984  55.097 -52.190  1.00  0.00     0.010 A 
HETATM   27  C   UNL     1     -40.825  53.956 -51.394  1.00  0.00     0.007 A 
HETATM   28  C   UNL     1     -40.827  54.055 -50.002  1.00  0.00    -0.062 A 
HETATM   29  C   UNL     1     -40.610  52.845 -49.141  1.00  0.00     0.048 C 
HETATM   30  C   UNL     1     -41.004  55.311 -49.416  1.00  0.00     0.007 A 
HETATM   31  C   UNL     1     -41.165  56.449 -50.212  1.00  0.00     0.010 A 
ENDBRANCH   1  25
BRANCH   8  32
HETATM   32  C   UNL     1     -44.230  57.208 -54.811  1.00  0.00     0.409 C 
HETATM   33  F   UNL     1     -44.269  58.468 -55.303  1.00  0.00    -0.169 F 
HETATM   34  F   UNL     1     -43.595  56.451 -55.749  1.00  0.00    -0.169 F 
HETATM   35  F   UNL     1     -45.491  56.736 -54.743  1.00  0.00    -0.169 F 
ENDBRANCH   8  32
TORSDOF 6
ENDMDL
MODEL 9
REMARK VINA RESULT:      -7.3      3.159      8.158
REMARK  6 active torsions:
REMARK  status: ('A' for Active; 'I' for Inactive)
REMARK    1  A    between atoms: C_5  and  C_6 
REMARK    2  A    between atoms: C_12  and  C_13 
REMARK       I    between atoms: C_13  and  N_14 
REMARK    3  A    between atoms: N_14  and  C_15 
REMARK    4  A    between atoms: C_18  and  C_19 
REMARK    5  A    between atoms: C_19  and  O_20 
REMARK    6  A    between atoms: C_25  and  C_26 
ROOT
HETATM    1  C   UNL     1     -42.704  60.705 -55.476  1.00  0.00     0.118 C 
HETATM    2  N   UNL     1     -42.145  59.481 -54.864  1.00  0.00    -0.365 N 
HETATM    3  C   UNL     1     -42.940  58.744 -54.027  1.00  0.00     0.138 A 
HETATM    4  N   UNL     1     -44.132  59.248 -53.556  1.00  0.00    -0.240 N 
HETATM    5  N   UNL     1     -44.831  58.376 -52.819  1.00  0.00    -0.181 NA
HETATM    6  C   UNL     1     -44.020  57.319 -52.739  1.00  0.00     0.160 A 
HETATM    7  C   UNL     1     -42.816  57.483 -53.469  1.00  0.00     0.096 A 
HETATM    8  C   UNL     1     -44.629  60.586 -53.831  1.00  0.00     0.221 C 
HETATM    9  C   UNL     1     -43.493  61.460 -54.397  1.00  0.00     0.066 C 
HETATM   10  H   UNL     1     -41.179  59.625 -54.562  1.00  0.00     0.161 HD
ENDROOT
BRANCH   7  11
HETATM   11  C   UNL     1     -41.751  56.496 -53.574  1.00  0.00     0.261 C 
HETATM   12  N   UNL     1     -42.105  55.235 -53.135  1.00  0.00    -0.323 N 
HETATM   13  H   UNL     1     -43.014  55.171 -52.690  1.00  0.00     0.169 HD
HETATM   14  O   UNL     1     -40.662  56.816 -54.036  1.00  0.00    -0.267 OA
BRANCH  12  15
HETATM   15  C   UNL     1     -41.377  54.038 -53.278  1.00  0.00     0.035 A 
HETATM   16  C   UNL     1     -41.219  53.361 -54.486  1.00  0.00     0.030 A 
HETATM   17  C   UNL     1     -40.533  52.139 -54.541  1.00  0.00     0.012 A 
HETATM   18  C   UNL     1     -39.985  51.561 -53.389  1.00  0.00    -0.030 A 
HETATM   19  C   UNL     1     -40.143  52.255 -52.179  1.00  0.00     0.012 A 
HETATM   20  C   UNL     1     -40.816  53.483 -52.125  1.00  0.00     0.030 A 
BRANCH  18  21
HETATM   21  C   UNL     1     -39.316  50.198 -53.395  1.00  0.00     0.147 C 
HETATM   22  C   UNL     1     -39.556  49.330 -52.161  1.00  0.00     0.044 C 
BRANCH  21  23
HETATM   23  O   UNL     1     -39.759  49.465 -54.539  1.00  0.00    -0.391 OA
HETATM   24  H   UNL     1     -40.688  49.705 -54.692  1.00  0.00     0.210 HD
ENDBRANCH  21  23
ENDBRANCH  18  21
ENDBRANCH  12  15
ENDBRANCH   7  11
BRANCH   1  25
HETATM   25  C   UNL     1     -43.534  60.437 -56.729  1.00  0.00    -0.035 A 
HETATM   26  C   UNL     1     -44.349  61.408 -57.331  1.00  0.00     0.010 A 
HETATM   27  C   UNL     1     -45.039  61.140 -58.519  1.00  0.00     0.007 A 
HETATM   28  C   UNL     1     -44.950  59.886 -59.126  1.00  0.00    -0.062 A 
HETATM   29  C   UNL     1     -45.647  59.604 -60.424  1.00  0.00     0.048 C 
HETATM   30  C   UNL     1     -44.170  58.898 -58.520  1.00  0.00     0.007 A 
HETATM   31  C   UNL     1     -43.482  59.167 -57.332  1.00  0.00     0.010 A 
ENDBRANCH   1  25
BRANCH   8  32
HETATM   32  C   UNL     1     -45.194  61.249 -52.592  1.00  0.00     0.409 C 
HETATM   33  F   UNL     1     -44.428  61.029 -51.498  1.00  0.00    -0.169 F 
HETATM   34  F   UNL     1     -45.218  62.599 -52.774  1.00  0.00    -0.169 F 
HETATM   35  F   UNL     1     -46.461  60.889 -52.307  1.00  0.00    -0.169 F 
ENDBRANCH   8  32
TORSDOF 6
ENDMDL
MODEL 10
REMARK VINA RESULT:      -7.1     17.403     19.746
REMARK  6 active torsions:
REMARK  status: ('A' for Active; 'I' for Inactive)
REMARK    1  A    between atoms: C_5  and  C_6 
REMARK    2  A    between atoms: C_12  and  C_13 
REMARK       I    between atoms: C_13  and  N_14 
REMARK    3  A    between atoms: N_14  and  C_15 
REMARK    4  A    between atoms: C_18  and  C_19 
REMARK    5  A    between atoms: C_19  and  O_20 
REMARK    6  A    between atoms: C_25  and  C_26 
ROOT
HETATM    1  C   UNL     1     -34.687  38.607 -54.200  1.00  0.00     0.118 C 
HETATM    2  N   UNL     1     -35.683  38.201 -53.186  1.00  0.00    -0.365 N 
HETATM    3  C   UNL     1     -35.859  38.995 -52.085  1.00  0.00     0.138 A 
HETATM    4  N   UNL     1     -34.967  40.002 -51.788  1.00  0.00    -0.240 N 
HETATM    5  N   UNL     1     -35.324  40.742 -50.730  1.00  0.00    -0.181 NA
HETATM    6  C   UNL     1     -36.424  40.132 -50.284  1.00  0.00     0.160 A 
HETATM    7  C   UNL     1     -36.814  39.028 -51.083  1.00  0.00     0.096 A 
HETATM    8  C   UNL     1     -33.756  40.281 -52.540  1.00  0.00     0.221 C 
HETATM    9  C   UNL     1     -33.429  39.093 -53.466  1.00  0.00     0.066 C 
HETATM   10  H   UNL     1     -35.652  37.193 -53.018  1.00  0.00     0.161 HD
ENDROOT
BRANCH   7  11
HETATM   11  C   UNL     1     -37.976  38.183 -50.847  1.00  0.00     0.261 C 
HETATM   12  N   UNL     1     -39.096  38.871 -50.423  1.00  0.00    -0.323 N 
HETATM   13  H   UNL     1     -38.950  39.853 -50.218  1.00  0.00     0.169 HD
HETATM   14  O   UNL     1     -37.905  36.975 -51.044  1.00  0.00    -0.267 OA
BRANCH  12  15
HETATM   15  C   UNL     1     -40.410  38.379 -50.294  1.00  0.00     0.035 A 
HETATM   16  C   UNL     1     -40.832  37.544 -49.262  1.00  0.00     0.030 A 
HETATM   17  C   UNL     1     -42.141  37.041 -49.233  1.00  0.00     0.012 A 
HETATM   18  C   UNL     1     -43.064  37.360 -50.237  1.00  0.00    -0.030 A 
HETATM   19  C   UNL     1     -42.630  38.208 -51.268  1.00  0.00     0.012 A 
HETATM   20  C   UNL     1     -41.327  38.722 -51.290  1.00  0.00     0.030 A 
BRANCH  18  21
HETATM   21  C   UNL     1     -44.459  36.764 -50.287  1.00  0.00     0.147 C 
HETATM   22  C   UNL     1     -45.215  36.717 -48.961  1.00  0.00     0.044 C 
BRANCH  21  23
HETATM   23  O   UNL     1     -45.252  37.507 -51.217  1.00  0.00    -0.391 OA
HETATM   24  H   UNL     1     -44.996  37.216 -52.108  1.00  0.00     0.210 HD
ENDBRANCH  21  23
ENDBRANCH  18  21
ENDBRANCH  12  15
ENDBRANCH   7  11
BRANCH   1  25
HETATM   25  C   UNL     1     -35.215  39.633 -55.199  1.00  0.00    -0.035 A 
HETATM   26  C   UNL     1     -34.379  40.479 -55.945  1.00  0.00     0.010 A 
HETATM   27  C   UNL     1     -34.903  41.357 -56.901  1.00  0.00     0.007 A 
HETATM   28  C   UNL     1     -36.279  41.428 -57.123  1.00  0.00    -0.062 A 
HETATM   29  C   UNL     1     -36.846  42.331 -58.179  1.00  0.00     0.048 C 
HETATM   30  C   UNL     1     -37.126  40.617 -56.364  1.00  0.00     0.007 A 
HETATM   31  C   UNL     1     -36.602  39.741 -55.409  1.00  0.00     0.010 A 
ENDBRANCH   1  25
BRANCH   8  32
HETATM   32  C   UNL     1     -32.571  40.545 -51.635  1.00  0.00     0.409 C 
HETATM   33  F   UNL     1     -32.950  40.904 -50.387  1.00  0.00    -0.169 F 
HETATM   34  F   UNL     1     -31.845  39.401 -51.499  1.00  0.00    -0.169 F 
HETATM   35  F   UNL     1     -31.717  41.474 -52.107  1.00  0.00    -0.169 F 
ENDBRANCH   8  32
TORSDOF 6
ENDMDL
