MODEL 1
REMARK VINA RESULT:      -8.8      0.000      0.000
REMARK  9 active torsions:
REMARK  status: ('A' for Active; 'I' for Inactive)
REMARK    1  A    between atoms: O_2  and  C_3 
REMARK    2  A    between atoms: C_4  and  O_5 
REMARK    3  A    between atoms: C_6  and  C_7 
REMARK    4  A    between atoms: N_8  and  N_9 
REMARK       I    between atoms: N_9  and  C_10 
REMARK    5  A    between atoms: C_10  and  C_11 
REMARK    6  A    between atoms: C_11  and  N_12 
REMARK       I    between atoms: N_12  and  C_13 
REMARK    7  A    between atoms: C_13  and  C_14 
REMARK    8  A    between atoms: C_15  and  C_16 
REMARK    9  A    between atoms: C_15  and  C_22 
ROOT
HETATM    1  N   UNL     1     -42.324  56.052 -55.735  1.00  0.00    -0.352 N 
HETATM    2  C   UNL     1     -42.495  54.696 -55.626  1.00  0.00     0.223 C 
HETATM    3  O   UNL     1     -43.565  54.134 -55.828  1.00  0.00    -0.273 OA
HETATM    4  H   UNL     1     -41.442  56.474 -55.475  1.00  0.00     0.162 HD
ENDROOT
BRANCH   1   5
HETATM    5  C   UNL     1     -43.359  56.909 -56.276  1.00  0.00     0.227 C 
BRANCH   5   6
HETATM    6  C   UNL     1     -43.675  58.120 -55.403  1.00  0.00     0.255 C 
HETATM    7  N   UNL     1     -43.577  57.838 -54.049  1.00  0.00    -0.246 N 
HETATM    8  H   UNL     1     -43.157  56.953 -53.748  1.00  0.00     0.192 HD
HETATM    9  O   UNL     1     -44.018  59.194 -55.895  1.00  0.00    -0.270 OA
BRANCH   7  10
HETATM   10  N   UNL     1     -44.076  58.710 -53.131  1.00  0.00    -0.184 NA
HETATM   11  C   UNL     1     -43.184  59.381 -52.471  1.00  0.00     0.153 C 
BRANCH  11  12
HETATM   12  C   UNL     1     -43.569  60.311 -51.390  1.00  0.00     0.019 A 
HETATM   13  C   UNL     1     -44.516  59.931 -50.438  1.00  0.00     0.110 A 
HETATM   14  C   UNL     1     -44.929  60.825 -49.438  1.00  0.00     0.102 A 
HETATM   15  C   UNL     1     -44.368  62.102 -49.388  1.00  0.00     0.040 A 
HETATM   16  C   UNL     1     -43.412  62.484 -50.335  1.00  0.00     0.004 A 
HETATM   17  C   UNL     1     -43.016  61.594 -51.335  1.00  0.00     0.016 A 
BRANCH  13  18
HETATM   18  O   UNL     1     -45.079  58.680 -50.477  1.00  0.00    -0.357 OA
HETATM   19  H   UNL     1     -45.296  58.527 -51.418  1.00  0.00     0.218 HD
ENDBRANCH  13  18
BRANCH  14  20
HETATM   20  O   UNL     1     -45.882  60.330 -48.582  1.00  0.00    -0.353 OA
HETATM   21  C   UNL     1     -45.739  60.670 -47.206  1.00  0.00     0.210 C 
ENDBRANCH  14  20
ENDBRANCH  11  12
ENDBRANCH   7  10
ENDBRANCH   5   6
ENDBRANCH   1   5
BRANCH   2  22
HETATM   22  C   UNL     1     -41.260  53.975 -55.243  1.00  0.00     0.097 A 
HETATM   23  C   UNL     1     -40.899  53.755 -53.764  1.00  0.00     0.027 A 
HETATM   24  C   UNL     1     -40.064  54.665 -54.666  1.00  0.00     0.035 A 
BRANCH  23  25
HETATM   25  C   UNL     1     -41.641  54.460 -52.622  1.00  0.00    -0.044 A 
HETATM   26  C   UNL     1     -41.188  55.669 -52.064  1.00  0.00     0.008 A 
HETATM   27  C   UNL     1     -41.887  56.307 -51.035  1.00  0.00     0.001 A 
HETATM   28  C   UNL     1     -43.070  55.757 -50.549  1.00  0.00     0.000 A 
HETATM   29  C   UNL     1     -43.554  54.572 -51.093  1.00  0.00     0.001 A 
HETATM   30  C   UNL     1     -42.847  53.937 -52.117  1.00  0.00     0.008 A 
ENDBRANCH  23  25
BRANCH  23  31
HETATM   31  C   UNL     1     -40.391  52.351 -53.423  1.00  0.00    -0.044 A 
HETATM   32  C   UNL     1     -39.849  52.040 -52.164  1.00  0.00     0.008 A 
HETATM   33  C   UNL     1     -39.404  50.750 -51.862  1.00  0.00     0.001 A 
HETATM   34  C   UNL     1     -39.495  49.739 -52.814  1.00  0.00     0.000 A 
HETATM   35  C   UNL     1     -40.035  50.014 -54.065  1.00  0.00     0.001 A 
HETATM   36  C   UNL     1     -40.479  51.305 -54.362  1.00  0.00     0.008 A 
ENDBRANCH  23  31
ENDBRANCH   2  22
TORSDOF 9
ENDMDL
MODEL 2
REMARK VINA RESULT:      -8.8      1.113      1.706
REMARK  9 active torsions:
REMARK  status: ('A' for Active; 'I' for Inactive)
REMARK    1  A    between atoms: O_2  and  C_3 
REMARK    2  A    between atoms: C_4  and  O_5 
REMARK    3  A    between atoms: C_6  and  C_7 
REMARK    4  A    between atoms: N_8  and  N_9 
REMARK       I    between atoms: N_9  and  C_10 
REMARK    5  A    between atoms: C_10  and  C_11 
REMARK    6  A    between atoms: C_11  and  N_12 
REMARK       I    between atoms: N_12  and  C_13 
REMARK    7  A    between atoms: C_13  and  C_14 
REMARK    8  A    between atoms: C_15  and  C_16 
REMARK    9  A    between atoms: C_15  and  C_22 
ROOT
HETATM    1  N   UNL     1     -42.120  55.892 -56.392  1.00  0.00    -0.352 N 
HETATM    2  C   UNL     1     -42.403  54.712 -55.752  1.00  0.00     0.223 C 
HETATM    3  O   UNL     1     -43.542  54.315 -55.544  1.00  0.00    -0.273 OA
HETATM    4  H   UNL     1     -41.164  56.213 -56.462  1.00  0.00     0.162 HD
ENDROOT
BRANCH   1   5
HETATM    5  C   UNL     1     -43.154  56.676 -57.033  1.00  0.00     0.227 C 
BRANCH   5   6
HETATM    6  C   UNL     1     -43.724  57.784 -56.151  1.00  0.00     0.255 C 
HETATM    7  N   UNL     1     -42.734  58.507 -55.502  1.00  0.00    -0.246 N 
HETATM    8  H   UNL     1     -41.755  58.376 -55.773  1.00  0.00     0.192 HD
HETATM    9  O   UNL     1     -44.937  57.948 -56.030  1.00  0.00    -0.270 OA
BRANCH   7  10
HETATM   10  N   UNL     1     -43.059  59.347 -54.482  1.00  0.00    -0.184 NA
HETATM   11  C   UNL     1     -42.884  58.860 -53.293  1.00  0.00     0.153 C 
BRANCH  11  12
HETATM   12  C   UNL     1     -43.261  59.626 -52.088  1.00  0.00     0.019 A 
HETATM   13  C   UNL     1     -44.598  59.945 -51.846  1.00  0.00     0.110 A 
HETATM   14  C   UNL     1     -44.963  60.717 -50.732  1.00  0.00     0.102 A 
HETATM   15  C   UNL     1     -43.974  61.153 -49.849  1.00  0.00     0.040 A 
HETATM   16  C   UNL     1     -42.634  60.828 -50.082  1.00  0.00     0.004 A 
HETATM   17  C   UNL     1     -42.276  60.071 -51.200  1.00  0.00     0.016 A 
BRANCH  13  18
HETATM   18  O   UNL     1     -45.580  59.527 -52.708  1.00  0.00    -0.357 OA
HETATM   19  H   UNL     1     -45.676  58.567 -52.540  1.00  0.00     0.218 HD
ENDBRANCH  13  18
BRANCH  14  20
HETATM   20  O   UNL     1     -46.307  60.976 -50.627  1.00  0.00    -0.353 OA
HETATM   21  C   UNL     1     -46.685  62.345 -50.524  1.00  0.00     0.210 C 
ENDBRANCH  14  20
ENDBRANCH  11  12
ENDBRANCH   7  10
ENDBRANCH   5   6
ENDBRANCH   1   5
BRANCH   2  22
HETATM   22  C   UNL     1     -41.194  53.961 -55.339  1.00  0.00     0.097 A 
HETATM   23  C   UNL     1     -40.870  53.741 -53.852  1.00  0.00     0.027 A 
HETATM   24  C   UNL     1     -39.993  54.623 -54.742  1.00  0.00     0.035 A 
BRANCH  23  25
HETATM   25  C   UNL     1     -41.616  54.472 -52.730  1.00  0.00    -0.044 A 
HETATM   26  C   UNL     1     -42.835  54.003 -52.206  1.00  0.00     0.008 A 
HETATM   27  C   UNL     1     -43.492  54.673 -51.170  1.00  0.00     0.001 A 
HETATM   28  C   UNL     1     -42.935  55.823 -50.618  1.00  0.00     0.000 A 
HETATM   29  C   UNL     1     -41.722  56.301 -51.100  1.00  0.00     0.001 A 
HETATM   30  C   UNL     1     -41.073  55.631 -52.141  1.00  0.00     0.008 A 
ENDBRANCH  23  25
BRANCH  23  31
HETATM   31  C   UNL     1     -40.407  52.326 -53.493  1.00  0.00    -0.044 A 
HETATM   32  C   UNL     1     -40.477  51.263 -54.410  1.00  0.00     0.008 A 
HETATM   33  C   UNL     1     -40.036  49.980 -54.073  1.00  0.00     0.001 A 
HETATM   34  C   UNL     1     -39.510  49.733 -52.808  1.00  0.00     0.000 A 
HETATM   35  C   UNL     1     -39.420  50.767 -51.882  1.00  0.00     0.001 A 
HETATM   36  C   UNL     1     -39.861  52.047 -52.225  1.00  0.00     0.008 A 
ENDBRANCH  23  31
ENDBRANCH   2  22
TORSDOF 9
ENDMDL
MODEL 3
REMARK VINA RESULT:      -8.3      2.908      5.236
REMARK  9 active torsions:
REMARK  status: ('A' for Active; 'I' for Inactive)
REMARK    1  A    between atoms: O_2  and  C_3 
REMARK    2  A    between atoms: C_4  and  O_5 
REMARK    3  A    between atoms: C_6  and  C_7 
REMARK    4  A    between atoms: N_8  and  N_9 
REMARK       I    between atoms: N_9  and  C_10 
REMARK    5  A    between atoms: C_10  and  C_11 
REMARK    6  A    between atoms: C_11  and  N_12 
REMARK       I    between atoms: N_12  and  C_13 
REMARK    7  A    between atoms: C_13  and  C_14 
REMARK    8  A    between atoms: C_15  and  C_16 
REMARK    9  A    between atoms: C_15  and  C_22 
ROOT
HETATM    1  N   UNL     1     -40.780  57.043 -50.658  1.00  0.00    -0.352 N 
HETATM    2  C   UNL     1     -42.030  56.525 -50.882  1.00  0.00     0.223 C 
HETATM    3  O   UNL     1     -43.047  57.206 -50.902  1.00  0.00    -0.273 OA
HETATM    4  H   UNL     1     -39.985  56.426 -50.568  1.00  0.00     0.162 HD
ENDROOT
BRANCH   1   5
HETATM    5  C   UNL     1     -40.547  58.471 -50.606  1.00  0.00     0.227 C 
BRANCH   5   6
HETATM    6  C   UNL     1     -40.729  59.176 -51.948  1.00  0.00     0.255 C 
HETATM    7  N   UNL     1     -41.877  59.951 -51.988  1.00  0.00    -0.246 N 
HETATM    8  H   UNL     1     -42.396  60.129 -51.124  1.00  0.00     0.192 HD
HETATM    9  O   UNL     1     -39.937  59.006 -52.873  1.00  0.00    -0.270 OA
BRANCH   7  10
HETATM   10  N   UNL     1     -42.336  60.431 -53.176  1.00  0.00    -0.184 NA
HETATM   11  C   UNL     1     -43.261  59.716 -53.737  1.00  0.00     0.153 C 
BRANCH  11  12
HETATM   12  C   UNL     1     -43.805  60.069 -55.064  1.00  0.00     0.019 A 
HETATM   13  C   UNL     1     -42.948  60.446 -56.099  1.00  0.00     0.110 A 
HETATM   14  C   UNL     1     -43.456  60.835 -57.347  1.00  0.00     0.102 A 
HETATM   15  C   UNL     1     -44.836  60.825 -57.558  1.00  0.00     0.040 A 
HETATM   16  C   UNL     1     -45.698  60.439 -56.526  1.00  0.00     0.004 A 
HETATM   17  C   UNL     1     -45.186  60.067 -55.282  1.00  0.00     0.016 A 
BRANCH  13  18
HETATM   18  O   UNL     1     -41.589  60.465 -55.906  1.00  0.00    -0.357 OA
HETATM   19  H   UNL     1     -41.220  60.852 -56.725  1.00  0.00     0.218 HD
ENDBRANCH  13  18
BRANCH  14  20
HETATM   20  O   UNL     1     -42.505  61.203 -58.267  1.00  0.00    -0.353 OA
HETATM   21  C   UNL     1     -42.329  60.336 -59.383  1.00  0.00     0.210 C 
ENDBRANCH  14  20
ENDBRANCH  11  12
ENDBRANCH   7  10
ENDBRANCH   5   6
ENDBRANCH   1   5
BRANCH   2  22
HETATM   22  C   UNL     1     -42.029  55.060 -51.101  1.00  0.00     0.097 A 
HETATM   23  C   UNL     1     -42.099  54.473 -52.520  1.00  0.00     0.027 A 
HETATM   24  C   UNL     1     -43.248  54.303 -51.525  1.00  0.00     0.035 A 
BRANCH  23  25
HETATM   25  C   UNL     1     -42.415  55.331 -53.751  1.00  0.00    -0.044 A 
HETATM   26  C   UNL     1     -41.421  56.039 -54.451  1.00  0.00     0.008 A 
HETATM   27  C   UNL     1     -41.725  56.802 -55.582  1.00  0.00     0.001 A 
HETATM   28  C   UNL     1     -43.033  56.862 -56.054  1.00  0.00     0.000 A 
HETATM   29  C   UNL     1     -44.036  56.158 -55.395  1.00  0.00     0.001 A 
HETATM   30  C   UNL     1     -43.727  55.403 -54.261  1.00  0.00     0.008 A 
ENDBRANCH  23  25
BRANCH  23  31
HETATM   31  C   UNL     1     -41.146  53.305 -52.786  1.00  0.00    -0.044 A 
HETATM   32  C   UNL     1     -40.248  52.837 -51.810  1.00  0.00     0.008 A 
HETATM   33  C   UNL     1     -39.394  51.760 -52.063  1.00  0.00     0.001 A 
HETATM   34  C   UNL     1     -39.422  51.122 -53.299  1.00  0.00     0.000 A 
HETATM   35  C   UNL     1     -40.305  51.556 -54.282  1.00  0.00     0.001 A 
HETATM   36  C   UNL     1     -41.157  52.633 -54.024  1.00  0.00     0.008 A 
ENDBRANCH  23  31
ENDBRANCH   2  22
TORSDOF 9
ENDMDL
MODEL 4
REMARK VINA RESULT:      -8.2      2.832      6.501
REMARK  9 active torsions:
REMARK  status: ('A' for Active; 'I' for Inactive)
REMARK    1  A    between atoms: O_2  and  C_3 
REMARK    2  A    between atoms: C_4  and  O_5 
REMARK    3  A    between atoms: C_6  and  C_7 
REMARK    4  A    between atoms: N_8  and  N_9 
REMARK       I    between atoms: N_9  and  C_10 
REMARK    5  A    between atoms: C_10  and  C_11 
REMARK    6  A    between atoms: C_11  and  N_12 
REMARK       I    between atoms: N_12  and  C_13 
REMARK    7  A    between atoms: C_13  and  C_14 
REMARK    8  A    between atoms: C_15  and  C_16 
REMARK    9  A    between atoms: C_15  and  C_22 
ROOT
HETATM    1  N   UNL     1     -42.461  58.925 -51.424  1.00  0.00    -0.352 N 
HETATM    2  C   UNL     1     -43.496  58.059 -51.666  1.00  0.00     0.223 C 
HETATM    3  O   UNL     1     -44.403  58.297 -52.455  1.00  0.00    -0.273 OA
HETATM    4  H   UNL     1     -41.785  58.716 -50.702  1.00  0.00     0.162 HD
ENDROOT
BRANCH   1   5
HETATM    5  C   UNL     1     -42.264  60.118 -52.221  1.00  0.00     0.227 C 
BRANCH   5   6
HETATM    6  C   UNL     1     -41.738  59.840 -53.627  1.00  0.00     0.255 C 
HETATM    7  N   UNL     1     -42.681  60.103 -54.608  1.00  0.00    -0.246 N 
HETATM    8  H   UNL     1     -43.543  60.596 -54.358  1.00  0.00     0.192 HD
HETATM    9  O   UNL     1     -40.607  59.392 -53.811  1.00  0.00    -0.270 OA
BRANCH   7  10
HETATM   10  N   UNL     1     -42.483  59.667 -55.881  1.00  0.00    -0.184 NA
HETATM   11  C   UNL     1     -43.316  58.759 -56.286  1.00  0.00     0.153 C 
BRANCH  11  12
HETATM   12  C   UNL     1     -43.182  58.135 -57.618  1.00  0.00     0.019 A 
HETATM   13  C   UNL     1     -44.231  57.384 -58.152  1.00  0.00     0.110 A 
HETATM   14  C   UNL     1     -44.097  56.742 -59.393  1.00  0.00     0.102 A 
HETATM   15  C   UNL     1     -42.903  56.875 -60.106  1.00  0.00     0.040 A 
HETATM   16  C   UNL     1     -41.853  57.633 -59.578  1.00  0.00     0.004 A 
HETATM   17  C   UNL     1     -41.989  58.257 -58.336  1.00  0.00     0.016 A 
BRANCH  13  18
HETATM   18  O   UNL     1     -45.408  57.242 -57.461  1.00  0.00    -0.357 OA
HETATM   19  H   UNL     1     -45.656  56.302 -57.569  1.00  0.00     0.218 HD
ENDBRANCH  13  18
BRANCH  14  20
HETATM   20  O   UNL     1     -45.195  56.020 -59.790  1.00  0.00    -0.353 OA
HETATM   21  C   UNL     1     -44.941  54.751 -60.383  1.00  0.00     0.210 C 
ENDBRANCH  14  20
ENDBRANCH  11  12
ENDBRANCH   7  10
ENDBRANCH   5   6
ENDBRANCH   1   5
BRANCH   2  22
HETATM   22  C   UNL     1     -43.411  56.805 -50.883  1.00  0.00     0.097 A 
HETATM   23  C   UNL     1     -42.832  55.523 -51.506  1.00  0.00     0.027 A 
HETATM   24  C   UNL     1     -44.310  55.634 -51.127  1.00  0.00     0.035 A 
BRANCH  23  25
HETATM   25  C   UNL     1     -42.544  55.394 -53.006  1.00  0.00    -0.044 A 
HETATM   26  C   UNL     1     -41.341  55.841 -53.583  1.00  0.00     0.008 A 
HETATM   27  C   UNL     1     -41.088  55.698 -54.950  1.00  0.00     0.001 A 
HETATM   28  C   UNL     1     -42.028  55.086 -55.774  1.00  0.00     0.000 A 
HETATM   29  C   UNL     1     -43.218  54.616 -55.231  1.00  0.00     0.001 A 
HETATM   30  C   UNL     1     -43.468  54.768 -53.865  1.00  0.00     0.008 A 
ENDBRANCH  23  25
BRANCH  23  31
HETATM   31  C   UNL     1     -41.874  54.740 -50.603  1.00  0.00    -0.044 A 
HETATM   32  C   UNL     1     -41.458  55.231 -49.353  1.00  0.00     0.008 A 
HETATM   33  C   UNL     1     -40.594  54.499 -48.534  1.00  0.00     0.001 A 
HETATM   34  C   UNL     1     -40.130  53.253 -48.946  1.00  0.00     0.000 A 
HETATM   35  C   UNL     1     -40.531  52.737 -50.173  1.00  0.00     0.001 A 
HETATM   36  C   UNL     1     -41.394  53.473 -50.988  1.00  0.00     0.008 A 
ENDBRANCH  23  31
ENDBRANCH   2  22
TORSDOF 9
ENDMDL
MODEL 5
REMARK VINA RESULT:      -8.1      3.380      6.781
REMARK  9 active torsions:
REMARK  status: ('A' for Active; 'I' for Inactive)
REMARK    1  A    between atoms: O_2  and  C_3 
REMARK    2  A    between atoms: C_4  and  O_5 
REMARK    3  A    between atoms: C_6  and  C_7 
REMARK    4  A    between atoms: N_8  and  N_9 
REMARK       I    between atoms: N_9  and  C_10 
REMARK    5  A    between atoms: C_10  and  C_11 
REMARK    6  A    between atoms: C_11  and  N_12 
REMARK       I    between atoms: N_12  and  C_13 
REMARK    7  A    between atoms: C_13  and  C_14 
REMARK    8  A    between atoms: C_15  and  C_16 
REMARK    9  A    between atoms: C_15  and  C_22 
ROOT
HETATM    1  N   UNL     1     -42.292  59.210 -52.993  1.00  0.00    -0.352 N 
HETATM    2  C   UNL     1     -41.250  58.527 -52.418  1.00  0.00     0.223 C 
HETATM    3  O   UNL     1     -40.080  58.691 -52.738  1.00  0.00    -0.273 OA
HETATM    4  H   UNL     1     -43.245  58.976 -52.751  1.00  0.00     0.162 HD
ENDROOT
BRANCH   1   5
HETATM    5  C   UNL     1     -42.068  60.313 -53.904  1.00  0.00     0.227 C 
BRANCH   5   6
HETATM    6  C   UNL     1     -42.492  60.021 -55.341  1.00  0.00     0.255 C 
HETATM    7  N   UNL     1     -43.791  59.546 -55.424  1.00  0.00    -0.246 N 
HETATM    8  H   UNL     1     -44.396  59.586 -54.599  1.00  0.00     0.192 HD
HETATM    9  O   UNL     1     -41.713  60.168 -56.282  1.00  0.00    -0.270 OA
BRANCH   7  10
HETATM   10  N   UNL     1     -44.243  58.989 -56.581  1.00  0.00    -0.184 NA
HETATM   11  C   UNL     1     -43.765  57.813 -56.845  1.00  0.00     0.153 C 
BRANCH  11  12
HETATM   12  C   UNL     1     -44.104  57.112 -58.101  1.00  0.00     0.019 A 
HETATM   13  C   UNL     1     -45.426  57.063 -58.546  1.00  0.00     0.110 A 
HETATM   14  C   UNL     1     -45.768  56.356 -59.708  1.00  0.00     0.102 A 
HETATM   15  C   UNL     1     -44.766  55.710 -60.435  1.00  0.00     0.040 A 
HETATM   16  C   UNL     1     -43.439  55.763 -59.998  1.00  0.00     0.004 A 
HETATM   17  C   UNL     1     -43.108  56.457 -58.832  1.00  0.00     0.016 A 
BRANCH  13  18
HETATM   18  O   UNL     1     -46.421  57.690 -57.839  1.00  0.00    -0.357 OA
HETATM   19  H   UNL     1     -46.654  57.069 -57.120  1.00  0.00     0.218 HD
ENDBRANCH  13  18
BRANCH  14  20
HETATM   20  O   UNL     1     -47.105  56.371 -60.019  1.00  0.00    -0.353 OA
HETATM   21  C   UNL     1     -47.437  56.529 -61.394  1.00  0.00     0.210 C 
ENDBRANCH  14  20
ENDBRANCH  11  12
ENDBRANCH   7  10
ENDBRANCH   5   6
ENDBRANCH   1   5
BRANCH   2  22
HETATM   22  C   UNL     1     -41.679  57.574 -51.368  1.00  0.00     0.097 A 
HETATM   23  C   UNL     1     -41.944  56.097 -51.702  1.00  0.00     0.027 A 
HETATM   24  C   UNL     1     -43.073  57.038 -51.279  1.00  0.00     0.035 A 
BRANCH  23  25
HETATM   25  C   UNL     1     -42.022  55.580 -53.144  1.00  0.00    -0.044 A 
HETATM   26  C   UNL     1     -40.888  55.476 -53.969  1.00  0.00     0.008 A 
HETATM   27  C   UNL     1     -40.975  54.985 -55.275  1.00  0.00     0.001 A 
HETATM   28  C   UNL     1     -42.202  54.568 -55.783  1.00  0.00     0.000 A 
HETATM   29  C   UNL     1     -43.339  54.640 -54.986  1.00  0.00     0.001 A 
HETATM   30  C   UNL     1     -43.246  55.138 -53.684  1.00  0.00     0.008 A 
ENDBRANCH  23  25
BRANCH  23  31
HETATM   31  C   UNL     1     -41.376  55.092 -50.696  1.00  0.00    -0.044 A 
HETATM   32  C   UNL     1     -40.827  53.862 -51.098  1.00  0.00     0.008 A 
HETATM   33  C   UNL     1     -40.298  52.962 -50.169  1.00  0.00     0.001 A 
HETATM   34  C   UNL     1     -40.302  53.275 -48.813  1.00  0.00     0.000 A 
HETATM   35  C   UNL     1     -40.831  54.488 -48.385  1.00  0.00     0.001 A 
HETATM   36  C   UNL     1     -41.358  55.384 -49.318  1.00  0.00     0.008 A 
ENDBRANCH  23  31
ENDBRANCH   2  22
TORSDOF 9
ENDMDL
MODEL 6
REMARK VINA RESULT:      -8.1      2.707      5.506
REMARK  9 active torsions:
REMARK  status: ('A' for Active; 'I' for Inactive)
REMARK    1  A    between atoms: O_2  and  C_3 
REMARK    2  A    between atoms: C_4  and  O_5 
REMARK    3  A    between atoms: C_6  and  C_7 
REMARK    4  A    between atoms: N_8  and  N_9 
REMARK       I    between atoms: N_9  and  C_10 
REMARK    5  A    between atoms: C_10  and  C_11 
REMARK    6  A    between atoms: C_11  and  N_12 
REMARK       I    between atoms: N_12  and  C_13 
REMARK    7  A    between atoms: C_13  and  C_14 
REMARK    8  A    between atoms: C_15  and  C_16 
REMARK    9  A    between atoms: C_15  and  C_22 
ROOT
HETATM    1  N   UNL     1     -41.409  57.203 -50.975  1.00  0.00    -0.352 N 
HETATM    2  C   UNL     1     -42.603  56.548 -51.144  1.00  0.00     0.223 C 
HETATM    3  O   UNL     1     -43.673  57.126 -51.286  1.00  0.00    -0.273 OA
HETATM    4  H   UNL     1     -40.568  56.679 -50.778  1.00  0.00     0.162 HD
ENDROOT
BRANCH   1   5
HETATM    5  C   UNL     1     -41.301  58.639 -51.131  1.00  0.00     0.227 C 
BRANCH   5   6
HETATM    6  C   UNL     1     -41.319  59.104 -52.584  1.00  0.00     0.255 C 
HETATM    7  N   UNL     1     -42.601  59.370 -53.040  1.00  0.00    -0.246 N 
HETATM    8  H   UNL     1     -43.376  59.406 -52.371  1.00  0.00     0.192 HD
HETATM    9  O   UNL     1     -40.285  59.177 -53.247  1.00  0.00    -0.270 OA
BRANCH   7  10
HETATM   10  N   UNL     1     -42.832  59.537 -54.370  1.00  0.00    -0.184 NA
HETATM   11  C   UNL     1     -43.965  59.067 -54.793  1.00  0.00     0.153 C 
BRANCH  11  12
HETATM   12  C   UNL     1     -44.326  59.107 -56.224  1.00  0.00     0.019 A 
HETATM   13  C   UNL     1     -45.434  58.398 -56.692  1.00  0.00     0.110 A 
HETATM   14  C   UNL     1     -45.755  58.385 -58.057  1.00  0.00     0.102 A 
HETATM   15  C   UNL     1     -44.964  59.107 -58.953  1.00  0.00     0.040 A 
HETATM   16  C   UNL     1     -43.858  59.825 -58.489  1.00  0.00     0.004 A 
HETATM   17  C   UNL     1     -43.535  59.822 -57.130  1.00  0.00     0.016 A 
BRANCH  13  18
HETATM   18  O   UNL     1     -46.218  57.682 -55.823  1.00  0.00    -0.357 OA
HETATM   19  H   UNL     1     -46.740  57.077 -56.389  1.00  0.00     0.218 HD
ENDBRANCH  13  18
BRANCH  14  20
HETATM   20  O   UNL     1     -46.856  57.631 -58.383  1.00  0.00    -0.353 OA
HETATM   21  C   UNL     1     -46.768  56.858 -59.575  1.00  0.00     0.210 C 
ENDBRANCH  14  20
ENDBRANCH  11  12
ENDBRANCH   7  10
ENDBRANCH   5   6
ENDBRANCH   1   5
BRANCH   2  22
HETATM   22  C   UNL     1     -42.470  55.073 -51.143  1.00  0.00     0.097 A 
HETATM   23  C   UNL     1     -42.222  54.301 -52.449  1.00  0.00     0.027 A 
HETATM   24  C   UNL     1     -43.533  54.163 -51.674  1.00  0.00     0.035 A 
BRANCH  23  25
HETATM   25  C   UNL     1     -42.339  54.959 -53.830  1.00  0.00    -0.044 A 
HETATM   26  C   UNL     1     -41.386  55.876 -54.310  1.00  0.00     0.008 A 
HETATM   27  C   UNL     1     -41.499  56.452 -55.579  1.00  0.00     0.001 A 
HETATM   28  C   UNL     1     -42.564  56.111 -56.408  1.00  0.00     0.000 A 
HETATM   29  C   UNL     1     -43.513  55.193 -55.970  1.00  0.00     0.001 A 
HETATM   30  C   UNL     1     -43.397  54.626 -54.698  1.00  0.00     0.008 A 
ENDBRANCH  23  25
BRANCH  23  31
HETATM   31  C   UNL     1     -41.166  53.196 -52.359  1.00  0.00    -0.044 A 
HETATM   32  C   UNL     1     -40.635  52.576 -53.503  1.00  0.00     0.008 A 
HETATM   33  C   UNL     1     -39.660  51.579 -53.405  1.00  0.00     0.001 A 
HETATM   34  C   UNL     1     -39.191  51.181 -52.157  1.00  0.00     0.000 A 
HETATM   35  C   UNL     1     -39.691  51.783 -51.007  1.00  0.00     0.001 A 
HETATM   36  C   UNL     1     -40.665  52.779 -51.110  1.00  0.00     0.008 A 
ENDBRANCH  23  31
ENDBRANCH   2  22
TORSDOF 9
ENDMDL
MODEL 7
REMARK VINA RESULT:      -7.7      1.602      2.217
REMARK  9 active torsions:
REMARK  status: ('A' for Active; 'I' for Inactive)
REMARK    1  A    between atoms: O_2  and  C_3 
REMARK    2  A    between atoms: C_4  and  O_5 
REMARK    3  A    between atoms: C_6  and  C_7 
REMARK    4  A    between atoms: N_8  and  N_9 
REMARK       I    between atoms: N_9  and  C_10 
REMARK    5  A    between atoms: C_10  and  C_11 
REMARK    6  A    between atoms: C_11  and  N_12 
REMARK       I    between atoms: N_12  and  C_13 
REMARK    7  A    between atoms: C_13  and  C_14 
REMARK    8  A    between atoms: C_15  and  C_16 
REMARK    9  A    between atoms: C_15  and  C_22 
ROOT
HETATM    1  N   UNL     1     -44.194  56.951 -55.360  1.00  0.00    -0.352 N 
HETATM    2  C   UNL     1     -43.930  56.054 -54.357  1.00  0.00     0.223 C 
HETATM    3  O   UNL     1     -44.578  55.995 -53.319  1.00  0.00    -0.273 OA
HETATM    4  H   UNL     1     -43.576  57.014 -56.158  1.00  0.00     0.162 HD
ENDROOT
BRANCH   1   5
HETATM    5  C   UNL     1     -45.378  57.783 -55.345  1.00  0.00     0.227 C 
BRANCH   5   6
HETATM    6  C   UNL     1     -45.186  59.117 -54.628  1.00  0.00     0.255 C 
HETATM    7  N   UNL     1     -44.868  58.958 -53.288  1.00  0.00    -0.246 N 
HETATM    8  H   UNL     1     -44.627  58.027 -52.934  1.00  0.00     0.192 HD
HETATM    9  O   UNL     1     -45.350  60.188 -55.211  1.00  0.00    -0.270 OA
BRANCH   7  10
HETATM   10  N   UNL     1     -44.923  60.022 -52.441  1.00  0.00    -0.184 NA
HETATM   11  C   UNL     1     -44.504  59.786 -51.237  1.00  0.00     0.153 C 
BRANCH  11  12
HETATM   12  C   UNL     1     -44.571  60.821 -50.185  1.00  0.00     0.019 A 
HETATM   13  C   UNL     1     -45.280  60.584 -49.007  1.00  0.00     0.110 A 
HETATM   14  C   UNL     1     -45.396  61.578 -48.024  1.00  0.00     0.102 A 
HETATM   15  C   UNL     1     -44.775  62.813 -48.224  1.00  0.00     0.040 A 
HETATM   16  C   UNL     1     -44.055  63.052 -49.399  1.00  0.00     0.004 A 
HETATM   17  C   UNL     1     -43.957  62.062 -50.380  1.00  0.00     0.016 A 
BRANCH  13  18
HETATM   18  O   UNL     1     -45.899  59.377 -48.798  1.00  0.00    -0.357 OA
HETATM   19  H   UNL     1     -46.016  58.992 -49.690  1.00  0.00     0.218 HD
ENDBRANCH  13  18
BRANCH  14  20
HETATM   20  O   UNL     1     -46.139  61.221 -46.927  1.00  0.00    -0.353 OA
HETATM   21  C   UNL     1     -45.427  61.039 -45.707  1.00  0.00     0.210 C 
ENDBRANCH  14  20
ENDBRANCH  11  12
ENDBRANCH   7  10
ENDBRANCH   5   6
ENDBRANCH   1   5
BRANCH   2  22
HETATM   22  C   UNL     1     -42.787  55.160 -54.651  1.00  0.00     0.097 A 
HETATM   23  C   UNL     1     -41.444  55.327 -53.921  1.00  0.00     0.027 A 
HETATM   24  C   UNL     1     -41.583  55.608 -55.418  1.00  0.00     0.035 A 
BRANCH  23  25
HETATM   25  C   UNL     1     -41.128  56.548 -53.048  1.00  0.00    -0.044 A 
HETATM   26  C   UNL     1     -40.598  57.737 -53.580  1.00  0.00     0.008 A 
HETATM   27  C   UNL     1     -40.334  58.847 -52.771  1.00  0.00     0.001 A 
HETATM   28  C   UNL     1     -40.609  58.798 -51.408  1.00  0.00     0.000 A 
HETATM   29  C   UNL     1     -41.150  57.643 -50.854  1.00  0.00     0.001 A 
HETATM   30  C   UNL     1     -41.406  56.536 -51.667  1.00  0.00     0.008 A 
ENDBRANCH  23  25
BRANCH  23  31
HETATM   31  C   UNL     1     -40.795  54.022 -53.450  1.00  0.00    -0.044 A 
HETATM   32  C   UNL     1     -40.616  53.728 -52.087  1.00  0.00     0.008 A 
HETATM   33  C   UNL     1     -40.035  52.526 -51.672  1.00  0.00     0.001 A 
HETATM   34  C   UNL     1     -39.624  51.588 -52.614  1.00  0.00     0.000 A 
HETATM   35  C   UNL     1     -39.796  51.847 -53.969  1.00  0.00     0.001 A 
HETATM   36  C   UNL     1     -40.377  53.049 -54.379  1.00  0.00     0.008 A 
ENDBRANCH  23  31
ENDBRANCH   2  22
TORSDOF 9
ENDMDL
MODEL 8
REMARK VINA RESULT:      -7.6      2.729      6.040
REMARK  9 active torsions:
REMARK  status: ('A' for Active; 'I' for Inactive)
REMARK    1  A    between atoms: O_2  and  C_3 
REMARK    2  A    between atoms: C_4  and  O_5 
REMARK    3  A    between atoms: C_6  and  C_7 
REMARK    4  A    between atoms: N_8  and  N_9 
REMARK       I    between atoms: N_9  and  C_10 
REMARK    5  A    between atoms: C_10  and  C_11 
REMARK    6  A    between atoms: C_11  and  N_12 
REMARK       I    between atoms: N_12  and  C_13 
REMARK    7  A    between atoms: C_13  and  C_14 
REMARK    8  A    between atoms: C_15  and  C_16 
REMARK    9  A    between atoms: C_15  and  C_22 
ROOT
HETATM    1  N   UNL     1     -42.555  57.185 -51.004  1.00  0.00    -0.352 N 
HETATM    2  C   UNL     1     -41.380  56.522 -50.764  1.00  0.00     0.223 C 
HETATM    3  O   UNL     1     -40.283  57.067 -50.783  1.00  0.00    -0.273 OA
HETATM    4  H   UNL     1     -43.425  56.671 -51.059  1.00  0.00     0.162 HD
ENDROOT
BRANCH   1   5
HETATM    5  C   UNL     1     -42.605  58.628 -51.125  1.00  0.00     0.227 C 
BRANCH   5   6
HETATM    6  C   UNL     1     -42.215  59.144 -52.507  1.00  0.00     0.255 C 
HETATM    7  N   UNL     1     -42.692  58.338 -53.529  1.00  0.00    -0.246 N 
HETATM    8  H   UNL     1     -43.373  57.604 -53.315  1.00  0.00     0.192 HD
HETATM    9  O   UNL     1     -41.515  60.147 -52.643  1.00  0.00    -0.270 OA
BRANCH   7  10
HETATM   10  N   UNL     1     -42.224  58.493 -54.797  1.00  0.00    -0.184 NA
HETATM   11  C   UNL     1     -43.096  58.922 -55.656  1.00  0.00     0.153 C 
BRANCH  11  12
HETATM   12  C   UNL     1     -42.757  59.069 -57.085  1.00  0.00     0.019 A 
HETATM   13  C   UNL     1     -42.027  60.173 -57.527  1.00  0.00     0.110 A 
HETATM   14  C   UNL     1     -41.745  60.351 -58.889  1.00  0.00     0.102 A 
HETATM   15  C   UNL     1     -42.186  59.398 -59.809  1.00  0.00     0.040 A 
HETATM   16  C   UNL     1     -42.910  58.285 -59.371  1.00  0.00     0.004 A 
HETATM   17  C   UNL     1     -43.200  58.122 -58.015  1.00  0.00     0.016 A 
BRANCH  13  18
HETATM   18  O   UNL     1     -41.590  61.120 -56.634  1.00  0.00    -0.357 OA
HETATM   19  H   UNL     1     -41.378  61.905 -57.178  1.00  0.00     0.218 HD
ENDBRANCH  13  18
BRANCH  14  20
HETATM   20  O   UNL     1     -41.039  61.491 -59.187  1.00  0.00    -0.353 OA
HETATM   21  C   UNL     1     -41.109  61.949 -60.534  1.00  0.00     0.210 C 
ENDBRANCH  14  20
ENDBRANCH  11  12
ENDBRANCH   7  10
ENDBRANCH   5   6
ENDBRANCH   1   5
BRANCH   2  22
HETATM   22  C   UNL     1     -41.564  55.082 -50.473  1.00  0.00     0.097 A 
HETATM   23  C   UNL     1     -41.674  54.054 -51.611  1.00  0.00     0.027 A 
HETATM   24  C   UNL     1     -42.860  54.369 -50.699  1.00  0.00     0.035 A 
BRANCH  23  25
HETATM   25  C   UNL     1     -41.844  54.465 -53.079  1.00  0.00    -0.044 A 
HETATM   26  C   UNL     1     -43.105  54.544 -53.698  1.00  0.00     0.008 A 
HETATM   27  C   UNL     1     -43.242  54.939 -55.031  1.00  0.00     0.001 A 
HETATM   28  C   UNL     1     -42.118  55.281 -55.777  1.00  0.00     0.000 A 
HETATM   29  C   UNL     1     -40.859  55.232 -55.189  1.00  0.00     0.001 A 
HETATM   30  C   UNL     1     -40.728  54.830 -53.858  1.00  0.00     0.008 A 
ENDBRANCH  23  25
BRANCH  23  31
HETATM   31  C   UNL     1     -40.875  52.765 -51.400  1.00  0.00    -0.044 A 
HETATM   32  C   UNL     1     -40.865  52.087 -50.168  1.00  0.00     0.008 A 
HETATM   33  C   UNL     1     -40.142  50.903 -49.994  1.00  0.00     0.001 A 
HETATM   34  C   UNL     1     -39.414  50.367 -51.053  1.00  0.00     0.000 A 
HETATM   35  C   UNL     1     -39.412  51.011 -52.286  1.00  0.00     0.001 A 
HETATM   36  C   UNL     1     -40.136  52.193 -52.454  1.00  0.00     0.008 A 
ENDBRANCH  23  31
ENDBRANCH   2  22
TORSDOF 9
ENDMDL
MODEL 9
REMARK VINA RESULT:      -7.5      2.209      8.474
REMARK  9 active torsions:
REMARK  status: ('A' for Active; 'I' for Inactive)
REMARK    1  A    between atoms: O_2  and  C_3 
REMARK    2  A    between atoms: C_4  and  O_5 
REMARK    3  A    between atoms: C_6  and  C_7 
REMARK    4  A    between atoms: N_8  and  N_9 
REMARK       I    between atoms: N_9  and  C_10 
REMARK    5  A    between atoms: C_10  and  C_11 
REMARK    6  A    between atoms: C_11  and  N_12 
REMARK       I    between atoms: N_12  and  C_13 
REMARK    7  A    between atoms: C_13  and  C_14 
REMARK    8  A    between atoms: C_15  and  C_16 
REMARK    9  A    between atoms: C_15  and  C_22 
ROOT
HETATM    1  N   UNL     1     -43.565  58.765 -55.361  1.00  0.00    -0.352 N 
HETATM    2  C   UNL     1     -42.936  59.724 -54.609  1.00  0.00     0.223 C 
HETATM    3  O   UNL     1     -41.728  59.919 -54.640  1.00  0.00    -0.273 OA
HETATM    4  H   UNL     1     -44.553  58.590 -55.235  1.00  0.00     0.162 HD
ENDROOT
BRANCH   1   5
HETATM    5  C   UNL     1     -42.864  58.024 -56.389  1.00  0.00     0.227 C 
BRANCH   5   6
HETATM    6  C   UNL     1     -42.365  56.657 -55.931  1.00  0.00     0.255 C 
HETATM    7  N   UNL     1     -41.686  56.717 -54.724  1.00  0.00    -0.246 N 
HETATM    8  H   UNL     1     -41.715  57.579 -54.173  1.00  0.00     0.192 HD
HETATM    9  O   UNL     1     -42.535  55.649 -56.617  1.00  0.00    -0.270 OA
BRANCH   7  10
HETATM   10  N   UNL     1     -40.949  55.654 -54.301  1.00  0.00    -0.184 NA
HETATM   11  C   UNL     1     -41.546  54.877 -53.451  1.00  0.00     0.153 C 
BRANCH  11  12
HETATM   12  C   UNL     1     -40.848  53.725 -52.844  1.00  0.00     0.019 A 
HETATM   13  C   UNL     1     -40.238  52.766 -53.653  1.00  0.00     0.110 A 
HETATM   14  C   UNL     1     -39.619  51.639 -53.091  1.00  0.00     0.102 A 
HETATM   15  C   UNL     1     -39.600  51.491 -51.703  1.00  0.00     0.040 A 
HETATM   16  C   UNL     1     -40.202  52.454 -50.888  1.00  0.00     0.004 A 
HETATM   17  C   UNL     1     -40.829  53.565 -51.455  1.00  0.00     0.016 A 
BRANCH  13  18
HETATM   18  O   UNL     1     -40.252  52.897 -55.020  1.00  0.00    -0.357 OA
HETATM   19  H   UNL     1     -40.560  53.810 -55.186  1.00  0.00     0.218 HD
ENDBRANCH  13  18
BRANCH  14  20
HETATM   20  O   UNL     1     -39.078  50.765 -54.001  1.00  0.00    -0.353 OA
HETATM   21  C   UNL     1     -39.914  49.694 -54.429  1.00  0.00     0.210 C 
ENDBRANCH  14  20
ENDBRANCH  11  12
ENDBRANCH   7  10
ENDBRANCH   5   6
ENDBRANCH   1   5
BRANCH   2  22
HETATM   22  C   UNL     1     -43.863  60.506 -53.758  1.00  0.00     0.097 A 
HETATM   23  C   UNL     1     -44.098  60.123 -52.287  1.00  0.00     0.027 A 
HETATM   24  C   UNL     1     -45.204  59.995 -53.336  1.00  0.00     0.035 A 
BRANCH  23  25
HETATM   25  C   UNL     1     -43.599  58.801 -51.690  1.00  0.00    -0.044 A 
HETATM   26  C   UNL     1     -44.437  57.683 -51.530  1.00  0.00     0.008 A 
HETATM   27  C   UNL     1     -43.959  56.481 -51.001  1.00  0.00     0.001 A 
HETATM   28  C   UNL     1     -42.622  56.362 -50.633  1.00  0.00     0.000 A 
HETATM   29  C   UNL     1     -41.763  57.443 -50.797  1.00  0.00     0.001 A 
HETATM   30  C   UNL     1     -42.248  58.644 -51.321  1.00  0.00     0.008 A 
ENDBRANCH  23  25
BRANCH  23  31
HETATM   31  C   UNL     1     -44.115  61.299 -51.306  1.00  0.00    -0.044 A 
HETATM   32  C   UNL     1     -42.975  62.086 -51.066  1.00  0.00     0.008 A 
HETATM   33  C   UNL     1     -43.010  63.165 -50.179  1.00  0.00     0.001 A 
HETATM   34  C   UNL     1     -44.189  63.485 -49.512  1.00  0.00     0.000 A 
HETATM   35  C   UNL     1     -45.336  62.729 -49.736  1.00  0.00     0.001 A 
HETATM   36  C   UNL     1     -45.296  61.652 -50.624  1.00  0.00     0.008 A 
ENDBRANCH  23  31
ENDBRANCH   2  22
TORSDOF 9
ENDMDL
MODEL 10
REMARK VINA RESULT:      -7.5      2.356      9.596
REMARK  9 active torsions:
REMARK  status: ('A' for Active; 'I' for Inactive)
REMARK    1  A    between atoms: O_2  and  C_3 
REMARK    2  A    between atoms: C_4  and  O_5 
REMARK    3  A    between atoms: C_6  and  C_7 
REMARK    4  A    between atoms: N_8  and  N_9 
REMARK       I    between atoms: N_9  and  C_10 
REMARK    5  A    between atoms: C_10  and  C_11 
REMARK    6  A    between atoms: C_11  and  N_12 
REMARK       I    between atoms: N_12  and  C_13 
REMARK    7  A    between atoms: C_13  and  C_14 
REMARK    8  A    between atoms: C_15  and  C_16 
REMARK    9  A    between atoms: C_15  and  C_22 
ROOT
HETATM    1  N   UNL     1     -42.438  60.842 -52.610  1.00  0.00    -0.352 N 
HETATM    2  C   UNL     1     -43.241  60.394 -51.593  1.00  0.00     0.223 C 
HETATM    3  O   UNL     1     -43.981  59.423 -51.696  1.00  0.00    -0.273 OA
HETATM    4  H   UNL     1     -41.911  61.698 -52.499  1.00  0.00     0.162 HD
ENDROOT
BRANCH   1   5
HETATM    5  C   UNL     1     -42.270  60.089 -53.835  1.00  0.00     0.227 C 
BRANCH   5   6
HETATM    6  C   UNL     1     -41.226  58.980 -53.738  1.00  0.00     0.255 C 
HETATM    7  N   UNL     1     -41.714  57.754 -54.164  1.00  0.00    -0.246 N 
HETATM    8  H   UNL     1     -42.617  57.710 -54.645  1.00  0.00     0.192 HD
HETATM    9  O   UNL     1     -40.103  59.194 -53.285  1.00  0.00    -0.270 OA
BRANCH   7  10
HETATM   10  N   UNL     1     -41.018  56.613 -53.902  1.00  0.00    -0.184 NA
HETATM   11  C   UNL     1     -41.628  55.764 -53.135  1.00  0.00     0.153 C 
BRANCH  11  12
HETATM   12  C   UNL     1     -40.971  54.514 -52.702  1.00  0.00     0.019 A 
HETATM   13  C   UNL     1     -40.632  53.535 -53.638  1.00  0.00     0.110 A 
HETATM   14  C   UNL     1     -40.057  52.321 -53.233  1.00  0.00     0.102 A 
HETATM   15  C   UNL     1     -39.805  52.102 -51.877  1.00  0.00     0.040 A 
HETATM   16  C   UNL     1     -40.136  53.083 -50.936  1.00  0.00     0.004 A 
HETATM   17  C   UNL     1     -40.721  54.283 -51.346  1.00  0.00     0.016 A 
BRANCH  13  18
HETATM   18  O   UNL     1     -40.877  53.735 -54.973  1.00  0.00    -0.357 OA
HETATM   19  H   UNL     1     -41.852  53.751 -55.055  1.00  0.00     0.218 HD
ENDBRANCH  13  18
BRANCH  14  20
HETATM   20  O   UNL     1     -39.794  51.440 -54.252  1.00  0.00    -0.353 OA
HETATM   21  C   UNL     1     -39.964  50.057 -53.958  1.00  0.00     0.210 C 
ENDBRANCH  14  20
ENDBRANCH  11  12
ENDBRANCH   7  10
ENDBRANCH   5   6
ENDBRANCH   1   5
BRANCH   2  22
HETATM   22  C   UNL     1     -43.125  61.196 -50.353  1.00  0.00     0.097 A 
HETATM   23  C   UNL     1     -44.181  62.254 -49.994  1.00  0.00     0.027 A 
HETATM   24  C   UNL     1     -42.747  62.643 -50.356  1.00  0.00     0.035 A 
BRANCH  23  25
HETATM   25  C   UNL     1     -45.258  62.712 -50.985  1.00  0.00    -0.044 A 
HETATM   26  C   UNL     1     -46.528  62.111 -51.048  1.00  0.00     0.008 A 
HETATM   27  C   UNL     1     -47.504  62.553 -51.945  1.00  0.00     0.001 A 
HETATM   28  C   UNL     1     -47.238  63.623 -52.794  1.00  0.00     0.000 A 
HETATM   29  C   UNL     1     -45.998  64.251 -52.744  1.00  0.00     0.001 A 
HETATM   30  C   UNL     1     -45.025  63.800 -51.850  1.00  0.00     0.008 A 
ENDBRANCH  23  25
BRANCH  23  31
HETATM   31  C   UNL     1     -44.622  62.259 -48.528  1.00  0.00    -0.044 A 
HETATM   32  C   UNL     1     -44.764  63.450 -47.795  1.00  0.00     0.008 A 
HETATM   33  C   UNL     1     -45.182  63.440 -46.462  1.00  0.00     0.001 A 
HETATM   34  C   UNL     1     -45.473  62.234 -45.830  1.00  0.00     0.000 A 
HETATM   35  C   UNL     1     -45.350  61.039 -46.532  1.00  0.00     0.001 A 
HETATM   36  C   UNL     1     -44.932  61.056 -47.865  1.00  0.00     0.008 A 
ENDBRANCH  23  31
ENDBRANCH   2  22
TORSDOF 9
ENDMDL
