MODEL 1
REMARK VINA RESULT:      -7.8      0.000      0.000
REMARK  5 active torsions:
REMARK  status: ('A' for Active; 'I' for Inactive)
REMARK    1  A    between atoms: N_3  and  C_4 
REMARK    2  A    between atoms: C_5  and  O_6 
REMARK    3  A    between atoms: C_14  and  C_15 
REMARK    4  A    between atoms: C_15  and  N_16 
REMARK       I    between atoms: N_16  and  C_17 
REMARK       I    between atoms: C_17  and  N_18 
REMARK    5  A    between atoms: N_18  and  C_19 
ROOT
HETATM    1  C   UNL     1     -43.669  53.910 -50.890  1.00  0.00     0.068 C 
HETATM    2  C   UNL     1     -43.119  55.032 -51.702  1.00  0.00     0.014 A 
HETATM    3  N   UNL     1     -41.979  54.961 -52.499  1.00  0.00    -0.317 N 
HETATM    4  C   UNL     1     -41.829  56.196 -53.135  1.00  0.00     0.021 A 
HETATM    5  C   UNL     1     -40.636  56.557 -53.961  1.00  0.00     0.069 C 
HETATM    6  C   UNL     1     -42.932  56.986 -52.843  1.00  0.00    -0.016 A 
HETATM    7  C   UNL     1     -43.697  56.273 -51.892  1.00  0.00     0.035 A 
ENDROOT
BRANCH   6   8
HETATM    8  C   UNL     1     -43.277  58.311 -53.429  1.00  0.00     0.165 C 
BRANCH   8   9
HETATM    9  N   UNL     1     -44.492  58.225 -54.200  1.00  0.00    -0.339 N 
HETATM   10  C   UNL     1     -44.581  58.042 -55.547  1.00  0.00     0.316 C 
HETATM   11  N   UNL     1     -43.414  57.694 -56.165  1.00  0.00    -0.339 N 
HETATM   12  O   UNL     1     -45.648  58.218 -56.122  1.00  0.00    -0.247 OA
HETATM   13  H   UNL     1     -42.764  57.187 -55.586  1.00  0.00     0.164 HD
HETATM   14  H   UNL     1     -45.348  58.564 -53.777  1.00  0.00     0.164 HD
BRANCH  11  15
HETATM   15  C   UNL     1     -43.270  57.459 -57.595  1.00  0.00     0.086 C 
HETATM   16  C   UNL     1     -43.175  55.974 -57.966  1.00  0.00     0.025 C 
HETATM   17  C   UNL     1     -43.132  55.792 -59.483  1.00  0.00     0.002 C 
HETATM   18  C   UNL     1     -42.009  56.609 -60.119  1.00  0.00     0.000 C 
HETATM   19  C   UNL     1     -42.082  58.083 -59.729  1.00  0.00     0.002 C 
HETATM   20  C   UNL     1     -42.123  58.266 -58.212  1.00  0.00     0.025 C 
ENDBRANCH  11  15
ENDBRANCH   8   9
ENDBRANCH   6   8
BRANCH   3  21
HETATM   21  C   UNL     1     -41.205  53.792 -52.775  1.00  0.00     0.072 A 
HETATM   22  C   UNL     1     -40.265  53.277 -51.866  1.00  0.00     0.095 A 
HETATM   23  C   UNL     1     -39.572  52.106 -52.207  1.00  0.00     0.039 A 
HETATM   24  C   UNL     1     -39.818  51.452 -53.417  1.00  0.00     0.003 A 
HETATM   25  C   UNL     1     -40.752  51.963 -54.311  1.00  0.00     0.002 A 
HETATM   26  C   UNL     1     -41.443  53.129 -53.994  1.00  0.00     0.033 A 
BRANCH  22  27
HETATM   27  O   UNL     1     -39.996  53.997 -50.733  1.00  0.00    -0.354 OA
HETATM   28  C   UNL     1     -40.273  53.359 -49.491  1.00  0.00     0.210 C 
ENDBRANCH  22  27
ENDBRANCH   3  21
TORSDOF 5
ENDMDL
MODEL 2
REMARK VINA RESULT:      -7.4      1.738      7.397
REMARK  5 active torsions:
REMARK  status: ('A' for Active; 'I' for Inactive)
REMARK    1  A    between atoms: N_3  and  C_4 
REMARK    2  A    between atoms: C_5  and  O_6 
REMARK    3  A    between atoms: C_14  and  C_15 
REMARK    4  A    between atoms: C_15  and  N_16 
REMARK       I    between atoms: N_16  and  C_17 
REMARK       I    between atoms: C_17  and  N_18 
REMARK    5  A    between atoms: N_18  and  C_19 
ROOT
HETATM    1  C   UNL     1     -42.496  60.585 -56.275  1.00  0.00     0.068 C 
HETATM    2  C   UNL     1     -42.307  59.209 -55.734  1.00  0.00     0.014 A 
HETATM    3  N   UNL     1     -42.571  58.031 -56.430  1.00  0.00    -0.317 N 
HETATM    4  C   UNL     1     -42.216  56.962 -55.604  1.00  0.00     0.021 A 
HETATM    5  C   UNL     1     -42.490  55.532 -55.944  1.00  0.00     0.069 C 
HETATM    6  C   UNL     1     -41.615  57.463 -54.457  1.00  0.00    -0.016 A 
HETATM    7  C   UNL     1     -41.740  58.870 -54.520  1.00  0.00     0.035 A 
ENDROOT
BRANCH   6   8
HETATM    8  C   UNL     1     -40.938  56.692 -53.379  1.00  0.00     0.165 C 
BRANCH   8   9
HETATM    9  N   UNL     1     -41.897  55.935 -52.615  1.00  0.00    -0.339 N 
HETATM   10  C   UNL     1     -41.945  54.579 -52.496  1.00  0.00     0.316 C 
HETATM   11  N   UNL     1     -40.850  53.916 -52.969  1.00  0.00    -0.339 N 
HETATM   12  O   UNL     1     -42.934  54.038 -52.017  1.00  0.00    -0.247 OA
HETATM   13  H   UNL     1     -39.990  54.438 -52.932  1.00  0.00     0.164 HD
HETATM   14  H   UNL     1     -42.754  56.400 -52.335  1.00  0.00     0.164 HD
BRANCH  11  15
HETATM   15  C   UNL     1     -40.686  52.469 -52.957  1.00  0.00     0.086 C 
HETATM   16  C   UNL     1     -39.649  51.977 -51.939  1.00  0.00     0.025 C 
HETATM   17  C   UNL     1     -39.602  50.450 -51.901  1.00  0.00     0.002 C 
HETATM   18  C   UNL     1     -39.361  49.857 -53.288  1.00  0.00     0.000 C 
HETATM   19  C   UNL     1     -40.373  50.366 -54.311  1.00  0.00     0.002 C 
HETATM   20  C   UNL     1     -40.419  51.893 -54.351  1.00  0.00     0.025 C 
ENDBRANCH  11  15
ENDBRANCH   8   9
ENDBRANCH   6   8
BRANCH   3  21
HETATM   21  C   UNL     1     -42.953  57.921 -57.802  1.00  0.00     0.072 A 
HETATM   22  C   UNL     1     -44.297  57.898 -58.213  1.00  0.00     0.095 A 
HETATM   23  C   UNL     1     -44.581  57.819 -59.584  1.00  0.00     0.039 A 
HETATM   24  C   UNL     1     -43.552  57.780 -60.529  1.00  0.00     0.003 A 
HETATM   25  C   UNL     1     -42.224  57.808 -60.119  1.00  0.00     0.002 A 
HETATM   26  C   UNL     1     -41.923  57.876 -58.761  1.00  0.00     0.033 A 
BRANCH  22  27
HETATM   27  O   UNL     1     -45.269  57.852 -57.249  1.00  0.00    -0.354 OA
HETATM   28  C   UNL     1     -45.942  59.074 -56.963  1.00  0.00     0.210 C 
ENDBRANCH  22  27
ENDBRANCH   3  21
TORSDOF 5
ENDMDL
MODEL 3
REMARK VINA RESULT:      -7.4      1.576      7.031
REMARK  5 active torsions:
REMARK  status: ('A' for Active; 'I' for Inactive)
REMARK    1  A    between atoms: N_3  and  C_4 
REMARK    2  A    between atoms: C_5  and  O_6 
REMARK    3  A    between atoms: C_14  and  C_15 
REMARK    4  A    between atoms: C_15  and  N_16 
REMARK       I    between atoms: N_16  and  C_17 
REMARK       I    between atoms: C_17  and  N_18 
REMARK    5  A    between atoms: N_18  and  C_19 
ROOT
HETATM    1  C   UNL     1     -46.131  58.432 -57.019  1.00  0.00     0.068 C 
HETATM    2  C   UNL     1     -45.056  57.912 -56.129  1.00  0.00     0.014 A 
HETATM    3  N   UNL     1     -43.771  57.565 -56.541  1.00  0.00    -0.317 N 
HETATM    4  C   UNL     1     -43.052  57.178 -55.408  1.00  0.00     0.021 A 
HETATM    5  C   UNL     1     -41.676  56.595 -55.465  1.00  0.00     0.069 C 
HETATM    6  C   UNL     1     -43.834  57.403 -54.283  1.00  0.00    -0.016 A 
HETATM    7  C   UNL     1     -45.108  57.797 -54.752  1.00  0.00     0.035 A 
ENDROOT
BRANCH   6   8
HETATM    8  C   UNL     1     -43.423  57.289 -52.857  1.00  0.00     0.165 C 
BRANCH   8   9
HETATM    9  N   UNL     1     -43.817  56.014 -52.314  1.00  0.00    -0.339 N 
HETATM   10  C   UNL     1     -43.072  54.872 -52.312  1.00  0.00     0.316 C 
HETATM   11  N   UNL     1     -41.763  55.033 -52.662  1.00  0.00    -0.339 N 
HETATM   12  O   UNL     1     -43.594  53.799 -52.037  1.00  0.00    -0.247 OA
HETATM   13  H   UNL     1     -41.376  55.939 -52.450  1.00  0.00     0.164 HD
HETATM   14  H   UNL     1     -44.802  55.858 -52.133  1.00  0.00     0.164 HD
BRANCH  11  15
HETATM   15  C   UNL     1     -40.786  53.956 -52.741  1.00  0.00     0.086 C 
HETATM   16  C   UNL     1     -41.005  53.016 -53.933  1.00  0.00     0.025 C 
HETATM   17  C   UNL     1     -39.890  51.975 -54.019  1.00  0.00     0.002 C 
HETATM   18  C   UNL     1     -39.734  51.202 -52.710  1.00  0.00     0.000 C 
HETATM   19  C   UNL     1     -39.547  52.134 -51.516  1.00  0.00     0.002 C 
HETATM   20  C   UNL     1     -40.662  53.175 -51.428  1.00  0.00     0.025 C 
ENDBRANCH  11  15
ENDBRANCH   8   9
ENDBRANCH   6   8
BRANCH   3  21
HETATM   21  C   UNL     1     -43.217  57.749 -57.845  1.00  0.00     0.072 A 
HETATM   22  C   UNL     1     -43.277  56.756 -58.837  1.00  0.00     0.095 A 
HETATM   23  C   UNL     1     -42.734  57.034 -60.101  1.00  0.00     0.039 A 
HETATM   24  C   UNL     1     -42.160  58.277 -60.379  1.00  0.00     0.003 A 
HETATM   25  C   UNL     1     -42.109  59.259 -59.395  1.00  0.00     0.002 A 
HETATM   26  C   UNL     1     -42.633  58.998 -58.132  1.00  0.00     0.033 A 
BRANCH  22  27
HETATM   27  O   UNL     1     -43.770  55.525 -58.494  1.00  0.00    -0.354 OA
HETATM   28  C   UNL     1     -44.235  54.705 -59.561  1.00  0.00     0.210 C 
ENDBRANCH  22  27
ENDBRANCH   3  21
TORSDOF 5
ENDMDL
MODEL 4
REMARK VINA RESULT:      -7.2     15.154     17.140
REMARK  5 active torsions:
REMARK  status: ('A' for Active; 'I' for Inactive)
REMARK    1  A    between atoms: N_3  and  C_4 
REMARK    2  A    between atoms: C_5  and  O_6 
REMARK    3  A    between atoms: C_14  and  C_15 
REMARK    4  A    between atoms: C_15  and  N_16 
REMARK       I    between atoms: N_16  and  C_17 
REMARK       I    between atoms: C_17  and  N_18 
REMARK    5  A    between atoms: N_18  and  C_19 
ROOT
HETATM    1  C   UNL     1     -37.151  41.832 -52.668  1.00  0.00     0.068 C 
HETATM    2  C   UNL     1     -36.105  41.612 -53.706  1.00  0.00     0.014 A 
HETATM    3  N   UNL     1     -34.888  40.969 -53.494  1.00  0.00    -0.317 N 
HETATM    4  C   UNL     1     -34.217  40.917 -54.718  1.00  0.00     0.021 A 
HETATM    5  C   UNL     1     -32.810  40.430 -54.867  1.00  0.00     0.069 C 
HETATM    6  C   UNL     1     -35.057  41.404 -55.710  1.00  0.00    -0.016 A 
HETATM    7  C   UNL     1     -36.208  41.899 -55.054  1.00  0.00     0.035 A 
ENDROOT
BRANCH   6   8
HETATM    8  C   UNL     1     -34.826  41.388 -57.181  1.00  0.00     0.165 C 
BRANCH   8   9
HETATM    9  N   UNL     1     -35.792  42.218 -57.856  1.00  0.00    -0.339 N 
HETATM   10  C   UNL     1     -36.676  41.814 -58.812  1.00  0.00     0.316 C 
HETATM   11  N   UNL     1     -36.786  40.462 -58.966  1.00  0.00    -0.339 N 
HETATM   12  O   UNL     1     -37.282  42.643 -59.478  1.00  0.00    -0.247 OA
HETATM   13  H   UNL     1     -36.594  39.924 -58.136  1.00  0.00     0.164 HD
HETATM   14  H   UNL     1     -35.664  43.222 -57.818  1.00  0.00     0.164 HD
BRANCH  11  15
HETATM   15  C   UNL     1     -37.657  39.805 -59.931  1.00  0.00     0.086 C 
HETATM   16  C   UNL     1     -38.606  38.777 -59.301  1.00  0.00     0.025 C 
HETATM   17  C   UNL     1     -39.562  38.204 -60.346  1.00  0.00     0.002 C 
HETATM   18  C   UNL     1     -38.809  37.623 -61.542  1.00  0.00     0.000 C 
HETATM   19  C   UNL     1     -37.842  38.633 -62.154  1.00  0.00     0.002 C 
HETATM   20  C   UNL     1     -36.885  39.206 -61.110  1.00  0.00     0.025 C 
ENDBRANCH  11  15
ENDBRANCH   8   9
ENDBRANCH   6   8
BRANCH   3  21
HETATM   21  C   UNL     1     -34.471  40.309 -52.297  1.00  0.00     0.072 A 
HETATM   22  C   UNL     1     -34.783  38.965 -52.029  1.00  0.00     0.095 A 
HETATM   23  C   UNL     1     -34.306  38.387 -50.843  1.00  0.00     0.039 A 
HETATM   24  C   UNL     1     -33.523  39.124 -49.950  1.00  0.00     0.003 A 
HETATM   25  C   UNL     1     -33.213  40.451 -50.222  1.00  0.00     0.002 A 
HETATM   26  C   UNL     1     -33.686  41.044 -51.390  1.00  0.00     0.033 A 
BRANCH  22  27
HETATM   27  O   UNL     1     -35.623  38.309 -52.890  1.00  0.00    -0.354 OA
HETATM   28  C   UNL     1     -35.029  37.340 -53.746  1.00  0.00     0.210 C 
ENDBRANCH  22  27
ENDBRANCH   3  21
TORSDOF 5
ENDMDL
MODEL 5
REMARK VINA RESULT:      -7.2      4.184      6.936
REMARK  5 active torsions:
REMARK  status: ('A' for Active; 'I' for Inactive)
REMARK    1  A    between atoms: N_3  and  C_4 
REMARK    2  A    between atoms: C_5  and  O_6 
REMARK    3  A    between atoms: C_14  and  C_15 
REMARK    4  A    between atoms: C_15  and  N_16 
REMARK       I    between atoms: N_16  and  C_17 
REMARK       I    between atoms: C_17  and  N_18 
REMARK    5  A    between atoms: N_18  and  C_19 
ROOT
HETATM    1  C   UNL     1     -44.261  53.805 -50.770  1.00  0.00     0.068 C 
HETATM    2  C   UNL     1     -43.553  55.076 -51.092  1.00  0.00     0.014 A 
HETATM    3  N   UNL     1     -42.389  55.176 -51.849  1.00  0.00    -0.317 N 
HETATM    4  C   UNL     1     -42.074  56.532 -51.968  1.00  0.00     0.021 A 
HETATM    5  C   UNL     1     -40.809  57.033 -52.588  1.00  0.00     0.069 C 
HETATM    6  C   UNL     1     -43.099  57.280 -51.403  1.00  0.00    -0.016 A 
HETATM    7  C   UNL     1     -43.983  56.357 -50.799  1.00  0.00     0.035 A 
ENDROOT
BRANCH   6   8
HETATM    8  C   UNL     1     -43.269  58.758 -51.444  1.00  0.00     0.165 C 
BRANCH   8   9
HETATM    9  N   UNL     1     -44.663  59.107 -51.559  1.00  0.00    -0.339 N 
HETATM   10  C   UNL     1     -45.372  59.891 -50.699  1.00  0.00     0.316 C 
HETATM   11  N   UNL     1     -44.624  60.571 -49.782  1.00  0.00    -0.339 N 
HETATM   12  O   UNL     1     -46.594  59.927 -50.768  1.00  0.00    -0.247 OA
HETATM   13  H   UNL     1     -43.688  60.793 -50.080  1.00  0.00     0.164 HD
HETATM   14  H   UNL     1     -45.242  58.548 -52.175  1.00  0.00     0.164 HD
BRANCH  11  15
HETATM   15  C   UNL     1     -45.167  61.456 -48.761  1.00  0.00     0.086 C 
HETATM   16  C   UNL     1     -44.484  62.828 -48.713  1.00  0.00     0.025 C 
HETATM   17  C   UNL     1     -45.167  63.743 -47.697  1.00  0.00     0.002 C 
HETATM   18  C   UNL     1     -45.240  63.098 -46.314  1.00  0.00     0.000 C 
HETATM   19  C   UNL     1     -45.893  61.719 -46.361  1.00  0.00     0.002 C 
HETATM   20  C   UNL     1     -45.209  60.802 -47.375  1.00  0.00     0.025 C 
ENDBRANCH  11  15
ENDBRANCH   8   9
ENDBRANCH   6   8
BRANCH   3  21
HETATM   21  C   UNL     1     -41.733  54.114 -52.545  1.00  0.00     0.072 A 
HETATM   22  C   UNL     1     -42.038  53.781 -53.876  1.00  0.00     0.095 A 
HETATM   23  C   UNL     1     -41.322  52.744 -54.491  1.00  0.00     0.039 A 
HETATM   24  C   UNL     1     -40.312  52.063 -53.806  1.00  0.00     0.003 A 
HETATM   25  C   UNL     1     -40.011  52.399 -52.491  1.00  0.00     0.002 A 
HETATM   26  C   UNL     1     -40.718  53.419 -51.860  1.00  0.00     0.033 A 
BRANCH  22  27
HETATM   27  O   UNL     1     -43.090  54.417 -54.478  1.00  0.00    -0.354 OA
HETATM   28  C   UNL     1     -42.816  55.078 -55.709  1.00  0.00     0.210 C 
ENDBRANCH  22  27
ENDBRANCH   3  21
TORSDOF 5
ENDMDL
MODEL 6
REMARK VINA RESULT:      -7.1      3.853      6.460
REMARK  5 active torsions:
REMARK  status: ('A' for Active; 'I' for Inactive)
REMARK    1  A    between atoms: N_3  and  C_4 
REMARK    2  A    between atoms: C_5  and  O_6 
REMARK    3  A    between atoms: C_14  and  C_15 
REMARK    4  A    between atoms: C_15  and  N_16 
REMARK       I    between atoms: N_16  and  C_17 
REMARK       I    between atoms: C_17  and  N_18 
REMARK    5  A    between atoms: N_18  and  C_19 
ROOT
HETATM    1  C   UNL     1     -44.069  54.269 -50.592  1.00  0.00     0.068 C 
HETATM    2  C   UNL     1     -43.468  55.505 -51.168  1.00  0.00     0.014 A 
HETATM    3  N   UNL     1     -42.332  55.543 -51.974  1.00  0.00    -0.317 N 
HETATM    4  C   UNL     1     -42.126  56.872 -52.352  1.00  0.00     0.021 A 
HETATM    5  C   UNL     1     -40.917  57.337 -53.100  1.00  0.00     0.069 C 
HETATM    6  C   UNL     1     -43.191  57.638 -51.898  1.00  0.00    -0.016 A 
HETATM    7  C   UNL     1     -43.988  56.784 -51.101  1.00  0.00     0.035 A 
ENDROOT
BRANCH   6   8
HETATM    8  C   UNL     1     -43.475  59.067 -52.204  1.00  0.00     0.165 C 
BRANCH   8   9
HETATM    9  N   UNL     1     -44.893  59.324 -52.162  1.00  0.00    -0.339 N 
HETATM   10  C   UNL     1     -45.556  60.033 -51.206  1.00  0.00     0.316 C 
HETATM   11  N   UNL     1     -44.761  60.733 -50.346  1.00  0.00    -0.339 N 
HETATM   12  O   UNL     1     -46.779  59.989 -51.147  1.00  0.00    -0.247 OA
HETATM   13  H   UNL     1     -43.878  61.027 -50.730  1.00  0.00     0.164 HD
HETATM   14  H   UNL     1     -45.497  58.747 -52.735  1.00  0.00     0.164 HD
BRANCH  11  15
HETATM   15  C   UNL     1     -45.249  61.549 -49.242  1.00  0.00     0.086 C 
HETATM   16  C   UNL     1     -44.384  62.785 -48.964  1.00  0.00     0.025 C 
HETATM   17  C   UNL     1     -45.006  63.652 -47.869  1.00  0.00     0.002 C 
HETATM   18  C   UNL     1     -45.275  62.850 -46.597  1.00  0.00     0.000 C 
HETATM   19  C   UNL     1     -46.111  61.603 -46.874  1.00  0.00     0.002 C 
HETATM   20  C   UNL     1     -45.489  60.734 -47.967  1.00  0.00     0.025 C 
ENDBRANCH  11  15
ENDBRANCH   8   9
ENDBRANCH   6   8
BRANCH   3  21
HETATM   21  C   UNL     1     -41.613  54.420 -52.485  1.00  0.00     0.072 A 
HETATM   22  C   UNL     1     -40.618  53.760 -51.744  1.00  0.00     0.095 A 
HETATM   23  C   UNL     1     -39.984  52.645 -52.312  1.00  0.00     0.039 A 
HETATM   24  C   UNL     1     -40.342  52.185 -53.583  1.00  0.00     0.003 A 
HETATM   25  C   UNL     1     -41.331  52.838 -54.309  1.00  0.00     0.002 A 
HETATM   26  C   UNL     1     -41.965  53.952 -53.766  1.00  0.00     0.033 A 
BRANCH  22  27
HETATM   27  O   UNL     1     -40.241  54.297 -50.542  1.00  0.00    -0.354 OA
HETATM   28  C   UNL     1     -40.266  53.424 -49.418  1.00  0.00     0.210 C 
ENDBRANCH  22  27
ENDBRANCH   3  21
TORSDOF 5
ENDMDL
MODEL 7
REMARK VINA RESULT:      -7.0      4.092      8.049
REMARK  5 active torsions:
REMARK  status: ('A' for Active; 'I' for Inactive)
REMARK    1  A    between atoms: N_3  and  C_4 
REMARK    2  A    between atoms: C_5  and  O_6 
REMARK    3  A    between atoms: C_14  and  C_15 
REMARK    4  A    between atoms: C_15  and  N_16 
REMARK       I    between atoms: N_16  and  C_17 
REMARK       I    between atoms: C_17  and  N_18 
REMARK    5  A    between atoms: N_18  and  C_19 
ROOT
HETATM    1  C   UNL     1     -45.856  60.621 -52.253  1.00  0.00     0.068 C 
HETATM    2  C   UNL     1     -44.535  60.033 -51.894  1.00  0.00     0.014 A 
HETATM    3  N   UNL     1     -43.592  60.629 -51.059  1.00  0.00    -0.317 N 
HETATM    4  C   UNL     1     -42.520  59.743 -50.930  1.00  0.00     0.021 A 
HETATM    5  C   UNL     1     -41.245  60.089 -50.229  1.00  0.00     0.069 C 
HETATM    6  C   UNL     1     -42.843  58.554 -51.569  1.00  0.00    -0.016 A 
HETATM    7  C   UNL     1     -44.076  58.773 -52.226  1.00  0.00     0.035 A 
ENDROOT
BRANCH   6   8
HETATM    8  C   UNL     1     -42.074  57.279 -51.552  1.00  0.00     0.165 C 
BRANCH   8   9
HETATM    9  N   UNL     1     -42.923  56.178 -51.174  1.00  0.00    -0.339 N 
HETATM   10  C   UNL     1     -42.727  54.865 -51.480  1.00  0.00     0.316 C 
HETATM   11  N   UNL     1     -41.501  54.567 -52.002  1.00  0.00    -0.339 N 
HETATM   12  O   UNL     1     -43.627  54.053 -51.308  1.00  0.00    -0.247 OA
HETATM   13  H   UNL     1     -40.756  55.177 -51.707  1.00  0.00     0.164 HD
HETATM   14  H   UNL     1     -43.866  56.389 -50.867  1.00  0.00     0.164 HD
BRANCH  11  15
HETATM   15  C   UNL     1     -41.075  53.236 -52.413  1.00  0.00     0.086 C 
HETATM   16  C   UNL     1     -39.895  52.692 -51.598  1.00  0.00     0.025 C 
HETATM   17  C   UNL     1     -39.566  51.256 -52.006  1.00  0.00     0.002 C 
HETATM   18  C   UNL     1     -39.321  51.137 -53.509  1.00  0.00     0.000 C 
HETATM   19  C   UNL     1     -40.481  51.704 -54.324  1.00  0.00     0.002 C 
HETATM   20  C   UNL     1     -40.809  53.141 -53.919  1.00  0.00     0.025 C 
ENDBRANCH  11  15
ENDBRANCH   8   9
ENDBRANCH   6   8
BRANCH   3  21
HETATM   21  C   UNL     1     -43.759  61.836 -50.312  1.00  0.00     0.072 A 
HETATM   22  C   UNL     1     -44.440  61.875 -49.084  1.00  0.00     0.095 A 
HETATM   23  C   UNL     1     -44.528  63.098 -48.403  1.00  0.00     0.039 A 
HETATM   24  C   UNL     1     -43.939  64.254 -48.921  1.00  0.00     0.003 A 
HETATM   25  C   UNL     1     -43.262  64.209 -50.134  1.00  0.00     0.002 A 
HETATM   26  C   UNL     1     -43.172  63.006 -50.830  1.00  0.00     0.033 A 
BRANCH  22  27
HETATM   27  O   UNL     1     -45.074  60.739 -48.657  1.00  0.00    -0.354 OA
HETATM   28  C   UNL     1     -45.642  60.778 -47.352  1.00  0.00     0.210 C 
ENDBRANCH  22  27
ENDBRANCH   3  21
TORSDOF 5
ENDMDL
MODEL 8
REMARK VINA RESULT:      -7.0      2.409      2.912
REMARK  5 active torsions:
REMARK  status: ('A' for Active; 'I' for Inactive)
REMARK    1  A    between atoms: N_3  and  C_4 
REMARK    2  A    between atoms: C_5  and  O_6 
REMARK    3  A    between atoms: C_14  and  C_15 
REMARK    4  A    between atoms: C_15  and  N_16 
REMARK       I    between atoms: N_16  and  C_17 
REMARK       I    between atoms: C_17  and  N_18 
REMARK    5  A    between atoms: N_18  and  C_19 
ROOT
HETATM    1  C   UNL     1     -43.582  53.876 -51.723  1.00  0.00     0.068 C 
HETATM    2  C   UNL     1     -42.894  54.547 -52.861  1.00  0.00     0.014 A 
HETATM    3  N   UNL     1     -41.653  54.181 -53.376  1.00  0.00    -0.317 N 
HETATM    4  C   UNL     1     -41.382  55.014 -54.464  1.00  0.00     0.021 A 
HETATM    5  C   UNL     1     -40.074  55.024 -55.189  1.00  0.00     0.069 C 
HETATM    6  C   UNL     1     -42.496  55.805 -54.709  1.00  0.00    -0.016 A 
HETATM    7  C   UNL     1     -43.408  55.552 -53.658  1.00  0.00     0.035 A 
ENDROOT
BRANCH   6   8
HETATM    8  C   UNL     1     -42.721  56.720 -55.862  1.00  0.00     0.165 C 
BRANCH   8   9
HETATM    9  N   UNL     1     -42.547  56.020 -57.109  1.00  0.00    -0.339 N 
HETATM   10  C   UNL     1     -43.267  56.211 -58.250  1.00  0.00     0.316 C 
HETATM   11  N   UNL     1     -44.068  57.317 -58.253  1.00  0.00    -0.339 N 
HETATM   12  O   UNL     1     -43.190  55.404 -59.168  1.00  0.00    -0.247 OA
HETATM   13  H   UNL     1     -43.741  58.077 -57.678  1.00  0.00     0.164 HD
HETATM   14  H   UNL     1     -42.026  55.151 -57.097  1.00  0.00     0.164 HD
BRANCH  11  15
HETATM   15  C   UNL     1     -44.932  57.713 -59.356  1.00  0.00     0.086 C 
HETATM   16  C   UNL     1     -45.107  59.231 -59.483  1.00  0.00     0.025 C 
HETATM   17  C   UNL     1     -45.935  59.584 -60.718  1.00  0.00     0.002 C 
HETATM   18  C   UNL     1     -47.279  58.856 -60.725  1.00  0.00     0.000 C 
HETATM   19  C   UNL     1     -47.112  57.347 -60.568  1.00  0.00     0.002 C 
HETATM   20  C   UNL     1     -46.285  56.993 -59.333  1.00  0.00     0.025 C 
ENDBRANCH  11  15
ENDBRANCH   8   9
ENDBRANCH   6   8
BRANCH   3  21
HETATM   21  C   UNL     1     -40.876  53.043 -52.996  1.00  0.00     0.072 A 
HETATM   22  C   UNL     1     -40.211  52.962 -51.760  1.00  0.00     0.095 A 
HETATM   23  C   UNL     1     -39.497  51.794 -51.457  1.00  0.00     0.039 A 
HETATM   24  C   UNL     1     -39.456  50.723 -52.353  1.00  0.00     0.003 A 
HETATM   25  C   UNL     1     -40.119  50.806 -53.572  1.00  0.00     0.002 A 
HETATM   26  C   UNL     1     -40.826  51.961 -53.895  1.00  0.00     0.033 A 
BRANCH  22  27
HETATM   27  O   UNL     1     -40.208  54.067 -50.952  1.00  0.00    -0.354 OA
HETATM   28  C   UNL     1     -40.093  53.832 -49.552  1.00  0.00     0.210 C 
ENDBRANCH  22  27
ENDBRANCH   3  21
TORSDOF 5
ENDMDL
MODEL 9
REMARK VINA RESULT:      -6.9      2.891      4.185
REMARK  5 active torsions:
REMARK  status: ('A' for Active; 'I' for Inactive)
REMARK    1  A    between atoms: N_3  and  C_4 
REMARK    2  A    between atoms: C_5  and  O_6 
REMARK    3  A    between atoms: C_14  and  C_15 
REMARK    4  A    between atoms: C_15  and  N_16 
REMARK       I    between atoms: N_16  and  C_17 
REMARK       I    between atoms: C_17  and  N_18 
REMARK    5  A    between atoms: N_18  and  C_19 
ROOT
HETATM    1  C   UNL     1     -44.621  57.501 -52.596  1.00  0.00     0.068 C 
HETATM    2  C   UNL     1     -43.755  56.773 -53.566  1.00  0.00     0.014 A 
HETATM    3  N   UNL     1     -42.591  56.082 -53.239  1.00  0.00    -0.317 N 
HETATM    4  C   UNL     1     -42.104  55.495 -54.409  1.00  0.00     0.021 A 
HETATM    5  C   UNL     1     -40.787  54.790 -54.491  1.00  0.00     0.069 C 
HETATM    6  C   UNL     1     -43.020  55.706 -55.431  1.00  0.00    -0.016 A 
HETATM    7  C   UNL     1     -44.014  56.565 -54.907  1.00  0.00     0.035 A 
ENDROOT
BRANCH   6   8
HETATM    8  C   UNL     1     -42.997  55.127 -56.802  1.00  0.00     0.165 C 
BRANCH   8   9
HETATM    9  N   UNL     1     -42.425  56.061 -57.739  1.00  0.00    -0.339 N 
HETATM   10  C   UNL     1     -43.069  56.649 -58.786  1.00  0.00     0.316 C 
HETATM   11  N   UNL     1     -44.425  56.494 -58.796  1.00  0.00    -0.339 N 
HETATM   12  O   UNL     1     -42.429  57.239 -59.648  1.00  0.00    -0.247 OA
HETATM   13  H   UNL     1     -44.845  56.387 -57.887  1.00  0.00     0.164 HD
HETATM   14  H   UNL     1     -41.415  56.117 -57.798  1.00  0.00     0.164 HD
BRANCH  11  15
HETATM   15  C   UNL     1     -45.314  57.025 -59.820  1.00  0.00     0.086 C 
HETATM   16  C   UNL     1     -45.716  58.487 -59.586  1.00  0.00     0.025 C 
HETATM   17  C   UNL     1     -46.559  59.014 -60.746  1.00  0.00     0.002 C 
HETATM   18  C   UNL     1     -47.775  58.127 -61.011  1.00  0.00     0.000 C 
HETATM   19  C   UNL     1     -47.382  56.665 -61.215  1.00  0.00     0.002 C 
HETATM   20  C   UNL     1     -46.541  56.137 -60.054  1.00  0.00     0.025 C 
ENDBRANCH  11  15
ENDBRANCH   8   9
ENDBRANCH   6   8
BRANCH   3  21
HETATM   21  C   UNL     1     -42.082  55.846 -51.925  1.00  0.00     0.072 A 
HETATM   22  C   UNL     1     -41.269  56.774 -51.253  1.00  0.00     0.095 A 
HETATM   23  C   UNL     1     -40.839  56.474 -49.952  1.00  0.00     0.039 A 
HETATM   24  C   UNL     1     -41.222  55.285 -49.325  1.00  0.00     0.003 A 
HETATM   25  C   UNL     1     -42.032  54.373 -49.992  1.00  0.00     0.002 A 
HETATM   26  C   UNL     1     -42.460  54.649 -51.287  1.00  0.00     0.033 A 
BRANCH  22  27
HETATM   27  O   UNL     1     -40.849  57.883 -51.937  1.00  0.00    -0.354 OA
HETATM   28  C   UNL     1     -41.317  59.141 -51.461  1.00  0.00     0.210 C 
ENDBRANCH  22  27
ENDBRANCH   3  21
TORSDOF 5
ENDMDL
MODEL 10
REMARK VINA RESULT:      -6.8      3.689      7.850
REMARK  5 active torsions:
REMARK  status: ('A' for Active; 'I' for Inactive)
REMARK    1  A    between atoms: N_3  and  C_4 
REMARK    2  A    between atoms: C_5  and  O_6 
REMARK    3  A    between atoms: C_14  and  C_15 
REMARK    4  A    between atoms: C_15  and  N_16 
REMARK       I    between atoms: N_16  and  C_17 
REMARK       I    between atoms: C_17  and  N_18 
REMARK    5  A    between atoms: N_18  and  C_19 
ROOT
HETATM    1  C   UNL     1     -40.654  60.055 -50.216  1.00  0.00     0.068 C 
HETATM    2  C   UNL     1     -41.857  59.381 -50.780  1.00  0.00     0.014 A 
HETATM    3  N   UNL     1     -43.120  59.958 -50.893  1.00  0.00    -0.317 N 
HETATM    4  C   UNL     1     -43.956  59.028 -51.517  1.00  0.00     0.021 A 
HETATM    5  C   UNL     1     -45.429  59.226 -51.683  1.00  0.00     0.069 C 
HETATM    6  C   UNL     1     -43.196  57.934 -51.907  1.00  0.00    -0.016 A 
HETATM    7  C   UNL     1     -41.900  58.136 -51.379  1.00  0.00     0.035 A 
ENDROOT
BRANCH   6   8
HETATM    8  C   UNL     1     -43.630  56.781 -52.743  1.00  0.00     0.165 C 
BRANCH   8   9
HETATM    9  N   UNL     1     -44.017  55.668 -51.913  1.00  0.00    -0.339 N 
HETATM   10  C   UNL     1     -43.444  54.432 -51.903  1.00  0.00     0.316 C 
HETATM   11  N   UNL     1     -42.266  54.332 -52.585  1.00  0.00    -0.339 N 
HETATM   12  O   UNL     1     -44.000  53.502 -51.331  1.00  0.00    -0.247 OA
HETATM   13  H   UNL     1     -41.730  55.183 -52.630  1.00  0.00     0.164 HD
HETATM   14  H   UNL     1     -44.929  55.699 -51.473  1.00  0.00     0.164 HD
BRANCH  11  15
HETATM   15  C   UNL     1     -41.486  53.110 -52.718  1.00  0.00     0.086 C 
HETATM   16  C   UNL     1     -40.189  53.118 -51.898  1.00  0.00     0.025 C 
HETATM   17  C   UNL     1     -39.472  51.772 -51.997  1.00  0.00     0.002 C 
HETATM   18  C   UNL     1     -39.222  51.369 -53.449  1.00  0.00     0.000 C 
HETATM   19  C   UNL     1     -40.505  51.388 -54.276  1.00  0.00     0.002 C 
HETATM   20  C   UNL     1     -41.222  52.734 -54.180  1.00  0.00     0.025 C 
ENDBRANCH  11  15
ENDBRANCH   8   9
ENDBRANCH   6   8
BRANCH   3  21
HETATM   21  C   UNL     1     -43.465  61.314 -50.607  1.00  0.00     0.072 A 
HETATM   22  C   UNL     1     -43.387  62.333 -51.572  1.00  0.00     0.095 A 
HETATM   23  C   UNL     1     -43.776  63.631 -51.212  1.00  0.00     0.039 A 
HETATM   24  C   UNL     1     -44.248  63.910 -49.926  1.00  0.00     0.003 A 
HETATM   25  C   UNL     1     -44.327  62.898 -48.976  1.00  0.00     0.002 A 
HETATM   26  C   UNL     1     -43.936  61.604 -49.312  1.00  0.00     0.033 A 
BRANCH  22  27
HETATM   27  O   UNL     1     -42.840  62.032 -52.790  1.00  0.00    -0.354 OA
HETATM   28  C   UNL     1     -43.738  61.957 -53.892  1.00  0.00     0.210 C 
ENDBRANCH  22  27
ENDBRANCH   3  21
TORSDOF 5
ENDMDL
