MODEL 1
REMARK VINA RESULT:      -8.6      0.000      0.000
REMARK  8 active torsions:
REMARK  status: ('A' for Active; 'I' for Inactive)
REMARK    1  A    between atoms: O_2  and  C_3 
REMARK    2  A    between atoms: C_4  and  O_5 
REMARK    3  A    between atoms: C_7  and  C_8 
REMARK    4  A    between atoms: N_9  and  N_10 
REMARK       I    between atoms: N_10  and  C_11 
REMARK    5  A    between atoms: C_11  and  C_12 
REMARK    6  A    between atoms: C_12  and  N_13 
REMARK       I    between atoms: N_13  and  C_14 
REMARK       I    between atoms: C_14  and  N_15 
REMARK    7  A    between atoms: N_15  and  C_16 
REMARK    8  A    between atoms: C_18  and  C_19 
ROOT
HETATM    1  C   UNL     1     -43.331  56.510 -57.558  1.00  0.00     0.228 C 
ENDROOT
BRANCH   1   2
HETATM    2  C   UNL     1     -43.969  57.668 -56.778  1.00  0.00     0.255 C 
HETATM    3  N   UNL     1     -44.624  57.268 -55.624  1.00  0.00    -0.246 N 
HETATM    4  H   UNL     1     -44.594  56.283 -55.352  1.00  0.00     0.192 HD
HETATM    5  O   UNL     1     -43.790  58.835 -57.123  1.00  0.00    -0.270 OA
BRANCH   3   6
HETATM    6  N   UNL     1     -45.184  58.183 -54.786  1.00  0.00    -0.184 NA
HETATM    7  C   UNL     1     -44.667  58.218 -53.598  1.00  0.00     0.150 C 
BRANCH   7   8
HETATM    8  C   UNL     1     -45.150  59.167 -52.577  1.00  0.00    -0.014 A 
HETATM    9  C   UNL     1     -45.270  58.735 -51.257  1.00  0.00     0.052 A 
HETATM   10  C   UNL     1     -45.725  59.634 -50.299  1.00  0.00     0.099 A 
HETATM   11  C   UNL     1     -46.064  60.955 -50.624  1.00  0.00     0.101 A 
HETATM   12  C   UNL     1     -45.934  61.377 -51.947  1.00  0.00     0.040 A 
HETATM   13  C   UNL     1     -45.480  60.482 -52.923  1.00  0.00     0.016 A 
BRANCH  10  14
HETATM   14  O   UNL     1     -45.841  59.195 -49.008  1.00  0.00    -0.358 OA
HETATM   15  H   UNL     1     -46.647  58.641 -49.001  1.00  0.00     0.218 HD
ENDBRANCH  10  14
BRANCH  11  16
HETATM   16  O   UNL     1     -46.498  61.718 -49.571  1.00  0.00    -0.353 OA
HETATM   17  C   UNL     1     -46.977  63.021 -49.888  1.00  0.00     0.210 C 
ENDBRANCH  11  16
ENDBRANCH   7   8
ENDBRANCH   3   6
ENDBRANCH   1   2
BRANCH   1  18
HETATM   18  N   UNL     1     -42.110  55.952 -56.979  1.00  0.00    -0.334 N 
HETATM   19  C   UNL     1     -42.174  54.996 -55.992  1.00  0.00     0.321 C 
HETATM   20  N   UNL     1     -40.927  54.673 -55.519  1.00  0.00    -0.309 N 
HETATM   21  O   UNL     1     -43.237  54.476 -55.675  1.00  0.00    -0.247 OA
HETATM   22  H   UNL     1     -40.153  54.967 -56.098  1.00  0.00     0.170 HD
HETATM   23  H   UNL     1     -41.338  56.597 -56.901  1.00  0.00     0.164 HD
BRANCH  20  24
HETATM   24  C   UNL     1     -40.627  53.769 -54.480  1.00  0.00     0.037 A 
HETATM   25  C   UNL     1     -40.404  52.405 -54.686  1.00  0.00     0.045 A 
HETATM   26  C   UNL     1     -40.105  51.550 -53.610  1.00  0.00     0.050 A 
HETATM   27  C   UNL     1     -40.023  52.087 -52.317  1.00  0.00     0.016 A 
HETATM   28  C   UNL     1     -40.259  53.443 -52.102  1.00  0.00     0.003 A 
HETATM   29  C   UNL     1     -40.567  54.278 -53.178  1.00  0.00     0.029 A 
BRANCH  26  30
HETATM   30  C   UNL     1     -39.841  50.082 -53.842  1.00  0.00     0.417 C 
HETATM   31  F   UNL     1     -39.820  49.343 -52.698  1.00  0.00    -0.166 F 
HETATM   32  F   UNL     1     -40.780  49.509 -54.644  1.00  0.00    -0.166 F 
HETATM   33  F   UNL     1     -38.642  49.855 -54.450  1.00  0.00    -0.166 F 
ENDBRANCH  26  30
ENDBRANCH  20  24
ENDBRANCH   1  18
TORSDOF 8
ENDMDL
MODEL 2
REMARK VINA RESULT:      -8.3      3.247      6.531
REMARK  8 active torsions:
REMARK  status: ('A' for Active; 'I' for Inactive)
REMARK    1  A    between atoms: O_2  and  C_3 
REMARK    2  A    between atoms: C_4  and  O_5 
REMARK    3  A    between atoms: C_7  and  C_8 
REMARK    4  A    between atoms: N_9  and  N_10 
REMARK       I    between atoms: N_10  and  C_11 
REMARK    5  A    between atoms: C_11  and  C_12 
REMARK    6  A    between atoms: C_12  and  N_13 
REMARK       I    between atoms: N_13  and  C_14 
REMARK       I    between atoms: C_14  and  N_15 
REMARK    7  A    between atoms: N_15  and  C_16 
REMARK    8  A    between atoms: C_18  and  C_19 
ROOT
HETATM    1  C   UNL     1     -42.782  57.890 -53.663  1.00  0.00     0.228 C 
ENDROOT
BRANCH   1   2
HETATM    2  C   UNL     1     -43.925  57.814 -54.686  1.00  0.00     0.255 C 
HETATM    3  N   UNL     1     -43.543  58.152 -55.974  1.00  0.00    -0.246 N 
HETATM    4  H   UNL     1     -42.561  58.366 -56.161  1.00  0.00     0.192 HD
HETATM    5  O   UNL     1     -45.030  57.377 -54.365  1.00  0.00    -0.270 OA
BRANCH   3   6
HETATM    6  N   UNL     1     -44.424  58.069 -57.008  1.00  0.00    -0.184 NA
HETATM    7  C   UNL     1     -44.214  57.083 -57.822  1.00  0.00     0.150 C 
BRANCH   7   8
HETATM    8  C   UNL     1     -45.090  56.845 -58.985  1.00  0.00    -0.014 A 
HETATM    9  C   UNL     1     -44.665  55.970 -59.983  1.00  0.00     0.052 A 
HETATM   10  C   UNL     1     -45.496  55.749 -61.076  1.00  0.00     0.099 A 
HETATM   11  C   UNL     1     -46.743  56.378 -61.198  1.00  0.00     0.101 A 
HETATM   12  C   UNL     1     -47.161  57.247 -60.189  1.00  0.00     0.040 A 
HETATM   13  C   UNL     1     -46.333  57.481 -59.085  1.00  0.00     0.016 A 
BRANCH  10  14
HETATM   14  O   UNL     1     -45.063  54.892 -62.051  1.00  0.00    -0.358 OA
HETATM   15  H   UNL     1     -44.278  54.451 -61.669  1.00  0.00     0.218 HD
ENDBRANCH  10  14
BRANCH  11  16
HETATM   16  O   UNL     1     -47.444  56.060 -62.331  1.00  0.00    -0.353 OA
HETATM   17  C   UNL     1     -48.692  56.722 -62.512  1.00  0.00     0.210 C 
ENDBRANCH  11  16
ENDBRANCH   7   8
ENDBRANCH   3   6
ENDBRANCH   1   2
BRANCH   1  18
HETATM   18  N   UNL     1     -41.722  56.896 -53.822  1.00  0.00    -0.334 N 
HETATM   19  C   UNL     1     -41.784  55.691 -53.162  1.00  0.00     0.321 C 
HETATM   20  N   UNL     1     -40.654  54.941 -53.370  1.00  0.00    -0.309 N 
HETATM   21  O   UNL     1     -42.787  55.351 -52.546  1.00  0.00    -0.247 OA
HETATM   22  H   UNL     1     -40.072  55.237 -54.141  1.00  0.00     0.170 HD
HETATM   23  H   UNL     1     -40.794  57.273 -53.940  1.00  0.00     0.164 HD
BRANCH  20  24
HETATM   24  C   UNL     1     -40.363  53.680 -52.811  1.00  0.00     0.037 A 
HETATM   25  C   UNL     1     -40.245  52.510 -53.566  1.00  0.00     0.045 A 
HETATM   26  C   UNL     1     -39.950  51.280 -52.952  1.00  0.00     0.050 A 
HETATM   27  C   UNL     1     -39.765  51.239 -51.563  1.00  0.00     0.016 A 
HETATM   28  C   UNL     1     -39.897  52.398 -50.802  1.00  0.00     0.003 A 
HETATM   29  C   UNL     1     -40.202  53.611 -51.423  1.00  0.00     0.029 A 
BRANCH  26  30
HETATM   30  C   UNL     1     -39.799  50.024 -53.777  1.00  0.00     0.417 C 
HETATM   31  F   UNL     1     -40.893  49.732 -54.532  1.00  0.00    -0.166 F 
HETATM   32  F   UNL     1     -38.752  50.098 -54.644  1.00  0.00    -0.166 F 
HETATM   33  F   UNL     1     -39.573  48.919 -53.012  1.00  0.00    -0.166 F 
ENDBRANCH  26  30
ENDBRANCH  20  24
ENDBRANCH   1  18
TORSDOF 8
ENDMDL
MODEL 3
REMARK VINA RESULT:      -8.0      4.367      7.123
REMARK  8 active torsions:
REMARK  status: ('A' for Active; 'I' for Inactive)
REMARK    1  A    between atoms: O_2  and  C_3 
REMARK    2  A    between atoms: C_4  and  O_5 
REMARK    3  A    between atoms: C_7  and  C_8 
REMARK    4  A    between atoms: N_9  and  N_10 
REMARK       I    between atoms: N_10  and  C_11 
REMARK    5  A    between atoms: C_11  and  C_12 
REMARK    6  A    between atoms: C_12  and  N_13 
REMARK       I    between atoms: N_13  and  C_14 
REMARK       I    between atoms: C_14  and  N_15 
REMARK    7  A    between atoms: N_15  and  C_16 
REMARK    8  A    between atoms: C_18  and  C_19 
ROOT
HETATM    1  C   UNL     1     -43.235  57.473 -56.390  1.00  0.00     0.228 C 
ENDROOT
BRANCH   1   2
HETATM    2  C   UNL     1     -43.757  57.732 -57.811  1.00  0.00     0.255 C 
HETATM    3  N   UNL     1     -44.758  56.859 -58.206  1.00  0.00    -0.246 N 
HETATM    4  H   UNL     1     -45.106  56.168 -57.537  1.00  0.00     0.192 HD
HETATM    5  O   UNL     1     -43.372  58.707 -58.456  1.00  0.00    -0.270 OA
BRANCH   3   6
HETATM    6  N   UNL     1     -45.372  57.000 -59.412  1.00  0.00    -0.184 NA
HETATM    7  C   UNL     1     -46.506  57.625 -59.374  1.00  0.00     0.150 C 
BRANCH   7   8
HETATM    8  C   UNL     1     -47.289  57.874 -60.599  1.00  0.00    -0.014 A 
HETATM    9  C   UNL     1     -47.699  56.788 -61.372  1.00  0.00     0.052 A 
HETATM   10  C   UNL     1     -48.437  57.030 -62.525  1.00  0.00     0.099 A 
HETATM   11  C   UNL     1     -48.778  58.329 -62.928  1.00  0.00     0.101 A 
HETATM   12  C   UNL     1     -48.367  59.407 -62.144  1.00  0.00     0.040 A 
HETATM   13  C   UNL     1     -47.621  59.179 -60.982  1.00  0.00     0.016 A 
BRANCH  10  14
HETATM   14  O   UNL     1     -48.828  55.955 -63.276  1.00  0.00    -0.358 OA
HETATM   15  H   UNL     1     -48.188  55.916 -64.014  1.00  0.00     0.218 HD
ENDBRANCH  10  14
BRANCH  11  16
HETATM   16  O   UNL     1     -49.506  58.404 -64.087  1.00  0.00    -0.353 OA
HETATM   17  C   UNL     1     -50.824  58.929 -63.975  1.00  0.00     0.210 C 
ENDBRANCH  11  16
ENDBRANCH   7   8
ENDBRANCH   3   6
ENDBRANCH   1   2
BRANCH   1  18
HETATM   18  N   UNL     1     -42.177  56.470 -56.278  1.00  0.00    -0.334 N 
HETATM   19  C   UNL     1     -42.151  55.592 -55.220  1.00  0.00     0.321 C 
HETATM   20  N   UNL     1     -41.031  54.798 -55.248  1.00  0.00    -0.309 N 
HETATM   21  O   UNL     1     -43.081  55.520 -54.426  1.00  0.00    -0.247 OA
HETATM   22  H   UNL     1     -40.534  54.781 -56.127  1.00  0.00     0.170 HD
HETATM   23  H   UNL     1     -41.272  56.762 -56.616  1.00  0.00     0.164 HD
BRANCH  20  24
HETATM   24  C   UNL     1     -40.663  53.825 -54.297  1.00  0.00     0.037 A 
HETATM   25  C   UNL     1     -40.485  52.474 -54.607  1.00  0.00     0.045 A 
HETATM   26  C   UNL     1     -40.113  51.548 -53.615  1.00  0.00     0.050 A 
HETATM   27  C   UNL     1     -39.913  51.999 -52.303  1.00  0.00     0.016 A 
HETATM   28  C   UNL     1     -40.104  53.342 -51.984  1.00  0.00     0.003 A 
HETATM   29  C   UNL     1     -40.485  54.249 -52.976  1.00  0.00     0.029 A 
BRANCH  26  30
HETATM   30  C   UNL     1     -39.898  50.095 -53.961  1.00  0.00     0.417 C 
HETATM   31  F   UNL     1     -40.885  49.565 -54.734  1.00  0.00    -0.166 F 
HETATM   32  F   UNL     1     -38.736  49.891 -54.641  1.00  0.00    -0.166 F 
HETATM   33  F   UNL     1     -39.828  49.299 -52.856  1.00  0.00    -0.166 F 
ENDBRANCH  26  30
ENDBRANCH  20  24
ENDBRANCH   1  18
TORSDOF 8
ENDMDL
MODEL 4
REMARK VINA RESULT:      -7.9      1.978      2.475
REMARK  8 active torsions:
REMARK  status: ('A' for Active; 'I' for Inactive)
REMARK    1  A    between atoms: O_2  and  C_3 
REMARK    2  A    between atoms: C_4  and  O_5 
REMARK    3  A    between atoms: C_7  and  C_8 
REMARK    4  A    between atoms: N_9  and  N_10 
REMARK       I    between atoms: N_10  and  C_11 
REMARK    5  A    between atoms: C_11  and  C_12 
REMARK    6  A    between atoms: C_12  and  N_13 
REMARK       I    between atoms: N_13  and  C_14 
REMARK       I    between atoms: C_14  and  N_15 
REMARK    7  A    between atoms: N_15  and  C_16 
REMARK    8  A    between atoms: C_18  and  C_19 
ROOT
HETATM    1  C   UNL     1     -43.168  56.071 -57.323  1.00  0.00     0.228 C 
ENDROOT
BRANCH   1   2
HETATM    2  C   UNL     1     -43.586  57.367 -56.614  1.00  0.00     0.255 C 
HETATM    3  N   UNL     1     -44.434  57.165 -55.537  1.00  0.00    -0.246 N 
HETATM    4  H   UNL     1     -44.669  56.208 -55.264  1.00  0.00     0.192 HD
HETATM    5  O   UNL     1     -43.097  58.449 -56.937  1.00  0.00    -0.270 OA
BRANCH   3   6
HETATM    6  N   UNL     1     -44.840  58.208 -54.762  1.00  0.00    -0.184 NA
HETATM    7  C   UNL     1     -44.752  58.003 -53.486  1.00  0.00     0.150 C 
BRANCH   7   8
HETATM    8  C   UNL     1     -45.136  59.041 -52.511  1.00  0.00    -0.014 A 
HETATM    9  C   UNL     1     -45.309  58.682 -51.175  1.00  0.00     0.052 A 
HETATM   10  C   UNL     1     -45.670  59.666 -50.261  1.00  0.00     0.099 A 
HETATM   11  C   UNL     1     -45.865  61.000 -50.646  1.00  0.00     0.101 A 
HETATM   12  C   UNL     1     -45.684  61.348 -51.985  1.00  0.00     0.040 A 
HETATM   13  C   UNL     1     -45.322  60.367 -52.917  1.00  0.00     0.016 A 
BRANCH  10  14
HETATM   14  O   UNL     1     -45.841  59.298 -48.954  1.00  0.00    -0.358 OA
HETATM   15  H   UNL     1     -46.450  59.966 -48.581  1.00  0.00     0.218 HD
ENDBRANCH  10  14
BRANCH  11  16
HETATM   16  O   UNL     1     -46.221  61.850 -49.632  1.00  0.00    -0.353 OA
HETATM   17  C   UNL     1     -47.032  62.963 -49.993  1.00  0.00     0.210 C 
ENDBRANCH  11  16
ENDBRANCH   7   8
ENDBRANCH   3   6
ENDBRANCH   1   2
BRANCH   1  18
HETATM   18  N   UNL     1     -43.114  54.877 -56.480  1.00  0.00    -0.334 N 
HETATM   19  C   UNL     1     -42.126  54.730 -55.535  1.00  0.00     0.321 C 
HETATM   20  N   UNL     1     -42.195  53.506 -54.918  1.00  0.00    -0.309 N 
HETATM   21  O   UNL     1     -41.358  55.645 -55.266  1.00  0.00    -0.247 OA
HETATM   22  H   UNL     1     -43.064  53.006 -55.042  1.00  0.00     0.170 HD
HETATM   23  H   UNL     1     -43.411  54.023 -56.927  1.00  0.00     0.164 HD
BRANCH  20  24
HETATM   24  C   UNL     1     -41.315  53.005 -53.937  1.00  0.00     0.037 A 
HETATM   25  C   UNL     1     -41.272  53.482 -52.624  1.00  0.00     0.045 A 
HETATM   26  C   UNL     1     -40.374  52.941 -51.687  1.00  0.00     0.050 A 
HETATM   27  C   UNL     1     -39.520  51.902 -52.084  1.00  0.00     0.016 A 
HETATM   28  C   UNL     1     -39.547  51.431 -53.395  1.00  0.00     0.003 A 
HETATM   29  C   UNL     1     -40.435  51.987 -54.319  1.00  0.00     0.029 A 
BRANCH  26  30
HETATM   30  C   UNL     1     -40.350  53.443 -50.264  1.00  0.00     0.417 C 
HETATM   31  F   UNL     1     -40.387  52.451 -49.333  1.00  0.00    -0.166 F 
HETATM   32  F   UNL     1     -39.233  54.173 -49.993  1.00  0.00    -0.166 F 
HETATM   33  F   UNL     1     -41.405  54.257 -49.978  1.00  0.00    -0.166 F 
ENDBRANCH  26  30
ENDBRANCH  20  24
ENDBRANCH   1  18
TORSDOF 8
ENDMDL
MODEL 5
REMARK VINA RESULT:      -7.8      4.463      8.403
REMARK  8 active torsions:
REMARK  status: ('A' for Active; 'I' for Inactive)
REMARK    1  A    between atoms: O_2  and  C_3 
REMARK    2  A    between atoms: C_4  and  O_5 
REMARK    3  A    between atoms: C_7  and  C_8 
REMARK    4  A    between atoms: N_9  and  N_10 
REMARK       I    between atoms: N_10  and  C_11 
REMARK    5  A    between atoms: C_11  and  C_12 
REMARK    6  A    between atoms: C_12  and  N_13 
REMARK       I    between atoms: N_13  and  C_14 
REMARK       I    between atoms: C_14  and  N_15 
REMARK    7  A    between atoms: N_15  and  C_16 
REMARK    8  A    between atoms: C_18  and  C_19 
ROOT
HETATM    1  C   UNL     1     -42.408  60.100 -54.202  1.00  0.00     0.228 C 
ENDROOT
BRANCH   1   2
HETATM    2  C   UNL     1     -41.493  59.004 -53.637  1.00  0.00     0.255 C 
HETATM    3  N   UNL     1     -42.146  57.807 -53.389  1.00  0.00    -0.246 N 
HETATM    4  H   UNL     1     -43.134  57.719 -53.638  1.00  0.00     0.192 HD
HETATM    5  O   UNL     1     -40.280  59.183 -53.540  1.00  0.00    -0.270 OA
BRANCH   3   6
HETATM    6  N   UNL     1     -41.461  56.716 -52.951  1.00  0.00    -0.184 NA
HETATM    7  C   UNL     1     -41.796  55.600 -53.518  1.00  0.00     0.150 C 
BRANCH   7   8
HETATM    8  C   UNL     1     -41.136  54.329 -53.167  1.00  0.00    -0.014 A 
HETATM    9  C   UNL     1     -40.970  54.003 -51.822  1.00  0.00     0.052 A 
HETATM   10  C   UNL     1     -40.347  52.803 -51.498  1.00  0.00     0.099 A 
HETATM   11  C   UNL     1     -39.885  51.917 -52.482  1.00  0.00     0.101 A 
HETATM   12  C   UNL     1     -40.062  52.252 -53.825  1.00  0.00     0.040 A 
HETATM   13  C   UNL     1     -40.685  53.459 -54.166  1.00  0.00     0.016 A 
BRANCH  10  14
HETATM   14  O   UNL     1     -40.187  52.498 -50.173  1.00  0.00    -0.358 OA
HETATM   15  H   UNL     1     -40.543  51.593 -50.077  1.00  0.00     0.218 HD
ENDBRANCH  10  14
BRANCH  11  16
HETATM   16  O   UNL     1     -39.292  50.778 -52.005  1.00  0.00    -0.353 OA
HETATM   17  C   UNL     1     -39.575  49.574 -52.708  1.00  0.00     0.210 C 
ENDBRANCH  11  16
ENDBRANCH   7   8
ENDBRANCH   3   6
ENDBRANCH   1   2
BRANCH   1  18
HETATM   18  N   UNL     1     -42.732  59.985 -55.623  1.00  0.00    -0.334 N 
HETATM   19  C   UNL     1     -43.708  59.117 -56.052  1.00  0.00     0.321 C 
HETATM   20  N   UNL     1     -43.794  59.089 -57.422  1.00  0.00    -0.309 N 
HETATM   21  O   UNL     1     -44.434  58.529 -55.259  1.00  0.00    -0.247 OA
HETATM   22  H   UNL     1     -43.340  59.854 -57.901  1.00  0.00     0.170 HD
HETATM   23  H   UNL     1     -41.951  60.097 -56.252  1.00  0.00     0.164 HD
BRANCH  20  24
HETATM   24  C   UNL     1     -44.651  58.281 -58.197  1.00  0.00     0.037 A 
HETATM   25  C   UNL     1     -44.246  57.087 -58.801  1.00  0.00     0.045 A 
HETATM   26  C   UNL     1     -45.147  56.320 -59.561  1.00  0.00     0.050 A 
HETATM   27  C   UNL     1     -46.469  56.764 -59.702  1.00  0.00     0.016 A 
HETATM   28  C   UNL     1     -46.876  57.960 -59.115  1.00  0.00     0.003 A 
HETATM   29  C   UNL     1     -45.968  58.719 -58.373  1.00  0.00     0.029 A 
BRANCH  26  30
HETATM   30  C   UNL     1     -44.710  55.020 -60.191  1.00  0.00     0.417 C 
HETATM   31  F   UNL     1     -45.074  54.896 -61.497  1.00  0.00    -0.166 F 
HETATM   32  F   UNL     1     -43.359  54.858 -60.160  1.00  0.00    -0.166 F 
HETATM   33  F   UNL     1     -45.231  53.931 -59.558  1.00  0.00    -0.166 F 
ENDBRANCH  26  30
ENDBRANCH  20  24
ENDBRANCH   1  18
TORSDOF 8
ENDMDL
MODEL 6
REMARK VINA RESULT:      -7.8      5.058      8.750
REMARK  8 active torsions:
REMARK  status: ('A' for Active; 'I' for Inactive)
REMARK    1  A    between atoms: O_2  and  C_3 
REMARK    2  A    between atoms: C_4  and  O_5 
REMARK    3  A    between atoms: C_7  and  C_8 
REMARK    4  A    between atoms: N_9  and  N_10 
REMARK       I    between atoms: N_10  and  C_11 
REMARK    5  A    between atoms: C_11  and  C_12 
REMARK    6  A    between atoms: C_12  and  N_13 
REMARK       I    between atoms: N_13  and  C_14 
REMARK       I    between atoms: C_14  and  N_15 
REMARK    7  A    between atoms: N_15  and  C_16 
REMARK    8  A    between atoms: C_18  and  C_19 
ROOT
HETATM    1  C   UNL     1     -41.938  60.167 -53.720  1.00  0.00     0.228 C 
ENDROOT
BRANCH   1   2
HETATM    2  C   UNL     1     -41.058  59.030 -53.182  1.00  0.00     0.255 C 
HETATM    3  N   UNL     1     -41.767  57.889 -52.843  1.00  0.00    -0.246 N 
HETATM    4  H   UNL     1     -42.774  57.860 -53.018  1.00  0.00     0.192 HD
HETATM    5  O   UNL     1     -39.832  59.130 -53.178  1.00  0.00    -0.270 OA
BRANCH   3   6
HETATM    6  N   UNL     1     -41.124  56.769 -52.414  1.00  0.00    -0.184 NA
HETATM    7  C   UNL     1     -41.545  55.665 -52.944  1.00  0.00     0.150 C 
BRANCH   7   8
HETATM    8  C   UNL     1     -40.940  54.364 -52.598  1.00  0.00    -0.014 A 
HETATM    9  C   UNL     1     -40.706  53.437 -53.612  1.00  0.00     0.052 A 
HETATM   10  C   UNL     1     -40.135  52.214 -53.278  1.00  0.00     0.099 A 
HETATM   11  C   UNL     1     -39.790  51.891 -51.958  1.00  0.00     0.101 A 
HETATM   12  C   UNL     1     -40.024  52.831 -50.953  1.00  0.00     0.040 A 
HETATM   13  C   UNL     1     -40.602  54.065 -51.274  1.00  0.00     0.016 A 
BRANCH  10  14
HETATM   14  O   UNL     1     -39.915  51.311 -54.284  1.00  0.00    -0.358 OA
HETATM   15  H   UNL     1     -39.995  50.435 -53.858  1.00  0.00     0.218 HD
ENDBRANCH  10  14
BRANCH  11  16
HETATM   16  O   UNL     1     -39.239  50.648 -51.790  1.00  0.00    -0.353 OA
HETATM   17  C   UNL     1     -39.719  49.886 -50.688  1.00  0.00     0.210 C 
ENDBRANCH  11  16
ENDBRANCH   7   8
ENDBRANCH   3   6
ENDBRANCH   1   2
BRANCH   1  18
HETATM   18  N   UNL     1     -42.052  60.245 -55.176  1.00  0.00    -0.334 N 
HETATM   19  C   UNL     1     -42.634  59.224 -55.890  1.00  0.00     0.321 C 
HETATM   20  N   UNL     1     -42.559  59.446 -57.243  1.00  0.00    -0.309 N 
HETATM   21  O   UNL     1     -43.205  58.296 -55.329  1.00  0.00    -0.247 OA
HETATM   22  H   UNL     1     -42.335  60.392 -57.516  1.00  0.00     0.170 HD
HETATM   23  H   UNL     1     -41.290  60.713 -55.642  1.00  0.00     0.164 HD
BRANCH  20  24
HETATM   24  C   UNL     1     -43.012  58.586 -58.265  1.00  0.00     0.037 A 
HETATM   25  C   UNL     1     -44.353  58.233 -58.438  1.00  0.00     0.045 A 
HETATM   26  C   UNL     1     -44.746  57.373 -59.479  1.00  0.00     0.050 A 
HETATM   27  C   UNL     1     -43.771  56.876 -60.355  1.00  0.00     0.016 A 
HETATM   28  C   UNL     1     -42.430  57.212 -60.180  1.00  0.00     0.003 A 
HETATM   29  C   UNL     1     -42.052  58.057 -59.135  1.00  0.00     0.029 A 
BRANCH  26  30
HETATM   30  C   UNL     1     -46.199  57.015 -59.675  1.00  0.00     0.417 C 
HETATM   31  F   UNL     1     -46.400  55.709 -60.003  1.00  0.00    -0.166 F 
HETATM   32  F   UNL     1     -46.942  57.241 -58.557  1.00  0.00    -0.166 F 
HETATM   33  F   UNL     1     -46.788  57.740 -60.667  1.00  0.00    -0.166 F 
ENDBRANCH  26  30
ENDBRANCH  20  24
ENDBRANCH   1  18
TORSDOF 8
ENDMDL
MODEL 7
REMARK VINA RESULT:      -7.7      2.937      6.249
REMARK  8 active torsions:
REMARK  status: ('A' for Active; 'I' for Inactive)
REMARK    1  A    between atoms: O_2  and  C_3 
REMARK    2  A    between atoms: C_4  and  O_5 
REMARK    3  A    between atoms: C_7  and  C_8 
REMARK    4  A    between atoms: N_9  and  N_10 
REMARK       I    between atoms: N_10  and  C_11 
REMARK    5  A    between atoms: C_11  and  C_12 
REMARK    6  A    between atoms: C_12  and  N_13 
REMARK       I    between atoms: N_13  and  C_14 
REMARK       I    between atoms: C_14  and  N_15 
REMARK    7  A    between atoms: N_15  and  C_16 
REMARK    8  A    between atoms: C_18  and  C_19 
ROOT
HETATM    1  C   UNL     1     -44.956  58.384 -51.757  1.00  0.00     0.228 C 
ENDROOT
BRANCH   1   2
HETATM    2  C   UNL     1     -44.759  59.087 -53.107  1.00  0.00     0.255 C 
HETATM    3  N   UNL     1     -43.656  58.638 -53.814  1.00  0.00    -0.246 N 
HETATM    4  H   UNL     1     -43.103  57.866 -53.434  1.00  0.00     0.192 HD
HETATM    5  O   UNL     1     -45.595  59.886 -53.530  1.00  0.00    -0.270 OA
BRANCH   3   6
HETATM    6  N   UNL     1     -43.383  59.113 -55.060  1.00  0.00    -0.184 NA
HETATM    7  C   UNL     1     -43.029  58.211 -55.920  1.00  0.00     0.150 C 
BRANCH   7   8
HETATM    8  C   UNL     1     -42.717  58.561 -57.319  1.00  0.00    -0.014 A 
HETATM    9  C   UNL     1     -42.229  57.571 -58.170  1.00  0.00     0.052 A 
HETATM   10  C   UNL     1     -41.938  57.908 -59.487  1.00  0.00     0.099 A 
HETATM   11  C   UNL     1     -42.120  59.209 -59.978  1.00  0.00     0.101 A 
HETATM   12  C   UNL     1     -42.615  60.190 -59.118  1.00  0.00     0.040 A 
HETATM   13  C   UNL     1     -42.910  59.866 -57.788  1.00  0.00     0.016 A 
BRANCH  10  14
HETATM   14  O   UNL     1     -41.455  56.927 -60.310  1.00  0.00    -0.358 OA
HETATM   15  H   UNL     1     -41.615  57.256 -61.217  1.00  0.00     0.218 HD
ENDBRANCH  10  14
BRANCH  11  16
HETATM   16  O   UNL     1     -41.786  59.384 -61.295  1.00  0.00    -0.353 OA
HETATM   17  C   UNL     1     -42.178  60.616 -61.891  1.00  0.00     0.210 C 
ENDBRANCH  11  16
ENDBRANCH   7   8
ENDBRANCH   3   6
ENDBRANCH   1   2
BRANCH   1  18
HETATM   18  N   UNL     1     -44.734  56.939 -51.757  1.00  0.00    -0.334 N 
HETATM   19  C   UNL     1     -43.463  56.424 -51.654  1.00  0.00     0.321 C 
HETATM   20  N   UNL     1     -43.460  55.056 -51.767  1.00  0.00    -0.309 N 
HETATM   21  O   UNL     1     -42.500  57.142 -51.411  1.00  0.00    -0.247 OA
HETATM   22  H   UNL     1     -44.359  54.610 -51.656  1.00  0.00     0.170 HD
HETATM   23  H   UNL     1     -45.366  56.407 -52.336  1.00  0.00     0.164 HD
BRANCH  20  24
HETATM   24  C   UNL     1     -42.332  54.210 -51.754  1.00  0.00     0.037 A 
HETATM   25  C   UNL     1     -41.828  53.580 -52.895  1.00  0.00     0.045 A 
HETATM   26  C   UNL     1     -40.696  52.749 -52.822  1.00  0.00     0.050 A 
HETATM   27  C   UNL     1     -40.066  52.565 -51.583  1.00  0.00     0.016 A 
HETATM   28  C   UNL     1     -40.571  53.178 -50.438  1.00  0.00     0.003 A 
HETATM   29  C   UNL     1     -41.704  53.991 -50.523  1.00  0.00     0.029 A 
BRANCH  26  30
HETATM   30  C   UNL     1     -40.142  52.090 -54.062  1.00  0.00     0.417 C 
HETATM   31  F   UNL     1     -38.924  51.512 -53.875  1.00  0.00    -0.166 F 
HETATM   32  F   UNL     1     -40.957  51.108 -54.533  1.00  0.00    -0.166 F 
HETATM   33  F   UNL     1     -39.980  52.967 -55.093  1.00  0.00    -0.166 F 
ENDBRANCH  26  30
ENDBRANCH  20  24
ENDBRANCH   1  18
TORSDOF 8
ENDMDL
MODEL 8
REMARK VINA RESULT:      -7.7      3.438      4.644
REMARK  8 active torsions:
REMARK  status: ('A' for Active; 'I' for Inactive)
REMARK    1  A    between atoms: O_2  and  C_3 
REMARK    2  A    between atoms: C_4  and  O_5 
REMARK    3  A    between atoms: C_7  and  C_8 
REMARK    4  A    between atoms: N_9  and  N_10 
REMARK       I    between atoms: N_10  and  C_11 
REMARK    5  A    between atoms: C_11  and  C_12 
REMARK    6  A    between atoms: C_12  and  N_13 
REMARK       I    between atoms: N_13  and  C_14 
REMARK       I    between atoms: C_14  and  N_15 
REMARK    7  A    between atoms: N_15  and  C_16 
REMARK    8  A    between atoms: C_18  and  C_19 
ROOT
HETATM    1  C   UNL     1     -45.055  58.486 -52.659  1.00  0.00     0.228 C 
ENDROOT
BRANCH   1   2
HETATM    2  C   UNL     1     -45.621  59.466 -51.621  1.00  0.00     0.255 C 
HETATM    3  N   UNL     1     -45.441  59.054 -50.310  1.00  0.00    -0.246 N 
HETATM    4  H   UNL     1     -44.919  58.194 -50.127  1.00  0.00     0.192 HD
HETATM    5  O   UNL     1     -46.079  60.554 -51.965  1.00  0.00    -0.270 OA
BRANCH   3   6
HETATM    6  N   UNL     1     -45.826  59.844 -49.271  1.00  0.00    -0.184 NA
HETATM    7  C   UNL     1     -44.909  60.645 -48.829  1.00  0.00     0.150 C 
BRANCH   7   8
HETATM    8  C   UNL     1     -45.173  61.579 -47.718  1.00  0.00    -0.014 A 
HETATM    9  C   UNL     1     -44.706  61.260 -46.443  1.00  0.00     0.052 A 
HETATM   10  C   UNL     1     -44.957  62.145 -45.401  1.00  0.00     0.099 A 
HETATM   11  C   UNL     1     -45.663  63.341 -45.596  1.00  0.00     0.101 A 
HETATM   12  C   UNL     1     -46.120  63.651 -46.877  1.00  0.00     0.040 A 
HETATM   13  C   UNL     1     -45.878  62.768 -47.936  1.00  0.00     0.016 A 
BRANCH  10  14
HETATM   14  O   UNL     1     -44.497  61.817 -44.154  1.00  0.00    -0.358 OA
HETATM   15  H   UNL     1     -43.608  61.436 -44.305  1.00  0.00     0.218 HD
ENDBRANCH  10  14
BRANCH  11  16
HETATM   16  O   UNL     1     -45.832  64.104 -44.470  1.00  0.00    -0.353 OA
HETATM   17  C   UNL     1     -47.173  64.428 -44.120  1.00  0.00     0.210 C 
ENDBRANCH  11  16
ENDBRANCH   7   8
ENDBRANCH   3   6
ENDBRANCH   1   2
BRANCH   1  18
HETATM   18  N   UNL     1     -44.781  57.135 -52.172  1.00  0.00    -0.334 N 
HETATM   19  C   UNL     1     -43.513  56.608 -52.238  1.00  0.00     0.321 C 
HETATM   20  N   UNL     1     -43.486  55.301 -51.819  1.00  0.00    -0.309 N 
HETATM   21  O   UNL     1     -42.552  57.294 -52.564  1.00  0.00    -0.247 OA
HETATM   22  H   UNL     1     -44.297  54.994 -51.301  1.00  0.00     0.170 HD
HETATM   23  H   UNL     1     -45.529  56.471 -52.305  1.00  0.00     0.164 HD
BRANCH  20  24
HETATM   24  C   UNL     1     -42.365  54.445 -51.800  1.00  0.00     0.037 A 
HETATM   25  C   UNL     1     -41.915  53.739 -52.919  1.00  0.00     0.045 A 
HETATM   26  C   UNL     1     -40.789  52.901 -52.840  1.00  0.00     0.050 A 
HETATM   27  C   UNL     1     -40.110  52.786 -51.619  1.00  0.00     0.016 A 
HETATM   28  C   UNL     1     -40.561  53.475 -50.495  1.00  0.00     0.003 A 
HETATM   29  C   UNL     1     -41.689  54.294 -50.584  1.00  0.00     0.029 A 
BRANCH  26  30
HETATM   30  C   UNL     1     -40.293  52.160 -54.058  1.00  0.00     0.417 C 
HETATM   31  F   UNL     1     -41.171  51.231 -54.527  1.00  0.00    -0.166 F 
HETATM   32  F   UNL     1     -40.035  52.996 -55.102  1.00  0.00    -0.166 F 
HETATM   33  F   UNL     1     -39.132  51.486 -53.825  1.00  0.00    -0.166 F 
ENDBRANCH  26  30
ENDBRANCH  20  24
ENDBRANCH   1  18
TORSDOF 8
ENDMDL
MODEL 9
REMARK VINA RESULT:      -7.6      3.632      5.167
REMARK  8 active torsions:
REMARK  status: ('A' for Active; 'I' for Inactive)
REMARK    1  A    between atoms: O_2  and  C_3 
REMARK    2  A    between atoms: C_4  and  O_5 
REMARK    3  A    between atoms: C_7  and  C_8 
REMARK    4  A    between atoms: N_9  and  N_10 
REMARK       I    between atoms: N_10  and  C_11 
REMARK    5  A    between atoms: C_11  and  C_12 
REMARK    6  A    between atoms: C_12  and  N_13 
REMARK       I    between atoms: N_13  and  C_14 
REMARK       I    between atoms: C_14  and  N_15 
REMARK    7  A    between atoms: N_15  and  C_16 
REMARK    8  A    between atoms: C_18  and  C_19 
ROOT
HETATM    1  C   UNL     1     -44.528  58.108 -51.394  1.00  0.00     0.228 C 
ENDROOT
BRANCH   1   2
HETATM    2  C   UNL     1     -44.627  59.467 -50.685  1.00  0.00     0.255 C 
HETATM    3  N   UNL     1     -45.654  59.539 -49.759  1.00  0.00    -0.246 N 
HETATM    4  H   UNL     1     -46.217  58.705 -49.576  1.00  0.00     0.192 HD
HETATM    5  O   UNL     1     -43.779  60.339 -50.873  1.00  0.00    -0.270 OA
BRANCH   3   6
HETATM    6  N   UNL     1     -45.832  60.653 -48.997  1.00  0.00    -0.184 NA
HETATM    7  C   UNL     1     -45.740  60.458 -47.720  1.00  0.00     0.150 C 
BRANCH   7   8
HETATM    8  C   UNL     1     -45.891  61.568 -46.759  1.00  0.00    -0.014 A 
HETATM    9  C   UNL     1     -47.097  62.264 -46.715  1.00  0.00     0.052 A 
HETATM   10  C   UNL     1     -47.233  63.308 -45.807  1.00  0.00     0.099 A 
HETATM   11  C   UNL     1     -46.194  63.676 -44.939  1.00  0.00     0.101 A 
HETATM   12  C   UNL     1     -44.993  62.967 -44.989  1.00  0.00     0.040 A 
HETATM   13  C   UNL     1     -44.842  61.916 -45.900  1.00  0.00     0.016 A 
BRANCH  10  14
HETATM   14  O   UNL     1     -48.421  63.986 -45.779  1.00  0.00    -0.358 OA
HETATM   15  H   UNL     1     -48.404  64.492 -44.942  1.00  0.00     0.218 HD
ENDBRANCH  10  14
BRANCH  11  16
HETATM   16  O   UNL     1     -46.480  64.725 -44.106  1.00  0.00    -0.353 OA
HETATM   17  C   UNL     1     -46.001  64.621 -42.769  1.00  0.00     0.210 C 
ENDBRANCH  11  16
ENDBRANCH   7   8
ENDBRANCH   3   6
ENDBRANCH   1   2
BRANCH   1  18
HETATM   18  N   UNL     1     -43.173  57.645 -51.690  1.00  0.00    -0.334 N 
HETATM   19  C   UNL     1     -42.966  56.484 -52.397  1.00  0.00     0.321 C 
HETATM   20  N   UNL     1     -41.632  56.178 -52.487  1.00  0.00    -0.309 N 
HETATM   21  O   UNL     1     -43.894  55.885 -52.926  1.00  0.00    -0.247 OA
HETATM   22  H   UNL     1     -40.997  56.931 -52.263  1.00  0.00     0.170 HD
HETATM   23  H   UNL     1     -42.487  57.841 -50.976  1.00  0.00     0.164 HD
BRANCH  20  24
HETATM   24  C   UNL     1     -41.067  55.039 -53.099  1.00  0.00     0.037 A 
HETATM   25  C   UNL     1     -40.669  53.902 -52.391  1.00  0.00     0.045 A 
HETATM   26  C   UNL     1     -40.114  52.794 -53.057  1.00  0.00     0.050 A 
HETATM   27  C   UNL     1     -39.971  52.839 -54.451  1.00  0.00     0.016 A 
HETATM   28  C   UNL     1     -40.351  53.976 -55.161  1.00  0.00     0.003 A 
HETATM   29  C   UNL     1     -40.889  55.074 -54.486  1.00  0.00     0.029 A 
BRANCH  26  30
HETATM   30  C   UNL     1     -39.709  51.559 -52.290  1.00  0.00     0.417 C 
HETATM   31  F   UNL     1     -39.909  50.400 -52.976  1.00  0.00    -0.166 F 
HETATM   32  F   UNL     1     -38.391  51.571 -51.949  1.00  0.00    -0.166 F 
HETATM   33  F   UNL     1     -40.396  51.418 -51.122  1.00  0.00    -0.166 F 
ENDBRANCH  26  30
ENDBRANCH  20  24
ENDBRANCH   1  18
TORSDOF 8
ENDMDL
MODEL 10
REMARK VINA RESULT:      -7.4      2.645      3.598
REMARK  8 active torsions:
REMARK  status: ('A' for Active; 'I' for Inactive)
REMARK    1  A    between atoms: O_2  and  C_3 
REMARK    2  A    between atoms: C_4  and  O_5 
REMARK    3  A    between atoms: C_7  and  C_8 
REMARK    4  A    between atoms: N_9  and  N_10 
REMARK       I    between atoms: N_10  and  C_11 
REMARK    5  A    between atoms: C_11  and  C_12 
REMARK    6  A    between atoms: C_12  and  N_13 
REMARK       I    between atoms: N_13  and  C_14 
REMARK       I    between atoms: C_14  and  N_15 
REMARK    7  A    between atoms: N_15  and  C_16 
REMARK    8  A    between atoms: C_18  and  C_19 
ROOT
HETATM    1  C   UNL     1     -44.216  57.305 -53.322  1.00  0.00     0.228 C 
ENDROOT
BRANCH   1   2
HETATM    2  C   UNL     1     -43.915  58.551 -52.477  1.00  0.00     0.255 C 
HETATM    3  N   UNL     1     -45.046  59.156 -51.954  1.00  0.00    -0.246 N 
HETATM    4  H   UNL     1     -45.959  58.723 -52.112  1.00  0.00     0.192 HD
HETATM    5  O   UNL     1     -42.756  58.875 -52.221  1.00  0.00    -0.270 OA
BRANCH   3   6
HETATM    6  N   UNL     1     -44.944  60.232 -51.127  1.00  0.00    -0.184 NA
HETATM    7  C   UNL     1     -45.289  60.007 -49.898  1.00  0.00     0.150 C 
BRANCH   7   8
HETATM    8  C   UNL     1     -45.219  61.065 -48.873  1.00  0.00    -0.014 A 
HETATM    9  C   UNL     1     -44.685  62.305 -49.218  1.00  0.00     0.052 A 
HETATM   10  C   UNL     1     -44.622  63.298 -48.247  1.00  0.00     0.099 A 
HETATM   11  C   UNL     1     -45.080  63.087 -46.939  1.00  0.00     0.101 A 
HETATM   12  C   UNL     1     -45.619  61.843 -46.607  1.00  0.00     0.040 A 
HETATM   13  C   UNL     1     -45.685  60.832 -47.574  1.00  0.00     0.016 A 
BRANCH  10  14
HETATM   14  O   UNL     1     -44.091  64.510 -48.599  1.00  0.00    -0.358 OA
HETATM   15  H   UNL     1     -43.368  64.297 -49.222  1.00  0.00     0.218 HD
ENDBRANCH  10  14
BRANCH  11  16
HETATM   16  O   UNL     1     -44.949  64.160 -46.097  1.00  0.00    -0.353 OA
HETATM   17  C   UNL     1     -45.400  63.976 -44.760  1.00  0.00     0.210 C 
ENDBRANCH  11  16
ENDBRANCH   7   8
ENDBRANCH   3   6
ENDBRANCH   1   2
BRANCH   1  18
HETATM   18  N   UNL     1     -43.052  56.512 -53.718  1.00  0.00    -0.334 N 
HETATM   19  C   UNL     1     -42.700  55.383 -53.017  1.00  0.00     0.321 C 
HETATM   20  N   UNL     1     -41.532  54.838 -53.488  1.00  0.00    -0.309 N 
HETATM   21  O   UNL     1     -43.424  54.923 -52.141  1.00  0.00    -0.247 OA
HETATM   22  H   UNL     1     -41.237  55.164 -54.398  1.00  0.00     0.170 HD
HETATM   23  H   UNL     1     -42.280  57.042 -54.094  1.00  0.00     0.164 HD
BRANCH  20  24
HETATM   24  C   UNL     1     -40.860  53.710 -52.975  1.00  0.00     0.037 A 
HETATM   25  C   UNL     1     -40.731  52.506 -53.674  1.00  0.00     0.045 A 
HETATM   26  C   UNL     1     -40.046  51.414 -53.112  1.00  0.00     0.050 A 
HETATM   27  C   UNL     1     -39.481  51.548 -51.836  1.00  0.00     0.016 A 
HETATM   28  C   UNL     1     -39.619  52.739 -51.127  1.00  0.00     0.003 A 
HETATM   29  C   UNL     1     -40.312  53.812 -51.692  1.00  0.00     0.029 A 
BRANCH  26  30
HETATM   30  C   UNL     1     -39.889  50.125 -53.881  1.00  0.00     0.417 C 
HETATM   31  F   UNL     1     -39.676  49.038 -53.090  1.00  0.00    -0.166 F 
HETATM   32  F   UNL     1     -40.987  49.834 -54.633  1.00  0.00    -0.166 F 
HETATM   33  F   UNL     1     -38.841  50.159 -54.752  1.00  0.00    -0.166 F 
ENDBRANCH  26  30
ENDBRANCH  20  24
ENDBRANCH   1  18
TORSDOF 8
ENDMDL
