MODEL 1
REMARK VINA RESULT:      -7.5      0.000      0.000
REMARK  10 active torsions:
REMARK  status: ('A' for Active; 'I' for Inactive)
REMARK    1  A    between atoms: C_2  and  C_3 
REMARK    2  A    between atoms: C_3  and  N_4 
REMARK    3  A    between atoms: C_7  and  C_8 
REMARK       I    between atoms: C_8  and  N_9 
REMARK    4  A    between atoms: N_9  and  C_10 
REMARK    5  A    between atoms: C_10  and  C_11 
REMARK    6  A    between atoms: C_11  and  O_12 
REMARK    7  A    between atoms: C_11  and  C_13 
REMARK    8  A    between atoms: C_13  and  O_14 
REMARK    9  A    between atoms: O_14  and  C_15 
REMARK   10  A    between atoms: C_23  and  C_24 
ROOT
HETATM    1  C   UNL     1     -43.016  55.827 -56.326  1.00  0.00     0.255 C 
HETATM    2  N   UNL     1     -43.782  55.760 -55.178  1.00  0.00    -0.354 N 
HETATM    3  O   UNL     1     -42.085  55.049 -56.503  1.00  0.00    -0.268 OA
HETATM    4  H   UNL     1     -44.526  56.433 -55.046  1.00  0.00     0.162 HD
ENDROOT
BRANCH   2   5
HETATM    5  C   UNL     1     -43.693  54.652 -54.234  1.00  0.00     0.156 C 
BRANCH   5   6
HETATM    6  C   UNL     1     -43.358  55.032 -52.779  1.00  0.00     0.160 C 
BRANCH   6   7
HETATM    7  O   UNL     1     -43.838  54.038 -51.865  1.00  0.00    -0.392 OA
HETATM    8  H   UNL     1     -44.015  54.475 -51.004  1.00  0.00     0.210 HD
ENDBRANCH   6   7
BRANCH   6   9
HETATM    9  C   UNL     1     -41.861  55.291 -52.565  1.00  0.00     0.209 C 
BRANCH   9  10
HETATM   10  O   UNL     1     -41.122  54.490 -53.493  1.00  0.00    -0.349 OA
BRANCH  10  11
HETATM   11  C   UNL     1     -40.579  53.331 -53.012  1.00  0.00     0.069 A 
HETATM   12  C   UNL     1     -40.418  52.322 -53.966  1.00  0.00     0.043 A 
HETATM   13  C   UNL     1     -39.867  51.082 -53.619  1.00  0.00    -0.059 A 
HETATM   14  C   UNL     1     -39.710  50.002 -54.646  1.00  0.00     0.048 C 
HETATM   15  C   UNL     1     -39.512  50.848 -52.286  1.00  0.00     0.007 A 
HETATM   16  C   UNL     1     -39.682  51.847 -51.327  1.00  0.00     0.003 A 
HETATM   17  C   UNL     1     -40.214  53.088 -51.689  1.00  0.00     0.037 A 
ENDBRANCH  10  11
ENDBRANCH   9  10
ENDBRANCH   6   9
ENDBRANCH   5   6
ENDBRANCH   2   5
BRANCH   1  18
HETATM   18  C   UNL     1     -43.422  56.858 -57.269  1.00  0.00     0.075 A 
HETATM   19  C   UNL     1     -43.677  58.213 -56.934  1.00  0.00     0.158 A 
HETATM   20  N   UNL     1     -44.054  58.956 -57.967  1.00  0.00    -0.183 NA
HETATM   21  N   UNL     1     -44.098  58.084 -58.990  1.00  0.00    -0.268 N 
HETATM   22  C   UNL     1     -43.686  56.808 -58.638  1.00  0.00     0.052 A 
BRANCH  21  23
HETATM   23  C   UNL     1     -44.634  58.526 -60.279  1.00  0.00     0.106 C 
HETATM   24  C   UNL     1     -43.736  59.542 -60.999  1.00  0.00     0.034 C 
BRANCH  23  25
HETATM   25  C   UNL     1     -46.089  59.018 -60.150  1.00  0.00     0.022 C 
HETATM   26  C   UNL     1     -47.153  58.009 -60.568  1.00  0.00     0.007 C 
ENDBRANCH  23  25
ENDBRANCH  21  23
BRANCH  22  27
HETATM   27  C   UNL     1     -43.571  55.661 -59.650  1.00  0.00     0.038 A 
HETATM   28  C   UNL     1     -44.373  54.395 -59.468  1.00  0.00     0.011 A 
HETATM   29  C   UNL     1     -44.703  55.326 -60.587  1.00  0.00     0.011 A 
ENDBRANCH  22  27
ENDBRANCH   1  18
TORSDOF 10
ENDMDL
MODEL 2
REMARK VINA RESULT:      -7.4      2.653      4.736
REMARK  10 active torsions:
REMARK  status: ('A' for Active; 'I' for Inactive)
REMARK    1  A    between atoms: C_2  and  C_3 
REMARK    2  A    between atoms: C_3  and  N_4 
REMARK    3  A    between atoms: C_7  and  C_8 
REMARK       I    between atoms: C_8  and  N_9 
REMARK    4  A    between atoms: N_9  and  C_10 
REMARK    5  A    between atoms: C_10  and  C_11 
REMARK    6  A    between atoms: C_11  and  O_12 
REMARK    7  A    between atoms: C_11  and  C_13 
REMARK    8  A    between atoms: C_13  and  O_14 
REMARK    9  A    between atoms: O_14  and  C_15 
REMARK   10  A    between atoms: C_23  and  C_24 
ROOT
HETATM    1  C   UNL     1     -43.691  56.213 -51.515  1.00  0.00     0.255 C 
HETATM    2  N   UNL     1     -42.780  55.232 -51.170  1.00  0.00    -0.354 N 
HETATM    3  O   UNL     1     -44.464  56.670 -50.680  1.00  0.00    -0.268 OA
HETATM    4  H   UNL     1     -42.174  54.854 -51.886  1.00  0.00     0.162 HD
ENDROOT
BRANCH   2   5
HETATM    5  C   UNL     1     -42.521  54.849 -49.787  1.00  0.00     0.156 C 
BRANCH   5   6
HETATM    6  C   UNL     1     -41.107  55.155 -49.257  1.00  0.00     0.160 C 
BRANCH   6   7
HETATM    7  O   UNL     1     -40.968  54.736 -47.893  1.00  0.00    -0.392 OA
HETATM    8  H   UNL     1     -40.299  55.312 -47.463  1.00  0.00     0.210 HD
ENDBRANCH   6   7
BRANCH   6   9
HETATM    9  C   UNL     1     -40.003  54.542 -50.129  1.00  0.00     0.209 C 
BRANCH   9  10
HETATM   10  O   UNL     1     -40.292  53.153 -50.322  1.00  0.00    -0.349 OA
BRANCH  10  11
HETATM   11  C   UNL     1     -40.134  52.661 -51.588  1.00  0.00     0.069 A 
HETATM   12  C   UNL     1     -40.459  53.559 -52.608  1.00  0.00     0.043 A 
HETATM   13  C   UNL     1     -40.339  53.195 -53.955  1.00  0.00    -0.059 A 
HETATM   14  C   UNL     1     -40.702  54.161 -55.042  1.00  0.00     0.048 C 
HETATM   15  C   UNL     1     -39.921  51.898 -54.271  1.00  0.00     0.007 A 
HETATM   16  C   UNL     1     -39.607  50.994 -53.257  1.00  0.00     0.003 A 
HETATM   17  C   UNL     1     -39.711  51.374 -51.917  1.00  0.00     0.037 A 
ENDBRANCH  10  11
ENDBRANCH   9  10
ENDBRANCH   6   9
ENDBRANCH   5   6
ENDBRANCH   2   5
BRANCH   1  18
HETATM   18  C   UNL     1     -43.627  56.641 -52.904  1.00  0.00     0.075 A 
HETATM   19  C   UNL     1     -44.720  56.632 -53.809  1.00  0.00     0.158 A 
HETATM   20  N   UNL     1     -44.405  57.050 -55.029  1.00  0.00    -0.183 NA
HETATM   21  N   UNL     1     -43.085  57.296 -54.953  1.00  0.00    -0.268 N 
HETATM   22  C   UNL     1     -42.567  57.105 -53.682  1.00  0.00     0.052 A 
BRANCH  21  23
HETATM   23  C   UNL     1     -42.354  57.632 -56.176  1.00  0.00     0.106 C 
HETATM   24  C   UNL     1     -42.531  59.093 -56.614  1.00  0.00     0.034 C 
BRANCH  23  25
HETATM   25  C   UNL     1     -42.660  56.638 -57.313  1.00  0.00     0.022 C 
HETATM   26  C   UNL     1     -43.536  57.187 -58.434  1.00  0.00     0.007 C 
ENDBRANCH  23  25
ENDBRANCH  21  23
BRANCH  22  27
HETATM   27  C   UNL     1     -41.104  57.400 -53.327  1.00  0.00     0.038 A 
HETATM   28  C   UNL     1     -40.606  58.823 -53.246  1.00  0.00     0.011 A 
HETATM   29  C   UNL     1     -40.725  58.008 -52.001  1.00  0.00     0.011 A 
ENDBRANCH  22  27
ENDBRANCH   1  18
TORSDOF 10
ENDMDL
MODEL 3
REMARK VINA RESULT:      -7.3      2.037      3.119
REMARK  10 active torsions:
REMARK  status: ('A' for Active; 'I' for Inactive)
REMARK    1  A    between atoms: C_2  and  C_3 
REMARK    2  A    between atoms: C_3  and  N_4 
REMARK    3  A    between atoms: C_7  and  C_8 
REMARK       I    between atoms: C_8  and  N_9 
REMARK    4  A    between atoms: N_9  and  C_10 
REMARK    5  A    between atoms: C_10  and  C_11 
REMARK    6  A    between atoms: C_11  and  O_12 
REMARK    7  A    between atoms: C_11  and  C_13 
REMARK    8  A    between atoms: C_13  and  O_14 
REMARK    9  A    between atoms: O_14  and  C_15 
REMARK   10  A    between atoms: C_23  and  C_24 
ROOT
HETATM    1  C   UNL     1     -44.335  57.991 -54.779  1.00  0.00     0.255 C 
HETATM    2  N   UNL     1     -44.708  57.242 -53.679  1.00  0.00    -0.354 N 
HETATM    3  O   UNL     1     -44.297  59.215 -54.718  1.00  0.00    -0.268 OA
HETATM    4  H   UNL     1     -44.757  56.236 -53.766  1.00  0.00     0.162 HD
ENDROOT
BRANCH   2   5
HETATM    5  C   UNL     1     -44.853  57.817 -52.347  1.00  0.00     0.156 C 
BRANCH   5   6
HETATM    6  C   UNL     1     -44.064  57.119 -51.222  1.00  0.00     0.160 C 
BRANCH   6   7
HETATM    7  O   UNL     1     -44.829  56.055 -50.642  1.00  0.00    -0.392 OA
HETATM    8  H   UNL     1     -45.066  56.314 -49.725  1.00  0.00     0.210 HD
ENDBRANCH   6   7
BRANCH   6   9
HETATM    9  C   UNL     1     -42.693  56.612 -51.688  1.00  0.00     0.209 C 
BRANCH   9  10
HETATM   10  O   UNL     1     -42.864  55.326 -52.295  1.00  0.00    -0.349 OA
BRANCH  10  11
HETATM   11  C   UNL     1     -41.880  54.404 -52.073  1.00  0.00     0.069 A 
HETATM   12  C   UNL     1     -41.537  53.636 -53.189  1.00  0.00     0.043 A 
HETATM   13  C   UNL     1     -40.539  52.656 -53.112  1.00  0.00    -0.059 A 
HETATM   14  C   UNL     1     -40.187  51.829 -54.312  1.00  0.00     0.048 C 
HETATM   15  C   UNL     1     -39.909  52.426 -51.884  1.00  0.00     0.007 A 
HETATM   16  C   UNL     1     -40.257  53.181 -50.764  1.00  0.00     0.003 A 
HETATM   17  C   UNL     1     -41.239  54.170 -50.857  1.00  0.00     0.037 A 
ENDBRANCH  10  11
ENDBRANCH   9  10
ENDBRANCH   6   9
ENDBRANCH   5   6
ENDBRANCH   2   5
BRANCH   1  18
HETATM   18  C   UNL     1     -43.989  57.211 -55.958  1.00  0.00     0.075 A 
HETATM   19  C   UNL     1     -43.060  56.139 -55.979  1.00  0.00     0.158 A 
HETATM   20  N   UNL     1     -42.900  55.597 -57.180  1.00  0.00    -0.183 NA
HETATM   21  N   UNL     1     -43.690  56.341 -57.976  1.00  0.00    -0.268 N 
HETATM   22  C   UNL     1     -44.405  57.306 -57.285  1.00  0.00     0.052 A 
BRANCH  21  23
HETATM   23  C   UNL     1     -43.645  56.125 -59.423  1.00  0.00     0.106 C 
HETATM   24  C   UNL     1     -44.202  54.762 -59.857  1.00  0.00     0.034 C 
BRANCH  23  25
HETATM   25  C   UNL     1     -42.238  56.391 -59.994  1.00  0.00     0.022 C 
HETATM   26  C   UNL     1     -41.832  57.859 -60.057  1.00  0.00     0.007 C 
ENDBRANCH  23  25
ENDBRANCH  21  23
BRANCH  22  27
HETATM   27  C   UNL     1     -45.433  58.222 -57.962  1.00  0.00     0.038 A 
HETATM   28  C   UNL     1     -46.656  57.641 -58.630  1.00  0.00     0.011 A 
HETATM   29  C   UNL     1     -46.804  58.433 -57.372  1.00  0.00     0.011 A 
ENDBRANCH  22  27
ENDBRANCH   1  18
TORSDOF 10
ENDMDL
MODEL 4
REMARK VINA RESULT:      -7.3      2.511      7.981
REMARK  10 active torsions:
REMARK  status: ('A' for Active; 'I' for Inactive)
REMARK    1  A    between atoms: C_2  and  C_3 
REMARK    2  A    between atoms: C_3  and  N_4 
REMARK    3  A    between atoms: C_7  and  C_8 
REMARK       I    between atoms: C_8  and  N_9 
REMARK    4  A    between atoms: N_9  and  C_10 
REMARK    5  A    between atoms: C_10  and  C_11 
REMARK    6  A    between atoms: C_11  and  O_12 
REMARK    7  A    between atoms: C_11  and  C_13 
REMARK    8  A    between atoms: C_13  and  O_14 
REMARK    9  A    between atoms: O_14  and  C_15 
REMARK   10  A    between atoms: C_23  and  C_24 
ROOT
HETATM    1  C   UNL     1     -42.901  56.167 -53.986  1.00  0.00     0.255 C 
HETATM    2  N   UNL     1     -42.422  57.424 -53.667  1.00  0.00    -0.354 N 
HETATM    3  O   UNL     1     -44.058  56.016 -54.363  1.00  0.00    -0.268 OA
HETATM    4  H   UNL     1     -41.472  57.515 -53.332  1.00  0.00     0.162 HD
ENDROOT
BRANCH   2   5
HETATM    5  C   UNL     1     -43.158  58.647 -53.966  1.00  0.00     0.156 C 
BRANCH   5   6
HETATM    6  C   UNL     1     -42.366  59.748 -54.698  1.00  0.00     0.160 C 
BRANCH   6   7
HETATM    7  O   UNL     1     -41.084  59.949 -54.089  1.00  0.00    -0.392 OA
HETATM    8  H   UNL     1     -41.104  59.544 -53.195  1.00  0.00     0.210 HD
ENDBRANCH   6   7
BRANCH   6   9
HETATM    9  C   UNL     1     -42.217  59.470 -56.200  1.00  0.00     0.209 C 
BRANCH   9  10
HETATM   10  O   UNL     1     -42.409  58.070 -56.426  1.00  0.00    -0.349 OA
BRANCH  10  11
HETATM   11  C   UNL     1     -42.463  57.657 -57.729  1.00  0.00     0.069 A 
HETATM   12  C   UNL     1     -43.215  56.499 -57.944  1.00  0.00     0.043 A 
HETATM   13  C   UNL     1     -43.363  55.964 -59.230  1.00  0.00    -0.059 A 
HETATM   14  C   UNL     1     -44.162  54.714 -59.448  1.00  0.00     0.048 C 
HETATM   15  C   UNL     1     -42.714  56.586 -60.301  1.00  0.00     0.007 A 
HETATM   16  C   UNL     1     -41.952  57.735 -60.090  1.00  0.00     0.003 A 
HETATM   17  C   UNL     1     -41.827  58.272 -58.806  1.00  0.00     0.037 A 
ENDBRANCH  10  11
ENDBRANCH   9  10
ENDBRANCH   6   9
ENDBRANCH   5   6
ENDBRANCH   2   5
BRANCH   1  18
HETATM   18  C   UNL     1     -41.928  55.093 -53.853  1.00  0.00     0.075 A 
HETATM   19  C   UNL     1     -40.884  54.823 -54.774  1.00  0.00     0.158 A 
HETATM   20  N   UNL     1     -40.139  53.776 -54.444  1.00  0.00    -0.183 NA
HETATM   21  N   UNL     1     -40.716  53.314 -53.320  1.00  0.00    -0.268 N 
HETATM   22  C   UNL     1     -41.778  54.094 -52.891  1.00  0.00     0.052 A 
BRANCH  21  23
HETATM   23  C   UNL     1     -40.246  52.051 -52.747  1.00  0.00     0.106 C 
HETATM   24  C   UNL     1     -39.415  52.231 -51.469  1.00  0.00     0.034 C 
BRANCH  23  25
HETATM   25  C   UNL     1     -39.525  51.184 -53.797  1.00  0.00     0.022 C 
HETATM   26  C   UNL     1     -40.376  50.085 -54.424  1.00  0.00     0.007 C 
ENDBRANCH  23  25
ENDBRANCH  21  23
BRANCH  22  27
HETATM   27  C   UNL     1     -42.542  53.817 -51.590  1.00  0.00     0.038 A 
HETATM   28  C   UNL     1     -42.142  54.501 -50.305  1.00  0.00     0.011 A 
HETATM   29  C   UNL     1     -43.432  54.861 -50.966  1.00  0.00     0.011 A 
ENDBRANCH  22  27
ENDBRANCH   1  18
TORSDOF 10
ENDMDL
MODEL 5
REMARK VINA RESULT:      -7.3      2.641      3.832
REMARK  10 active torsions:
REMARK  status: ('A' for Active; 'I' for Inactive)
REMARK    1  A    between atoms: C_2  and  C_3 
REMARK    2  A    between atoms: C_3  and  N_4 
REMARK    3  A    between atoms: C_7  and  C_8 
REMARK       I    between atoms: C_8  and  N_9 
REMARK    4  A    between atoms: N_9  and  C_10 
REMARK    5  A    between atoms: C_10  and  C_11 
REMARK    6  A    between atoms: C_11  and  O_12 
REMARK    7  A    between atoms: C_11  and  C_13 
REMARK    8  A    between atoms: C_13  and  O_14 
REMARK    9  A    between atoms: O_14  and  C_15 
REMARK   10  A    between atoms: C_23  and  C_24 
ROOT
HETATM    1  C   UNL     1     -42.451  57.405 -52.168  1.00  0.00     0.255 C 
HETATM    2  N   UNL     1     -41.331  56.805 -51.625  1.00  0.00    -0.354 N 
HETATM    3  O   UNL     1     -43.464  57.562 -51.495  1.00  0.00    -0.268 OA
HETATM    4  H   UNL     1     -40.519  56.663 -52.211  1.00  0.00     0.162 HD
ENDROOT
BRANCH   2   5
HETATM    5  C   UNL     1     -41.194  56.536 -50.198  1.00  0.00     0.156 C 
BRANCH   5   6
HETATM    6  C   UNL     1     -40.814  55.092 -49.818  1.00  0.00     0.160 C 
BRANCH   6   7
HETATM    7  O   UNL     1     -41.219  54.790 -48.477  1.00  0.00    -0.392 OA
HETATM    8  H   UNL     1     -40.460  54.372 -48.015  1.00  0.00     0.210 HD
ENDBRANCH   6   7
BRANCH   6   9
HETATM    9  C   UNL     1     -41.371  54.055 -50.802  1.00  0.00     0.209 C 
BRANCH   9  10
HETATM   10  O   UNL     1     -40.521  54.015 -51.953  1.00  0.00    -0.349 OA
BRANCH  10  11
HETATM   11  C   UNL     1     -40.264  52.783 -52.487  1.00  0.00     0.069 A 
HETATM   12  C   UNL     1     -39.910  51.804 -51.555  1.00  0.00     0.043 A 
HETATM   13  C   UNL     1     -39.627  50.493 -51.957  1.00  0.00    -0.059 A 
HETATM   14  C   UNL     1     -39.235  49.454 -50.949  1.00  0.00     0.048 C 
HETATM   15  C   UNL     1     -39.665  50.179 -53.319  1.00  0.00     0.007 A 
HETATM   16  C   UNL     1     -40.006  51.155 -54.256  1.00  0.00     0.003 A 
HETATM   17  C   UNL     1     -40.307  52.455 -53.842  1.00  0.00     0.037 A 
ENDBRANCH  10  11
ENDBRANCH   9  10
ENDBRANCH   6   9
ENDBRANCH   5   6
ENDBRANCH   2   5
BRANCH   1  18
HETATM   18  C   UNL     1     -42.304  57.828 -53.552  1.00  0.00     0.075 A 
HETATM   19  C   UNL     1     -41.670  59.026 -53.973  1.00  0.00     0.158 A 
HETATM   20  N   UNL     1     -41.681  59.200 -55.289  1.00  0.00    -0.183 NA
HETATM   21  N   UNL     1     -42.368  58.138 -55.748  1.00  0.00    -0.268 N 
HETATM   22  C   UNL     1     -42.735  57.252 -54.747  1.00  0.00     0.052 A 
BRANCH  21  23
HETATM   23  C   UNL     1     -42.716  58.077 -57.168  1.00  0.00     0.106 C 
HETATM   24  C   UNL     1     -41.858  58.996 -58.049  1.00  0.00     0.034 C 
BRANCH  23  25
HETATM   25  C   UNL     1     -44.226  58.294 -57.393  1.00  0.00     0.022 C 
HETATM   26  C   UNL     1     -44.823  59.496 -56.670  1.00  0.00     0.007 C 
ENDBRANCH  23  25
ENDBRANCH  21  23
BRANCH  22  27
HETATM   27  C   UNL     1     -43.454  55.928 -55.032  1.00  0.00     0.038 A 
HETATM   28  C   UNL     1     -42.699  54.755 -55.610  1.00  0.00     0.011 A 
HETATM   29  C   UNL     1     -43.191  54.698 -54.201  1.00  0.00     0.011 A 
ENDBRANCH  22  27
ENDBRANCH   1  18
TORSDOF 10
ENDMDL
MODEL 6
REMARK VINA RESULT:      -7.2      1.886      2.901
REMARK  10 active torsions:
REMARK  status: ('A' for Active; 'I' for Inactive)
REMARK    1  A    between atoms: C_2  and  C_3 
REMARK    2  A    between atoms: C_3  and  N_4 
REMARK    3  A    between atoms: C_7  and  C_8 
REMARK       I    between atoms: C_8  and  N_9 
REMARK    4  A    between atoms: N_9  and  C_10 
REMARK    5  A    between atoms: C_10  and  C_11 
REMARK    6  A    between atoms: C_11  and  O_12 
REMARK    7  A    between atoms: C_11  and  C_13 
REMARK    8  A    between atoms: C_13  and  O_14 
REMARK    9  A    between atoms: O_14  and  C_15 
REMARK   10  A    between atoms: C_23  and  C_24 
ROOT
HETATM    1  C   UNL     1     -43.122  55.991 -58.447  1.00  0.00     0.255 C 
HETATM    2  N   UNL     1     -42.533  55.907 -57.199  1.00  0.00    -0.354 N 
HETATM    3  O   UNL     1     -43.837  55.086 -58.863  1.00  0.00    -0.268 OA
HETATM    4  H   UNL     1     -41.926  56.656 -56.894  1.00  0.00     0.162 HD
ENDROOT
BRANCH   2   5
HETATM    5  C   UNL     1     -42.891  54.882 -56.226  1.00  0.00     0.156 C 
BRANCH   5   6
HETATM    6  C   UNL     1     -43.308  55.392 -54.832  1.00  0.00     0.160 C 
BRANCH   6   7
HETATM    7  O   UNL     1     -44.418  54.643 -54.323  1.00  0.00    -0.392 OA
HETATM    8  H   UNL     1     -44.220  54.398 -53.393  1.00  0.00     0.210 HD
ENDBRANCH   6   7
BRANCH   6   9
HETATM    9  C   UNL     1     -42.145  55.393 -53.831  1.00  0.00     0.209 C 
BRANCH   9  10
HETATM   10  O   UNL     1     -41.067  54.629 -54.383  1.00  0.00    -0.349 OA
BRANCH  10  11
HETATM   11  C   UNL     1     -40.588  53.600 -53.622  1.00  0.00     0.069 A 
HETATM   12  C   UNL     1     -40.339  52.419 -54.326  1.00  0.00     0.043 A 
HETATM   13  C   UNL     1     -39.838  51.283 -53.678  1.00  0.00    -0.059 A 
HETATM   14  C   UNL     1     -39.587  50.017 -54.441  1.00  0.00     0.048 C 
HETATM   15  C   UNL     1     -39.624  51.332 -52.296  1.00  0.00     0.007 A 
HETATM   16  C   UNL     1     -39.882  52.504 -51.586  1.00  0.00     0.003 A 
HETATM   17  C   UNL     1     -40.362  53.638 -52.246  1.00  0.00     0.037 A 
ENDBRANCH  10  11
ENDBRANCH   9  10
ENDBRANCH   6   9
ENDBRANCH   5   6
ENDBRANCH   2   5
BRANCH   1  18
HETATM   18  C   UNL     1     -42.834  57.218 -59.174  1.00  0.00     0.075 A 
HETATM   19  C   UNL     1     -41.833  57.358 -60.169  1.00  0.00     0.158 A 
HETATM   20  N   UNL     1     -41.749  58.583 -60.673  1.00  0.00    -0.183 NA
HETATM   21  N   UNL     1     -42.668  59.278 -59.979  1.00  0.00    -0.268 N 
HETATM   22  C   UNL     1     -43.384  58.496 -59.086  1.00  0.00     0.052 A 
BRANCH  21  23
HETATM   23  C   UNL     1     -42.749  60.728 -60.162  1.00  0.00     0.106 C 
HETATM   24  C   UNL     1     -43.166  61.144 -61.579  1.00  0.00     0.034 C 
BRANCH  23  25
HETATM   25  C   UNL     1     -41.458  61.433 -59.700  1.00  0.00     0.022 C 
HETATM   26  C   UNL     1     -41.172  61.348 -58.205  1.00  0.00     0.007 C 
ENDBRANCH  23  25
ENDBRANCH  21  23
BRANCH  22  27
HETATM   27  C   UNL     1     -44.540  59.046 -58.241  1.00  0.00     0.038 A 
HETATM   28  C   UNL     1     -45.909  59.238 -58.847  1.00  0.00     0.011 A 
HETATM   29  C   UNL     1     -45.695  58.170 -57.826  1.00  0.00     0.011 A 
ENDBRANCH  22  27
ENDBRANCH   1  18
TORSDOF 10
ENDMDL
MODEL 7
REMARK VINA RESULT:      -7.2      1.905      3.320
REMARK  10 active torsions:
REMARK  status: ('A' for Active; 'I' for Inactive)
REMARK    1  A    between atoms: C_2  and  C_3 
REMARK    2  A    between atoms: C_3  and  N_4 
REMARK    3  A    between atoms: C_7  and  C_8 
REMARK       I    between atoms: C_8  and  N_9 
REMARK    4  A    between atoms: N_9  and  C_10 
REMARK    5  A    between atoms: C_10  and  C_11 
REMARK    6  A    between atoms: C_11  and  O_12 
REMARK    7  A    between atoms: C_11  and  C_13 
REMARK    8  A    between atoms: C_13  and  O_14 
REMARK    9  A    between atoms: O_14  and  C_15 
REMARK   10  A    between atoms: C_23  and  C_24 
ROOT
HETATM    1  C   UNL     1     -42.637  56.754 -53.725  1.00  0.00     0.255 C 
HETATM    2  N   UNL     1     -43.504  56.168 -52.822  1.00  0.00    -0.354 N 
HETATM    3  O   UNL     1     -41.746  57.502 -53.341  1.00  0.00    -0.268 OA
HETATM    4  H   UNL     1     -44.247  55.577 -53.170  1.00  0.00     0.162 HD
ENDROOT
BRANCH   2   5
HETATM    5  C   UNL     1     -43.287  56.210 -51.381  1.00  0.00     0.156 C 
BRANCH   5   6
HETATM    6  C   UNL     1     -43.350  54.855 -50.650  1.00  0.00     0.160 C 
BRANCH   6   7
HETATM    7  O   UNL     1     -44.030  53.875 -51.444  1.00  0.00    -0.392 OA
HETATM    8  H   UNL     1     -43.518  53.038 -51.402  1.00  0.00     0.210 HD
ENDBRANCH   6   7
BRANCH   6   9
HETATM    9  C   UNL     1     -41.966  54.347 -50.226  1.00  0.00     0.209 C 
BRANCH   9  10
HETATM   10  O   UNL     1     -41.036  54.626 -51.278  1.00  0.00    -0.349 OA
BRANCH  10  11
HETATM   11  C   UNL     1     -40.613  53.562 -52.025  1.00  0.00     0.069 A 
HETATM   12  C   UNL     1     -40.233  52.441 -51.283  1.00  0.00     0.043 A 
HETATM   13  C   UNL     1     -39.785  51.274 -51.915  1.00  0.00    -0.059 A 
HETATM   14  C   UNL     1     -39.369  50.081 -51.108  1.00  0.00     0.048 C 
HETATM   15  C   UNL     1     -39.686  51.256 -53.310  1.00  0.00     0.007 A 
HETATM   16  C   UNL     1     -40.051  52.376 -54.056  1.00  0.00     0.003 A 
HETATM   17  C   UNL     1     -40.516  53.528 -53.416  1.00  0.00     0.037 A 
ENDBRANCH  10  11
ENDBRANCH   9  10
ENDBRANCH   6   9
ENDBRANCH   5   6
ENDBRANCH   2   5
BRANCH   1  18
HETATM   18  C   UNL     1     -42.869  56.390 -55.115  1.00  0.00     0.075 A 
HETATM   19  C   UNL     1     -42.539  55.138 -55.694  1.00  0.00     0.158 A 
HETATM   20  N   UNL     1     -42.829  55.055 -56.986  1.00  0.00    -0.183 NA
HETATM   21  N   UNL     1     -43.313  56.274 -57.285  1.00  0.00    -0.268 N 
HETATM   22  C   UNL     1     -43.399  57.112 -56.184  1.00  0.00     0.052 A 
BRANCH  21  23
HETATM   23  C   UNL     1     -43.597  56.603 -58.683  1.00  0.00     0.106 C 
HETATM   24  C   UNL     1     -44.080  55.402 -59.508  1.00  0.00     0.034 C 
BRANCH  23  25
HETATM   25  C   UNL     1     -42.412  57.332 -59.348  1.00  0.00     0.022 C 
HETATM   26  C   UNL     1     -42.795  58.481 -60.272  1.00  0.00     0.007 C 
ENDBRANCH  23  25
ENDBRANCH  21  23
BRANCH  22  27
HETATM   27  C   UNL     1     -43.994  58.524 -56.257  1.00  0.00     0.038 A 
HETATM   28  C   UNL     1     -45.486  58.721 -56.381  1.00  0.00     0.011 A 
HETATM   29  C   UNL     1     -44.791  59.099 -55.115  1.00  0.00     0.011 A 
ENDBRANCH  22  27
ENDBRANCH   1  18
TORSDOF 10
ENDMDL
MODEL 8
REMARK VINA RESULT:      -6.9      3.509      8.208
REMARK  10 active torsions:
REMARK  status: ('A' for Active; 'I' for Inactive)
REMARK    1  A    between atoms: C_2  and  C_3 
REMARK    2  A    between atoms: C_3  and  N_4 
REMARK    3  A    between atoms: C_7  and  C_8 
REMARK       I    between atoms: C_8  and  N_9 
REMARK    4  A    between atoms: N_9  and  C_10 
REMARK    5  A    between atoms: C_10  and  C_11 
REMARK    6  A    between atoms: C_11  and  O_12 
REMARK    7  A    between atoms: C_11  and  C_13 
REMARK    8  A    between atoms: C_13  and  O_14 
REMARK    9  A    between atoms: O_14  and  C_15 
REMARK   10  A    between atoms: C_23  and  C_24 
ROOT
HETATM    1  C   UNL     1     -43.299  55.351 -54.065  1.00  0.00     0.255 C 
HETATM    2  N   UNL     1     -42.961  56.672 -54.291  1.00  0.00    -0.354 N 
HETATM    3  O   UNL     1     -44.053  54.759 -54.830  1.00  0.00    -0.268 OA
HETATM    4  H   UNL     1     -42.359  57.143 -53.628  1.00  0.00     0.162 HD
ENDROOT
BRANCH   2   5
HETATM    5  C   UNL     1     -43.277  57.365 -55.534  1.00  0.00     0.156 C 
BRANCH   5   6
HETATM    6  C   UNL     1     -44.554  58.229 -55.519  1.00  0.00     0.160 C 
BRANCH   6   7
HETATM    7  O   UNL     1     -45.728  57.409 -55.553  1.00  0.00    -0.392 OA
HETATM    8  H   UNL     1     -45.643  56.784 -56.305  1.00  0.00     0.210 HD
ENDBRANCH   6   7
BRANCH   6   9
HETATM    9  C   UNL     1     -44.598  59.196 -54.329  1.00  0.00     0.209 C 
BRANCH   9  10
HETATM   10  O   UNL     1     -43.307  59.796 -54.179  1.00  0.00    -0.349 OA
BRANCH  10  11
HETATM   11  C   UNL     1     -42.887  60.045 -52.902  1.00  0.00     0.069 A 
HETATM   12  C   UNL     1     -41.661  59.465 -52.566  1.00  0.00     0.043 A 
HETATM   13  C   UNL     1     -41.103  59.641 -51.294  1.00  0.00    -0.059 A 
HETATM   14  C   UNL     1     -39.794  59.003 -50.940  1.00  0.00     0.048 C 
HETATM   15  C   UNL     1     -41.811  60.381 -50.341  1.00  0.00     0.007 A 
HETATM   16  C   UNL     1     -43.041  60.952 -50.666  1.00  0.00     0.003 A 
HETATM   17  C   UNL     1     -43.579  60.787 -51.945  1.00  0.00     0.037 A 
ENDBRANCH  10  11
ENDBRANCH   9  10
ENDBRANCH   6   9
ENDBRANCH   5   6
ENDBRANCH   2   5
BRANCH   1  18
HETATM   18  C   UNL     1     -42.680  54.756 -52.890  1.00  0.00     0.075 A 
HETATM   19  C   UNL     1     -43.277  54.683 -51.606  1.00  0.00     0.158 A 
HETATM   20  N   UNL     1     -42.504  54.113 -50.690  1.00  0.00    -0.183 NA
HETATM   21  N   UNL     1     -41.365  53.845 -51.354  1.00  0.00    -0.268 N 
HETATM   22  C   UNL     1     -41.427  54.175 -52.699  1.00  0.00     0.052 A 
BRANCH  21  23
HETATM   23  C   UNL     1     -40.209  53.345 -50.608  1.00  0.00     0.106 C 
HETATM   24  C   UNL     1     -40.357  51.886 -50.154  1.00  0.00     0.034 C 
BRANCH  23  25
HETATM   25  C   UNL     1     -39.832  54.284 -49.446  1.00  0.00     0.022 C 
HETATM   26  C   UNL     1     -40.330  53.848 -48.073  1.00  0.00     0.007 C 
ENDBRANCH  23  25
ENDBRANCH  21  23
BRANCH  22  27
HETATM   27  C   UNL     1     -40.283  53.889 -53.679  1.00  0.00     0.038 A 
HETATM   28  C   UNL     1     -40.233  52.585 -54.440  1.00  0.00     0.011 A 
HETATM   29  C   UNL     1     -40.514  53.858 -55.168  1.00  0.00     0.011 A 
ENDBRANCH  22  27
ENDBRANCH   1  18
TORSDOF 10
ENDMDL
MODEL 9
REMARK VINA RESULT:      -6.7     15.419     17.332
REMARK  10 active torsions:
REMARK  status: ('A' for Active; 'I' for Inactive)
REMARK    1  A    between atoms: C_2  and  C_3 
REMARK    2  A    between atoms: C_3  and  N_4 
REMARK    3  A    between atoms: C_7  and  C_8 
REMARK       I    between atoms: C_8  and  N_9 
REMARK    4  A    between atoms: N_9  and  C_10 
REMARK    5  A    between atoms: C_10  and  C_11 
REMARK    6  A    between atoms: C_11  and  O_12 
REMARK    7  A    between atoms: C_11  and  C_13 
REMARK    8  A    between atoms: C_13  and  O_14 
REMARK    9  A    between atoms: O_14  and  C_15 
REMARK   10  A    between atoms: C_23  and  C_24 
ROOT
HETATM    1  C   UNL     1     -33.049  40.393 -55.256  1.00  0.00     0.255 C 
HETATM    2  N   UNL     1     -33.474  39.853 -54.056  1.00  0.00    -0.354 N 
HETATM    3  O   UNL     1     -31.853  40.540 -55.486  1.00  0.00    -0.268 OA
HETATM    4  H   UNL     1     -34.467  39.770 -53.883  1.00  0.00     0.162 HD
ENDROOT
BRANCH   2   5
HETATM    5  C   UNL     1     -32.562  39.227 -53.106  1.00  0.00     0.156 C 
BRANCH   5   6
HETATM    6  C   UNL     1     -32.039  40.135 -51.976  1.00  0.00     0.160 C 
BRANCH   6   7
HETATM    7  O   UNL     1     -31.602  41.398 -52.493  1.00  0.00    -0.392 OA
HETATM    8  H   UNL     1     -30.650  41.505 -52.274  1.00  0.00     0.210 HD
ENDBRANCH   6   7
BRANCH   6   9
HETATM    9  C   UNL     1     -33.066  40.333 -50.853  1.00  0.00     0.209 C 
BRANCH   9  10
HETATM   10  O   UNL     1     -33.827  41.513 -51.133  1.00  0.00    -0.349 OA
BRANCH  10  11
HETATM   11  C   UNL     1     -35.110  41.330 -51.569  1.00  0.00     0.069 A 
HETATM   12  C   UNL     1     -35.801  40.296 -50.933  1.00  0.00     0.043 A 
HETATM   13  C   UNL     1     -37.127  39.998 -51.273  1.00  0.00    -0.059 A 
HETATM   14  C   UNL     1     -37.855  38.878 -50.593  1.00  0.00     0.048 C 
HETATM   15  C   UNL     1     -37.746  40.730 -52.291  1.00  0.00     0.007 A 
HETATM   16  C   UNL     1     -37.056  41.756 -52.938  1.00  0.00     0.003 A 
HETATM   17  C   UNL     1     -35.741  42.058 -52.578  1.00  0.00     0.037 A 
ENDBRANCH  10  11
ENDBRANCH   9  10
ENDBRANCH   6   9
ENDBRANCH   5   6
ENDBRANCH   2   5
BRANCH   1  18
HETATM   18  C   UNL     1     -34.117  40.734 -56.183  1.00  0.00     0.075 A 
HETATM   19  C   UNL     1     -34.611  42.044 -56.408  1.00  0.00     0.158 A 
HETATM   20  N   UNL     1     -35.604  42.096 -57.287  1.00  0.00    -0.183 NA
HETATM   21  N   UNL     1     -35.808  40.808 -57.617  1.00  0.00    -0.268 N 
HETATM   22  C   UNL     1     -34.911  39.942 -57.011  1.00  0.00     0.052 A 
BRANCH  21  23
HETATM   23  C   UNL     1     -36.951  40.464 -58.463  1.00  0.00     0.106 C 
HETATM   24  C   UNL     1     -37.278  41.533 -59.516  1.00  0.00     0.034 C 
BRANCH  23  25
HETATM   25  C   UNL     1     -38.183  40.074 -57.623  1.00  0.00     0.022 C 
HETATM   26  C   UNL     1     -38.377  40.880 -56.344  1.00  0.00     0.007 C 
ENDBRANCH  23  25
ENDBRANCH  21  23
BRANCH  22  27
HETATM   27  C   UNL     1     -34.891  38.434 -57.295  1.00  0.00     0.038 A 
HETATM   28  C   UNL     1     -34.340  37.906 -58.597  1.00  0.00     0.011 A 
HETATM   29  C   UNL     1     -33.599  37.659 -57.324  1.00  0.00     0.011 A 
ENDBRANCH  22  27
ENDBRANCH   1  18
TORSDOF 10
ENDMDL
MODEL 10
REMARK VINA RESULT:      -6.7      4.387      6.726
REMARK  10 active torsions:
REMARK  status: ('A' for Active; 'I' for Inactive)
REMARK    1  A    between atoms: C_2  and  C_3 
REMARK    2  A    between atoms: C_3  and  N_4 
REMARK    3  A    between atoms: C_7  and  C_8 
REMARK       I    between atoms: C_8  and  N_9 
REMARK    4  A    between atoms: N_9  and  C_10 
REMARK    5  A    between atoms: C_10  and  C_11 
REMARK    6  A    between atoms: C_11  and  O_12 
REMARK    7  A    between atoms: C_11  and  C_13 
REMARK    8  A    between atoms: C_13  and  O_14 
REMARK    9  A    between atoms: O_14  and  C_15 
REMARK   10  A    between atoms: C_23  and  C_24 
ROOT
HETATM    1  C   UNL     1     -44.334  57.373 -51.705  1.00  0.00     0.255 C 
HETATM    2  N   UNL     1     -44.472  57.341 -53.080  1.00  0.00    -0.354 N 
HETATM    3  O   UNL     1     -43.995  56.370 -51.087  1.00  0.00    -0.268 OA
HETATM    4  H   UNL     1     -44.780  58.176 -53.560  1.00  0.00     0.162 HD
ENDROOT
BRANCH   2   5
HETATM    5  C   UNL     1     -44.016  56.218 -53.892  1.00  0.00     0.156 C 
BRANCH   5   6
HETATM    6  C   UNL     1     -42.658  56.405 -54.597  1.00  0.00     0.160 C 
BRANCH   6   7
HETATM    7  O   UNL     1     -42.349  57.795 -54.756  1.00  0.00    -0.392 OA
HETATM    8  H   UNL     1     -41.384  57.876 -54.919  1.00  0.00     0.210 HD
ENDBRANCH   6   7
BRANCH   6   9
HETATM    9  C   UNL     1     -41.516  55.670 -53.884  1.00  0.00     0.209 C 
BRANCH   9  10
HETATM   10  O   UNL     1     -41.421  54.345 -54.417  1.00  0.00    -0.349 OA
BRANCH  10  11
HETATM   11  C   UNL     1     -40.793  53.411 -53.641  1.00  0.00     0.069 A 
HETATM   12  C   UNL     1     -40.480  52.219 -54.299  1.00  0.00     0.043 A 
HETATM   13  C   UNL     1     -39.829  51.175 -53.631  1.00  0.00    -0.059 A 
HETATM   14  C   UNL     1     -39.509  49.895 -54.344  1.00  0.00     0.048 C 
HETATM   15  C   UNL     1     -39.525  51.325 -52.274  1.00  0.00     0.007 A 
HETATM   16  C   UNL     1     -39.847  52.507 -51.608  1.00  0.00     0.003 A 
HETATM   17  C   UNL     1     -40.478  53.551 -52.290  1.00  0.00     0.037 A 
ENDBRANCH  10  11
ENDBRANCH   9  10
ENDBRANCH   6   9
ENDBRANCH   5   6
ENDBRANCH   2   5
BRANCH   1  18
HETATM   18  C   UNL     1     -44.602  58.667 -51.097  1.00  0.00     0.075 A 
HETATM   19  C   UNL     1     -45.849  59.067 -50.551  1.00  0.00     0.158 A 
HETATM   20  N   UNL     1     -45.849  60.304 -50.072  1.00  0.00    -0.183 NA
HETATM   21  N   UNL     1     -44.610  60.753 -50.341  1.00  0.00    -0.268 N 
HETATM   22  C   UNL     1     -43.797  59.793 -50.924  1.00  0.00     0.052 A 
BRANCH  21  23
HETATM   23  C   UNL     1     -44.292  62.159 -50.089  1.00  0.00     0.106 C 
HETATM   24  C   UNL     1     -44.741  62.650 -48.705  1.00  0.00     0.034 C 
BRANCH  23  25
HETATM   25  C   UNL     1     -44.799  63.069 -51.225  1.00  0.00     0.022 C 
HETATM   26  C   UNL     1     -43.806  63.304 -52.358  1.00  0.00     0.007 C 
ENDBRANCH  23  25
ENDBRANCH  21  23
BRANCH  22  27
HETATM   27  C   UNL     1     -42.319  60.040 -51.249  1.00  0.00     0.038 A 
HETATM   28  C   UNL     1     -41.257  59.827 -50.197  1.00  0.00     0.011 A 
HETATM   29  C   UNL     1     -41.340  58.901 -51.366  1.00  0.00     0.011 A 
ENDBRANCH  22  27
ENDBRANCH   1  18
TORSDOF 10
ENDMDL
