MODEL 1
REMARK VINA RESULT:      -8.4      0.000      0.000
REMARK  4 active torsions:
REMARK  status: ('A' for Active; 'I' for Inactive)
REMARK    1  A    between atoms: C_9  and  C_10 
REMARK    2  A    between atoms: C_18  and  C_19 
REMARK       I    between atoms: C_19  and  N_20 
REMARK    3  A    between atoms: N_20  and  C_21 
REMARK    4  A    between atoms: C_24  and  O_25 
ROOT
HETATM    1  C   UNL     1     -42.977  55.402 -57.517  1.00  0.00     0.070 C 
HETATM    2  C   UNL     1     -43.235  56.566 -56.594  1.00  0.00     0.037 A 
HETATM    3  N   UNL     1     -43.614  57.752 -57.217  1.00  0.00    -0.192 N 
HETATM    4  C   UNL     1     -44.019  58.847 -56.546  1.00  0.00     0.725 A 
HETATM    5  N   UNL     1     -43.988  58.847 -55.177  1.00  0.00    -0.084 N 
HETATM    6  N   UNL     1     -44.503  59.989 -54.674  1.00  0.00    -0.149 NA
HETATM    7  C   UNL     1     -44.775  60.653 -55.803  1.00  0.00     0.275 A 
HETATM    8  N   UNL     1     -44.496  59.990 -56.970  1.00  0.00    -0.054 NA
HETATM    9  C   UNL     1     -43.572  57.695 -54.368  1.00  0.00     0.204 A 
HETATM   10  C   UNL     1     -43.180  56.509 -55.240  1.00  0.00     0.062 A 
HETATM   11  H   UNL     1     -43.691  57.753 -58.231  1.00  0.00     0.184 HD
ENDROOT
BRANCH  10  12
HETATM   12  C   UNL     1     -42.861  55.281 -54.466  1.00  0.00     0.256 C 
HETATM   13  N   UNL     1     -41.511  55.044 -54.342  1.00  0.00    -0.323 N 
HETATM   14  H   UNL     1     -40.883  55.707 -54.781  1.00  0.00     0.169 HD
HETATM   15  O   UNL     1     -43.786  54.646 -53.975  1.00  0.00    -0.267 OA
BRANCH  13  16
HETATM   16  C   UNL     1     -40.898  53.966 -53.670  1.00  0.00     0.035 A 
HETATM   17  C   UNL     1     -40.716  53.909 -52.289  1.00  0.00     0.032 A 
HETATM   18  C   UNL     1     -40.104  52.797 -51.700  1.00  0.00     0.039 A 
HETATM   19  C   UNL     1     -39.673  51.722 -52.476  1.00  0.00     0.068 A 
HETATM   20  C   UNL     1     -39.848  51.773 -53.857  1.00  0.00     0.039 A 
HETATM   21  C   UNL     1     -40.452  52.891 -54.449  1.00  0.00     0.032 A 
BRANCH  19  22
HETATM   22  O   UNL     1     -39.101  50.701 -51.770  1.00  0.00    -0.356 OA
HETATM   23  C   UNL     1     -39.862  50.145 -50.706  1.00  0.00     0.210 C 
ENDBRANCH  19  22
ENDBRANCH  13  16
ENDBRANCH  10  12
BRANCH   9  24
HETATM   24  C   UNL     1     -42.514  58.095 -53.339  1.00  0.00    -0.006 A 
HETATM   25  C   UNL     1     -42.668  57.971 -51.946  1.00  0.00     0.044 A 
HETATM   26 CL   UNL     1     -44.122  57.393 -51.216  1.00  0.00    -0.084 Cl
HETATM   27  C   UNL     1     -41.639  58.346 -51.073  1.00  0.00     0.048 A 
HETATM   28  C   UNL     1     -40.451  58.861 -51.580  1.00  0.00     0.035 A 
HETATM   29 CL   UNL     1     -39.192  59.322 -50.502  1.00  0.00    -0.084 Cl
HETATM   30  C   UNL     1     -40.277  59.011 -52.950  1.00  0.00     0.024 A 
HETATM   31  C   UNL     1     -41.300  58.630 -53.822  1.00  0.00     0.013 A 
ENDBRANCH   9  24
TORSDOF 4
ENDMDL
MODEL 2
REMARK VINA RESULT:      -8.2      2.940      6.713
REMARK  4 active torsions:
REMARK  status: ('A' for Active; 'I' for Inactive)
REMARK    1  A    between atoms: C_9  and  C_10 
REMARK    2  A    between atoms: C_18  and  C_19 
REMARK       I    between atoms: C_19  and  N_20 
REMARK    3  A    between atoms: N_20  and  C_21 
REMARK    4  A    between atoms: C_24  and  O_25 
ROOT
HETATM    1  C   UNL     1     -40.739  52.407 -53.742  1.00  0.00     0.070 C 
HETATM    2  C   UNL     1     -40.898  53.343 -52.572  1.00  0.00     0.037 A 
HETATM    3  N   UNL     1     -40.725  52.767 -51.316  1.00  0.00    -0.192 N 
HETATM    4  C   UNL     1     -40.690  53.477 -50.172  1.00  0.00     0.725 A 
HETATM    5  N   UNL     1     -40.917  54.827 -50.211  1.00  0.00    -0.084 N 
HETATM    6  N   UNL     1     -40.764  55.386 -48.992  1.00  0.00    -0.149 NA
HETATM    7  C   UNL     1     -40.498  54.300 -48.256  1.00  0.00     0.275 A 
HETATM    8  N   UNL     1     -40.441  53.113 -48.940  1.00  0.00    -0.054 NA
HETATM    9  C   UNL     1     -41.160  55.581 -51.446  1.00  0.00     0.204 A 
HETATM   10  C   UNL     1     -41.132  54.675 -52.671  1.00  0.00     0.062 A 
HETATM   11  H   UNL     1     -40.505  51.776 -51.274  1.00  0.00     0.184 HD
ENDROOT
BRANCH  10  12
HETATM   12  C   UNL     1     -41.259  55.410 -53.957  1.00  0.00     0.256 C 
HETATM   13  N   UNL     1     -42.529  55.378 -54.485  1.00  0.00    -0.323 N 
HETATM   14  H   UNL     1     -43.234  54.868 -53.965  1.00  0.00     0.169 HD
HETATM   15  O   UNL     1     -40.279  56.005 -54.386  1.00  0.00    -0.267 OA
BRANCH  13  16
HETATM   16  C   UNL     1     -42.963  55.976 -55.687  1.00  0.00     0.035 A 
HETATM   17  C   UNL     1     -42.826  55.390 -56.944  1.00  0.00     0.032 A 
HETATM   18  C   UNL     1     -43.293  56.048 -58.088  1.00  0.00     0.039 A 
HETATM   19  C   UNL     1     -43.911  57.294 -57.995  1.00  0.00     0.068 A 
HETATM   20  C   UNL     1     -44.048  57.888 -56.742  1.00  0.00     0.039 A 
HETATM   21  C   UNL     1     -43.573  57.234 -55.597  1.00  0.00     0.032 A 
BRANCH  19  22
HETATM   22  O   UNL     1     -44.325  57.818 -59.188  1.00  0.00    -0.356 OA
HETATM   23  C   UNL     1     -43.900  57.149 -60.368  1.00  0.00     0.210 C 
ENDBRANCH  19  22
ENDBRANCH  13  16
ENDBRANCH  10  12
BRANCH   9  24
HETATM   24  C   UNL     1     -42.420  56.441 -51.330  1.00  0.00    -0.006 A 
HETATM   25  C   UNL     1     -43.699  55.944 -51.019  1.00  0.00     0.044 A 
HETATM   26 CL   UNL     1     -44.015  54.263 -50.782  1.00  0.00    -0.084 Cl
HETATM   27  C   UNL     1     -44.798  56.806 -50.916  1.00  0.00     0.048 A 
HETATM   28  C   UNL     1     -44.636  58.169 -51.135  1.00  0.00     0.035 A 
HETATM   29 CL   UNL     1     -45.991  59.222 -51.010  1.00  0.00    -0.084 Cl
HETATM   30  C   UNL     1     -43.388  58.685 -51.461  1.00  0.00     0.024 A 
HETATM   31  C   UNL     1     -42.289  57.828 -51.557  1.00  0.00     0.013 A 
ENDBRANCH   9  24
TORSDOF 4
ENDMDL
MODEL 3
REMARK VINA RESULT:      -8.1      3.198      6.588
REMARK  4 active torsions:
REMARK  status: ('A' for Active; 'I' for Inactive)
REMARK    1  A    between atoms: C_9  and  C_10 
REMARK    2  A    between atoms: C_18  and  C_19 
REMARK       I    between atoms: C_19  and  N_20 
REMARK    3  A    between atoms: N_20  and  C_21 
REMARK    4  A    between atoms: C_24  and  O_25 
ROOT
HETATM    1  C   UNL     1     -42.157  60.065 -55.768  1.00  0.00     0.070 C 
HETATM    2  C   UNL     1     -41.860  59.130 -54.623  1.00  0.00     0.037 A 
HETATM    3  N   UNL     1     -40.987  59.623 -53.657  1.00  0.00    -0.192 N 
HETATM    4  C   UNL     1     -40.723  58.985 -52.501  1.00  0.00     0.725 A 
HETATM    5  N   UNL     1     -41.263  57.748 -52.276  1.00  0.00    -0.084 N 
HETATM    6  N   UNL     1     -40.960  57.297 -51.040  1.00  0.00    -0.149 NA
HETATM    7  C   UNL     1     -40.187  58.295 -50.598  1.00  0.00     0.275 A 
HETATM    8  N   UNL     1     -40.018  59.348 -51.460  1.00  0.00    -0.054 NA
HETATM    9  C   UNL     1     -42.167  57.067 -53.210  1.00  0.00     0.204 A 
HETATM   10  C   UNL     1     -42.422  57.906 -54.456  1.00  0.00     0.062 A 
HETATM   11  H   UNL     1     -40.618  60.561 -53.786  1.00  0.00     0.184 HD
ENDROOT
BRANCH  10  12
HETATM   12  C   UNL     1     -43.421  57.310 -55.381  1.00  0.00     0.256 C 
HETATM   13  N   UNL     1     -43.067  57.403 -56.707  1.00  0.00    -0.323 N 
HETATM   14  H   UNL     1     -42.188  57.859 -56.920  1.00  0.00     0.169 HD
HETATM   15  O   UNL     1     -44.403  56.758 -54.900  1.00  0.00    -0.267 OA
BRANCH  13  16
HETATM   16  C   UNL     1     -43.803  56.935 -57.817  1.00  0.00     0.035 A 
HETATM   17  C   UNL     1     -44.919  57.584 -58.342  1.00  0.00     0.032 A 
HETATM   18  C   UNL     1     -45.588  57.056 -59.452  1.00  0.00     0.039 A 
HETATM   19  C   UNL     1     -45.150  55.881 -60.061  1.00  0.00     0.068 A 
HETATM   20  C   UNL     1     -44.037  55.225 -59.539  1.00  0.00     0.039 A 
HETATM   21  C   UNL     1     -43.372  55.748 -58.422  1.00  0.00     0.032 A 
BRANCH  19  22
HETATM   22  O   UNL     1     -45.891  55.485 -61.139  1.00  0.00    -0.356 OA
HETATM   23  C   UNL     1     -47.103  56.185 -61.382  1.00  0.00     0.210 C 
ENDBRANCH  19  22
ENDBRANCH  13  16
ENDBRANCH  10  12
BRANCH   9  24
HETATM   24  C   UNL     1     -41.693  55.642 -53.500  1.00  0.00    -0.006 A 
HETATM   25  C   UNL     1     -42.192  54.490 -52.863  1.00  0.00     0.044 A 
HETATM   26 CL   UNL     1     -43.383  54.556 -51.615  1.00  0.00    -0.084 Cl
HETATM   27  C   UNL     1     -41.713  53.219 -53.202  1.00  0.00     0.048 A 
HETATM   28  C   UNL     1     -40.722  53.083 -54.168  1.00  0.00     0.035 A 
HETATM   29 CL   UNL     1     -40.136  51.519 -54.577  1.00  0.00    -0.084 Cl
HETATM   30  C   UNL     1     -40.198  54.204 -54.800  1.00  0.00     0.024 A 
HETATM   31  C   UNL     1     -40.681  55.473 -54.469  1.00  0.00     0.013 A 
ENDBRANCH   9  24
TORSDOF 4
ENDMDL
MODEL 4
REMARK VINA RESULT:      -7.7      2.878      4.918
REMARK  4 active torsions:
REMARK  status: ('A' for Active; 'I' for Inactive)
REMARK    1  A    between atoms: C_9  and  C_10 
REMARK    2  A    between atoms: C_18  and  C_19 
REMARK       I    between atoms: C_19  and  N_20 
REMARK    3  A    between atoms: N_20  and  C_21 
REMARK    4  A    between atoms: C_24  and  O_25 
ROOT
HETATM    1  C   UNL     1     -43.476  58.886 -53.110  1.00  0.00     0.070 C 
HETATM    2  C   UNL     1     -43.139  59.060 -54.569  1.00  0.00     0.037 A 
HETATM    3  N   UNL     1     -43.128  60.374 -55.030  1.00  0.00    -0.192 N 
HETATM    4  C   UNL     1     -42.712  60.726 -56.261  1.00  0.00     0.725 A 
HETATM    5  N   UNL     1     -42.355  59.752 -57.154  1.00  0.00    -0.084 N 
HETATM    6  N   UNL     1     -41.889  60.286 -58.304  1.00  0.00    -0.149 NA
HETATM    7  C   UNL     1     -42.048  61.590 -58.049  1.00  0.00     0.275 A 
HETATM    8  N   UNL     1     -42.547  61.902 -56.811  1.00  0.00    -0.054 NA
HETATM    9  C   UNL     1     -42.352  58.318 -56.844  1.00  0.00     0.204 A 
HETATM   10  C   UNL     1     -42.799  58.053 -55.412  1.00  0.00     0.062 A 
HETATM   11  H   UNL     1     -43.342  61.112 -54.365  1.00  0.00     0.184 HD
ENDROOT
BRANCH  10  12
HETATM   12  C   UNL     1     -42.703  56.624 -55.013  1.00  0.00     0.256 C 
HETATM   13  N   UNL     1     -41.433  56.240 -54.647  1.00  0.00    -0.323 N 
HETATM   14  H   UNL     1     -40.707  56.945 -54.687  1.00  0.00     0.169 HD
HETATM   15  O   UNL     1     -43.729  55.957 -54.989  1.00  0.00    -0.267 OA
BRANCH  13  16
HETATM   16  C   UNL     1     -41.024  54.958 -54.223  1.00  0.00     0.035 A 
HETATM   17  C   UNL     1     -40.583  53.956 -55.086  1.00  0.00     0.032 A 
HETATM   18  C   UNL     1     -40.186  52.711 -54.582  1.00  0.00     0.039 A 
HETATM   19  C   UNL     1     -40.213  52.451 -53.213  1.00  0.00     0.068 A 
HETATM   20  C   UNL     1     -40.656  53.447 -52.345  1.00  0.00     0.039 A 
HETATM   21  C   UNL     1     -41.062  54.690 -52.849  1.00  0.00     0.032 A 
BRANCH  19  22
HETATM   22  O   UNL     1     -39.792  51.200 -52.860  1.00  0.00    -0.356 OA
HETATM   23  C   UNL     1     -39.556  50.276 -53.914  1.00  0.00     0.210 C 
ENDBRANCH  19  22
ENDBRANCH  13  16
ENDBRANCH  10  12
BRANCH   9  24
HETATM   24  C   UNL     1     -43.122  57.522 -57.899  1.00  0.00    -0.006 A 
HETATM   25  C   UNL     1     -44.503  57.646 -58.141  1.00  0.00     0.044 A 
HETATM   26 CL   UNL     1     -45.522  58.692 -57.220  1.00  0.00    -0.084 Cl
HETATM   27  C   UNL     1     -45.127  56.889 -59.141  1.00  0.00     0.048 A 
HETATM   28  C   UNL     1     -44.384  55.992 -59.900  1.00  0.00     0.035 A 
HETATM   29 CL   UNL     1     -45.157  55.064 -61.124  1.00  0.00    -0.084 Cl
HETATM   30  C   UNL     1     -43.022  55.836 -59.671  1.00  0.00     0.024 A 
HETATM   31  C   UNL     1     -42.397  56.596 -58.679  1.00  0.00     0.013 A 
ENDBRANCH   9  24
TORSDOF 4
ENDMDL
MODEL 5
REMARK VINA RESULT:      -7.4      3.608      5.069
REMARK  4 active torsions:
REMARK  status: ('A' for Active; 'I' for Inactive)
REMARK    1  A    between atoms: C_9  and  C_10 
REMARK    2  A    between atoms: C_18  and  C_19 
REMARK       I    between atoms: C_19  and  N_20 
REMARK    3  A    between atoms: N_20  and  C_21 
REMARK    4  A    between atoms: C_24  and  O_25 
ROOT
HETATM    1  C   UNL     1     -44.770  54.695 -60.484  1.00  0.00     0.070 C 
HETATM    2  C   UNL     1     -45.043  56.121 -60.078  1.00  0.00     0.037 A 
HETATM    3  N   UNL     1     -46.096  56.742 -60.744  1.00  0.00    -0.192 N 
HETATM    4  C   UNL     1     -46.570  57.958 -60.411  1.00  0.00     0.725 A 
HETATM    5  N   UNL     1     -45.948  58.676 -59.426  1.00  0.00    -0.084 N 
HETATM    6  N   UNL     1     -46.602  59.829 -59.170  1.00  0.00    -0.149 NA
HETATM    7  C   UNL     1     -47.580  59.763 -60.081  1.00  0.00     0.275 A 
HETATM    8  N   UNL     1     -47.598  58.634 -60.859  1.00  0.00    -0.054 NA
HETATM    9  C   UNL     1     -44.798  58.186 -58.657  1.00  0.00     0.204 A 
HETATM   10  C   UNL     1     -44.386  56.786 -59.096  1.00  0.00     0.062 A 
HETATM   11  H   UNL     1     -46.601  56.204 -61.443  1.00  0.00     0.184 HD
ENDROOT
BRANCH  10  12
HETATM   12  C   UNL     1     -43.299  56.200 -58.270  1.00  0.00     0.256 C 
HETATM   13  N   UNL     1     -43.649  56.015 -56.952  1.00  0.00    -0.323 N 
HETATM   14  H   UNL     1     -44.585  56.291 -56.679  1.00  0.00     0.169 HD
HETATM   15  O   UNL     1     -42.251  55.889 -58.822  1.00  0.00    -0.267 OA
BRANCH  13  16
HETATM   16  C   UNL     1     -42.840  55.482 -55.926  1.00  0.00     0.035 A 
HETATM   17  C   UNL     1     -42.947  54.178 -55.446  1.00  0.00     0.032 A 
HETATM   18  C   UNL     1     -42.098  53.725 -54.430  1.00  0.00     0.039 A 
HETATM   19  C   UNL     1     -41.126  54.560 -53.883  1.00  0.00     0.068 A 
HETATM   20  C   UNL     1     -41.016  55.867 -54.355  1.00  0.00     0.039 A 
HETATM   21  C   UNL     1     -41.871  56.324 -55.367  1.00  0.00     0.032 A 
BRANCH  19  22
HETATM   22  O   UNL     1     -40.362  53.987 -52.905  1.00  0.00    -0.356 OA
HETATM   23  C   UNL     1     -40.305  52.567 -52.880  1.00  0.00     0.210 C 
ENDBRANCH  19  22
ENDBRANCH  13  16
ENDBRANCH  10  12
BRANCH   9  24
HETATM   24  C   UNL     1     -43.658  59.205 -58.657  1.00  0.00    -0.006 A 
HETATM   25  C   UNL     1     -43.110  59.789 -57.499  1.00  0.00     0.044 A 
HETATM   26 CL   UNL     1     -43.710  59.460 -55.914  1.00  0.00    -0.084 Cl
HETATM   27  C   UNL     1     -42.053  60.703 -57.588  1.00  0.00     0.048 A 
HETATM   28  C   UNL     1     -41.539  61.054 -58.832  1.00  0.00     0.035 A 
HETATM   29 CL   UNL     1     -40.242  62.179 -58.933  1.00  0.00    -0.084 Cl
HETATM   30  C   UNL     1     -42.072  60.506 -59.992  1.00  0.00     0.024 A 
HETATM   31  C   UNL     1     -43.122  59.589 -59.904  1.00  0.00     0.013 A 
ENDBRANCH   9  24
TORSDOF 4
ENDMDL
MODEL 6
REMARK VINA RESULT:      -7.1      2.866      4.928
REMARK  4 active torsions:
REMARK  status: ('A' for Active; 'I' for Inactive)
REMARK    1  A    between atoms: C_9  and  C_10 
REMARK    2  A    between atoms: C_18  and  C_19 
REMARK       I    between atoms: C_19  and  N_20 
REMARK    3  A    between atoms: N_20  and  C_21 
REMARK    4  A    between atoms: C_24  and  O_25 
ROOT
HETATM    1  C   UNL     1     -44.760  58.286 -51.790  1.00  0.00     0.070 C 
HETATM    2  C   UNL     1     -44.641  58.922 -53.151  1.00  0.00     0.037 A 
HETATM    3  N   UNL     1     -44.951  60.278 -53.208  1.00  0.00    -0.192 N 
HETATM    4  C   UNL     1     -44.765  61.037 -54.305  1.00  0.00     0.725 A 
HETATM    5  N   UNL     1     -44.326  60.451 -55.462  1.00  0.00    -0.084 N 
HETATM    6  N   UNL     1     -44.118  61.369 -56.430  1.00  0.00    -0.149 NA
HETATM    7  C   UNL     1     -44.506  62.483 -55.798  1.00  0.00     0.275 A 
HETATM    8  N   UNL     1     -44.907  62.324 -54.496  1.00  0.00    -0.054 NA
HETATM    9  C   UNL     1     -43.997  59.026 -55.584  1.00  0.00     0.204 A 
HETATM   10  C   UNL     1     -44.207  58.287 -54.268  1.00  0.00     0.062 A 
HETATM   11  H   UNL     1     -45.229  60.739 -52.346  1.00  0.00     0.184 HD
ENDROOT
BRANCH  10  12
HETATM   12  C   UNL     1     -43.778  56.865 -54.310  1.00  0.00     0.256 C 
HETATM   13  N   UNL     1     -42.449  56.683 -54.003  1.00  0.00    -0.323 N 
HETATM   14  H   UNL     1     -41.906  57.511 -53.790  1.00  0.00     0.169 HD
HETATM   15  O   UNL     1     -44.622  56.009 -54.543  1.00  0.00    -0.267 OA
BRANCH  13  16
HETATM   16  C   UNL     1     -41.748  55.459 -53.959  1.00  0.00     0.035 A 
HETATM   17  C   UNL     1     -41.858  54.535 -52.921  1.00  0.00     0.032 A 
HETATM   18  C   UNL     1     -41.133  53.338 -52.959  1.00  0.00     0.039 A 
HETATM   19  C   UNL     1     -40.297  53.040 -54.033  1.00  0.00     0.068 A 
HETATM   20  C   UNL     1     -40.179  53.962 -55.072  1.00  0.00     0.039 A 
HETATM   21  C   UNL     1     -40.898  55.164 -55.031  1.00  0.00     0.032 A 
BRANCH  19  22
HETATM   22  O   UNL     1     -39.657  51.836 -53.944  1.00  0.00    -0.356 OA
HETATM   23  C   UNL     1     -39.420  51.325 -52.638  1.00  0.00     0.210 C 
ENDBRANCH  19  22
ENDBRANCH  13  16
ENDBRANCH  10  12
BRANCH   9  24
HETATM   24  C   UNL     1     -44.710  58.394 -56.780  1.00  0.00    -0.006 A 
HETATM   25  C   UNL     1     -44.059  57.741 -57.844  1.00  0.00     0.044 A 
HETATM   26 CL   UNL     1     -42.340  57.624 -57.954  1.00  0.00    -0.084 Cl
HETATM   27  C   UNL     1     -44.791  57.173 -58.893  1.00  0.00     0.048 A 
HETATM   28  C   UNL     1     -46.179  57.262 -58.901  1.00  0.00     0.035 A 
HETATM   29 CL   UNL     1     -47.072  56.564 -60.195  1.00  0.00    -0.084 Cl
HETATM   30  C   UNL     1     -46.847  57.915 -57.873  1.00  0.00     0.024 A 
HETATM   31  C   UNL     1     -46.118  58.476 -56.821  1.00  0.00     0.013 A 
ENDBRANCH   9  24
TORSDOF 4
ENDMDL
MODEL 7
REMARK VINA RESULT:      -6.8      2.821      4.379
REMARK  4 active torsions:
REMARK  status: ('A' for Active; 'I' for Inactive)
REMARK    1  A    between atoms: C_9  and  C_10 
REMARK    2  A    between atoms: C_18  and  C_19 
REMARK       I    between atoms: C_19  and  N_20 
REMARK    3  A    between atoms: N_20  and  C_21 
REMARK    4  A    between atoms: C_24  and  O_25 
ROOT
HETATM    1  C   UNL     1     -45.119  58.406 -51.561  1.00  0.00     0.070 C 
HETATM    2  C   UNL     1     -44.898  59.118 -52.871  1.00  0.00     0.037 A 
HETATM    3  N   UNL     1     -45.825  60.111 -53.177  1.00  0.00    -0.192 N 
HETATM    4  C   UNL     1     -45.702  60.942 -54.229  1.00  0.00     0.725 A 
HETATM    5  N   UNL     1     -44.665  60.769 -55.106  1.00  0.00    -0.084 N 
HETATM    6  N   UNL     1     -44.651  61.736 -56.049  1.00  0.00    -0.149 NA
HETATM    7  C   UNL     1     -45.746  62.426 -55.707  1.00  0.00     0.275 A 
HETATM    8  N   UNL     1     -46.416  61.975 -54.599  1.00  0.00    -0.054 NA
HETATM    9  C   UNL     1     -43.627  59.743 -54.954  1.00  0.00     0.204 A 
HETATM   10  C   UNL     1     -43.852  58.898 -53.706  1.00  0.00     0.062 A 
HETATM   11  H   UNL     1     -46.572  60.286 -52.510  1.00  0.00     0.184 HD
ENDROOT
BRANCH  10  12
HETATM   12  C   UNL     1     -42.764  57.920 -53.445  1.00  0.00     0.256 C 
HETATM   13  N   UNL     1     -43.124  56.616 -53.700  1.00  0.00    -0.323 N 
HETATM   14  H   UNL     1     -44.069  56.453 -54.026  1.00  0.00     0.169 HD
HETATM   15  O   UNL     1     -41.669  58.346 -53.100  1.00  0.00    -0.267 OA
BRANCH  13  16
HETATM   16  C   UNL     1     -42.318  55.469 -53.549  1.00  0.00     0.035 A 
HETATM   17  C   UNL     1     -42.202  54.748 -52.362  1.00  0.00     0.032 A 
HETATM   18  C   UNL     1     -41.385  53.612 -52.299  1.00  0.00     0.039 A 
HETATM   19  C   UNL     1     -40.680  53.174 -53.419  1.00  0.00     0.068 A 
HETATM   20  C   UNL     1     -40.789  53.892 -54.608  1.00  0.00     0.039 A 
HETATM   21  C   UNL     1     -41.599  55.034 -54.669  1.00  0.00     0.032 A 
BRANCH  19  22
HETATM   22  O   UNL     1     -39.929  52.050 -53.219  1.00  0.00    -0.356 OA
HETATM   23  C   UNL     1     -40.032  51.022 -54.195  1.00  0.00     0.210 C 
ENDBRANCH  19  22
ENDBRANCH  13  16
ENDBRANCH  10  12
BRANCH   9  24
HETATM   24  C   UNL     1     -43.458  58.931 -56.239  1.00  0.00    -0.006 A 
HETATM   25  C   UNL     1     -44.458  58.119 -56.807  1.00  0.00     0.044 A 
HETATM   26 CL   UNL     1     -46.006  57.895 -56.074  1.00  0.00    -0.084 Cl
HETATM   27  C   UNL     1     -44.225  57.422 -57.998  1.00  0.00     0.048 A 
HETATM   28  C   UNL     1     -42.990  57.515 -58.629  1.00  0.00     0.035 A 
HETATM   29 CL   UNL     1     -42.710  56.653 -60.091  1.00  0.00    -0.084 Cl
HETATM   30  C   UNL     1     -41.979  58.295 -58.082  1.00  0.00     0.024 A 
HETATM   31  C   UNL     1     -42.212  58.998 -56.897  1.00  0.00     0.013 A 
ENDBRANCH   9  24
TORSDOF 4
ENDMDL
MODEL 8
REMARK VINA RESULT:      -6.8      3.216      6.851
REMARK  4 active torsions:
REMARK  status: ('A' for Active; 'I' for Inactive)
REMARK    1  A    between atoms: C_9  and  C_10 
REMARK    2  A    between atoms: C_18  and  C_19 
REMARK       I    between atoms: C_19  and  N_20 
REMARK    3  A    between atoms: N_20  and  C_21 
REMARK    4  A    between atoms: C_24  and  O_25 
ROOT
HETATM    1  C   UNL     1     -43.236  53.746 -55.458  1.00  0.00     0.070 C 
HETATM    2  C   UNL     1     -42.810  54.619 -54.306  1.00  0.00     0.037 A 
HETATM    3  N   UNL     1     -42.344  53.943 -53.182  1.00  0.00    -0.192 N 
HETATM    4  C   UNL     1     -41.791  54.560 -52.120  1.00  0.00     0.725 A 
HETATM    5  N   UNL     1     -41.748  55.927 -52.084  1.00  0.00    -0.084 N 
HETATM    6  N   UNL     1     -41.090  56.370 -50.991  1.00  0.00    -0.149 NA
HETATM    7  C   UNL     1     -40.813  55.209 -50.386  1.00  0.00     0.275 A 
HETATM    8  N   UNL     1     -41.222  54.078 -51.045  1.00  0.00    -0.054 NA
HETATM    9  C   UNL     1     -42.236  56.791 -53.166  1.00  0.00     0.204 A 
HETATM   10  C   UNL     1     -42.797  55.975 -54.325  1.00  0.00     0.062 A 
HETATM   11  H   UNL     1     -42.322  52.927 -53.214  1.00  0.00     0.184 HD
ENDROOT
BRANCH  10  12
HETATM   12  C   UNL     1     -43.198  56.801 -55.493  1.00  0.00     0.256 C 
HETATM   13  N   UNL     1     -42.186  56.991 -56.406  1.00  0.00    -0.323 N 
HETATM   14  H   UNL     1     -41.290  56.566 -56.198  1.00  0.00     0.169 HD
HETATM   15  O   UNL     1     -44.362  57.175 -55.570  1.00  0.00    -0.267 OA
BRANCH  13  16
HETATM   16  C   UNL     1     -42.256  57.724 -57.610  1.00  0.00     0.035 A 
HETATM   17  C   UNL     1     -42.486  57.151 -58.859  1.00  0.00     0.032 A 
HETATM   18  C   UNL     1     -42.549  57.952 -60.006  1.00  0.00     0.039 A 
HETATM   19  C   UNL     1     -42.392  59.335 -59.923  1.00  0.00     0.068 A 
HETATM   20  C   UNL     1     -42.158  59.914 -58.677  1.00  0.00     0.039 A 
HETATM   21  C   UNL     1     -42.086  59.111 -57.530  1.00  0.00     0.032 A 
BRANCH  19  22
HETATM   22  O   UNL     1     -42.485  59.994 -61.116  1.00  0.00    -0.356 OA
HETATM   23  C   UNL     1     -43.789  60.340 -61.564  1.00  0.00     0.210 C 
ENDBRANCH  19  22
ENDBRANCH  13  16
ENDBRANCH  10  12
BRANCH   9  24
HETATM   24  C   UNL     1     -43.190  57.860 -52.632  1.00  0.00    -0.006 A 
HETATM   25  C   UNL     1     -43.054  59.241 -52.869  1.00  0.00     0.044 A 
HETATM   26 CL   UNL     1     -41.735  59.909 -53.761  1.00  0.00    -0.084 Cl
HETATM   27  C   UNL     1     -43.985  60.153 -52.356  1.00  0.00     0.048 A 
HETATM   28  C   UNL     1     -45.053  59.699 -51.590  1.00  0.00     0.035 A 
HETATM   29 CL   UNL     1     -46.192  60.825 -50.961  1.00  0.00    -0.084 Cl
HETATM   30  C   UNL     1     -45.203  58.343 -51.326  1.00  0.00     0.024 A 
HETATM   31  C   UNL     1     -44.279  57.432 -51.844  1.00  0.00     0.013 A 
ENDBRANCH   9  24
TORSDOF 4
ENDMDL
MODEL 9
REMARK VINA RESULT:      -6.7      3.151      6.152
REMARK  4 active torsions:
REMARK  status: ('A' for Active; 'I' for Inactive)
REMARK    1  A    between atoms: C_9  and  C_10 
REMARK    2  A    between atoms: C_18  and  C_19 
REMARK       I    between atoms: C_19  and  N_20 
REMARK    3  A    between atoms: N_20  and  C_21 
REMARK    4  A    between atoms: C_24  and  O_25 
ROOT
HETATM    1  C   UNL     1     -43.180  61.819 -54.550  1.00  0.00     0.070 C 
HETATM    2  C   UNL     1     -43.624  60.751 -53.583  1.00  0.00     0.037 A 
HETATM    3  N   UNL     1     -44.110  61.211 -52.362  1.00  0.00    -0.192 N 
HETATM    4  C   UNL     1     -44.679  60.411 -51.441  1.00  0.00     0.725 A 
HETATM    5  N   UNL     1     -44.719  59.060 -51.656  1.00  0.00    -0.084 N 
HETATM    6  N   UNL     1     -45.394  58.426 -50.673  1.00  0.00    -0.149 NA
HETATM    7  C   UNL     1     -45.684  59.457 -49.871  1.00  0.00     0.275 A 
HETATM    8  N   UNL     1     -45.266  60.689 -50.305  1.00  0.00    -0.054 NA
HETATM    9  C   UNL     1     -44.212  58.408 -52.868  1.00  0.00     0.204 A 
HETATM   10  C   UNL     1     -43.634  59.421 -53.849  1.00  0.00     0.062 A 
HETATM   11  H   UNL     1     -44.133  62.216 -52.209  1.00  0.00     0.184 HD
ENDROOT
BRANCH  10  12
HETATM   12  C   UNL     1     -43.211  58.822 -55.142  1.00  0.00     0.256 C 
HETATM   13  N   UNL     1     -44.249  58.271 -55.859  1.00  0.00    -0.323 N 
HETATM   14  H   UNL     1     -45.174  58.321 -55.446  1.00  0.00     0.169 HD
HETATM   15  O   UNL     1     -42.036  58.920 -55.473  1.00  0.00    -0.267 OA
BRANCH  13  16
HETATM   16  C   UNL     1     -44.169  57.632 -57.114  1.00  0.00     0.035 A 
HETATM   17  C   UNL     1     -44.845  58.065 -58.254  1.00  0.00     0.032 A 
HETATM   18  C   UNL     1     -44.704  57.377 -59.465  1.00  0.00     0.039 A 
HETATM   19  C   UNL     1     -43.882  56.256 -59.560  1.00  0.00     0.068 A 
HETATM   20  C   UNL     1     -43.206  55.815 -58.424  1.00  0.00     0.039 A 
HETATM   21  C   UNL     1     -43.353  56.498 -57.209  1.00  0.00     0.032 A 
BRANCH  19  22
HETATM   22  O   UNL     1     -43.830  55.688 -60.802  1.00  0.00    -0.356 OA
HETATM   23  C   UNL     1     -45.008  55.041 -61.266  1.00  0.00     0.210 C 
ENDBRANCH  19  22
ENDBRANCH  13  16
ENDBRANCH  10  12
BRANCH   9  24
HETATM   24  C   UNL     1     -43.264  57.258 -52.523  1.00  0.00    -0.006 A 
HETATM   25  C   UNL     1     -42.064  57.402 -51.803  1.00  0.00     0.044 A 
HETATM   26 CL   UNL     1     -41.479  58.933 -51.260  1.00  0.00    -0.084 Cl
HETATM   27  C   UNL     1     -41.262  56.291 -51.515  1.00  0.00     0.048 A 
HETATM   28  C   UNL     1     -41.642  55.027 -51.954  1.00  0.00     0.035 A 
HETATM   29 CL   UNL     1     -40.650  53.666 -51.598  1.00  0.00    -0.084 Cl
HETATM   30  C   UNL     1     -42.812  54.858 -52.682  1.00  0.00     0.024 A 
HETATM   31  C   UNL     1     -43.617  55.964 -52.964  1.00  0.00     0.013 A 
ENDBRANCH   9  24
TORSDOF 4
ENDMDL
MODEL 10
REMARK VINA RESULT:      -6.6      2.256      2.736
REMARK  4 active torsions:
REMARK  status: ('A' for Active; 'I' for Inactive)
REMARK    1  A    between atoms: C_9  and  C_10 
REMARK    2  A    between atoms: C_18  and  C_19 
REMARK       I    between atoms: C_19  and  N_20 
REMARK    3  A    between atoms: N_20  and  C_21 
REMARK    4  A    between atoms: C_24  and  O_25 
ROOT
HETATM    1  C   UNL     1     -42.532  55.489 -57.159  1.00  0.00     0.070 C 
HETATM    2  C   UNL     1     -43.324  56.687 -56.702  1.00  0.00     0.037 A 
HETATM    3  N   UNL     1     -43.747  57.547 -57.711  1.00  0.00    -0.192 N 
HETATM    4  C   UNL     1     -44.581  58.584 -57.503  1.00  0.00     0.725 A 
HETATM    5  N   UNL     1     -44.983  58.878 -56.228  1.00  0.00    -0.084 N 
HETATM    6  N   UNL     1     -45.875  59.891 -56.215  1.00  0.00    -0.149 NA
HETATM    7  C   UNL     1     -45.922  60.193 -57.518  1.00  0.00     0.275 A 
HETATM    8  N   UNL     1     -45.147  59.416 -58.340  1.00  0.00    -0.054 NA
HETATM    9  C   UNL     1     -44.593  58.100 -55.046  1.00  0.00     0.204 A 
HETATM   10  C   UNL     1     -43.687  56.932 -55.418  1.00  0.00     0.062 A 
HETATM   11  H   UNL     1     -43.500  57.313 -58.669  1.00  0.00     0.184 HD
ENDROOT
BRANCH  10  12
HETATM   12  C   UNL     1     -43.358  56.047 -54.271  1.00  0.00     0.256 C 
HETATM   13  N   UNL     1     -42.167  56.361 -53.657  1.00  0.00    -0.323 N 
HETATM   14  H   UNL     1     -41.643  57.141 -54.037  1.00  0.00     0.169 HD
HETATM   15  O   UNL     1     -44.169  55.188 -53.947  1.00  0.00    -0.267 OA
BRANCH  13  16
HETATM   16  C   UNL     1     -41.586  55.710 -52.549  1.00  0.00     0.035 A 
HETATM   17  C   UNL     1     -41.512  56.261 -51.271  1.00  0.00     0.032 A 
HETATM   18  C   UNL     1     -40.925  55.542 -50.222  1.00  0.00     0.039 A 
HETATM   19  C   UNL     1     -40.412  54.263 -50.430  1.00  0.00     0.068 A 
HETATM   20  C   UNL     1     -40.479  53.707 -51.706  1.00  0.00     0.039 A 
HETATM   21  C   UNL     1     -41.059  54.429 -52.758  1.00  0.00     0.032 A 
BRANCH  19  22
HETATM   22  O   UNL     1     -39.875  53.674 -49.319  1.00  0.00    -0.356 OA
HETATM   23  C   UNL     1     -40.377  54.097 -48.058  1.00  0.00     0.210 C 
ENDBRANCH  19  22
ENDBRANCH  13  16
ENDBRANCH  10  12
BRANCH   9  24
HETATM   24  C   UNL     1     -44.032  59.005 -53.948  1.00  0.00    -0.006 A 
HETATM   25  C   UNL     1     -42.895  59.823 -54.092  1.00  0.00     0.044 A 
HETATM   26 CL   UNL     1     -41.948  59.860 -55.535  1.00  0.00    -0.084 Cl
HETATM   27  C   UNL     1     -42.459  60.635 -53.038  1.00  0.00     0.048 A 
HETATM   28  C   UNL     1     -43.142  60.631 -51.827  1.00  0.00     0.035 A 
HETATM   29 CL   UNL     1     -42.598  61.630 -50.536  1.00  0.00    -0.084 Cl
HETATM   30  C   UNL     1     -44.256  59.820 -51.651  1.00  0.00     0.024 A 
HETATM   31  C   UNL     1     -44.697  59.015 -52.704  1.00  0.00     0.013 A 
ENDBRANCH   9  24
TORSDOF 4
ENDMDL
