MODEL 1
REMARK VINA RESULT:      -8.6      0.000      0.000
REMARK  9 active torsions:
REMARK  status: ('A' for Active; 'I' for Inactive)
REMARK    1  A    between atoms: C_2  and  N_3 
REMARK    2  A    between atoms: C_2  and  C_23 
REMARK       I    between atoms: N_3  and  C_4 
REMARK       I    between atoms: C_4  and  N_5 
REMARK    3  A    between atoms: N_5  and  C_6 
REMARK    4  A    between atoms: C_6  and  C_7 
REMARK    5  A    between atoms: C_7  and  N_8 
REMARK    6  A    between atoms: C_7  and  C_14 
REMARK    7  A    between atoms: C_16  and  O_17 
REMARK    8  A    between atoms: C_23  and  C_24 
REMARK    9  A    between atoms: C_27  and  O_28 
ROOT
HETATM    1  N   UNL     1     -43.355  54.844 -54.005  1.00  0.00    -0.339 N 
HETATM    2  C   UNL     1     -43.003  56.007 -54.619  1.00  0.00     0.316 C 
HETATM    3  N   UNL     1     -43.724  56.239 -55.751  1.00  0.00    -0.341 N 
HETATM    4  O   UNL     1     -42.153  56.799 -54.233  1.00  0.00    -0.248 OA
HETATM    5  H   UNL     1     -43.891  54.203 -54.575  1.00  0.00     0.164 HD
HETATM    6  H   UNL     1     -44.556  55.680 -55.906  1.00  0.00     0.164 HD
ENDROOT
BRANCH   3   7
HETATM    7  C   UNL     1     -43.394  57.281 -56.715  1.00  0.00     0.162 C 
BRANCH   7   8
HETATM    8  C   UNL     1     -42.812  56.813 -58.086  1.00  0.00     0.238 C 
BRANCH   8   9
HETATM    9  N   UNL     1     -41.929  57.882 -58.719  1.00  0.00    -0.061 N 
HETATM   10  H   UNL     1     -40.953  57.646 -58.446  1.00  0.00     0.280 HD
HETATM   11  C   UNL     1     -42.209  59.318 -58.319  1.00  0.00     0.236 C 
HETATM   12  C   UNL     1     -42.646  60.002 -59.599  1.00  0.00     0.029 C 
HETATM   13  C   UNL     1     -41.821  59.303 -60.656  1.00  0.00     0.029 C 
HETATM   14  C   UNL     1     -41.912  57.848 -60.243  1.00  0.00     0.236 C 
ENDBRANCH   8   9
BRANCH   8  15
HETATM   15  C   UNL     1     -43.925  56.263 -58.966  1.00  0.00    -0.023 A 
HETATM   16  C   UNL     1     -45.053  57.072 -59.218  1.00  0.00     0.046 A 
HETATM   17  C   UNL     1     -46.096  56.617 -60.027  1.00  0.00     0.068 A 
HETATM   18  C   UNL     1     -46.022  55.338 -60.576  1.00  0.00     0.037 A 
HETATM   19  C   UNL     1     -44.909  54.529 -60.349  1.00  0.00     0.003 A 
HETATM   20  C   UNL     1     -43.859  54.991 -59.556  1.00  0.00     0.009 A 
BRANCH  17  21
HETATM   21  O   UNL     1     -47.229  57.313 -60.337  1.00  0.00    -0.356 OA
HETATM   22  C   UNL     1     -47.896  56.970 -61.547  1.00  0.00     0.210 C 
ENDBRANCH  17  21
ENDBRANCH   8  15
ENDBRANCH   7   8
ENDBRANCH   3   7
BRANCH   1  23
HETATM   23  C   UNL     1     -42.520  54.158 -53.010  1.00  0.00     0.086 C 
HETATM   24  C   UNL     1     -42.568  54.798 -51.624  1.00  0.00     0.032 C 
BRANCH  23  25
HETATM   25  C   UNL     1     -41.062  54.001 -53.501  1.00  0.00     0.063 C 
BRANCH  25  26
HETATM   26  C   UNL     1     -40.531  52.598 -53.294  1.00  0.00    -0.056 A 
HETATM   27  C   UNL     1     -40.604  51.644 -54.320  1.00  0.00     0.010 A 
HETATM   28  C   UNL     1     -40.142  50.342 -54.114  1.00  0.00     0.037 A 
HETATM   29  C   UNL     1     -39.610  49.992 -52.877  1.00  0.00     0.065 A 
HETATM   30  C   UNL     1     -39.528  50.922 -51.849  1.00  0.00     0.037 A 
HETATM   31  C   UNL     1     -39.984  52.225 -52.057  1.00  0.00     0.010 A 
BRANCH  29  32
HETATM   32  O   UNL     1     -39.153  48.732 -52.627  1.00  0.00    -0.361 OA
HETATM   33  H   UNL     1     -39.449  48.138 -53.337  1.00  0.00     0.217 HD
ENDBRANCH  29  32
ENDBRANCH  25  26
ENDBRANCH  23  25
ENDBRANCH   1  23
TORSDOF 9
ENDMDL
MODEL 2
REMARK VINA RESULT:      -8.5      1.549      3.412
REMARK  9 active torsions:
REMARK  status: ('A' for Active; 'I' for Inactive)
REMARK    1  A    between atoms: C_2  and  N_3 
REMARK    2  A    between atoms: C_2  and  C_23 
REMARK       I    between atoms: N_3  and  C_4 
REMARK       I    between atoms: C_4  and  N_5 
REMARK    3  A    between atoms: N_5  and  C_6 
REMARK    4  A    between atoms: C_6  and  C_7 
REMARK    5  A    between atoms: C_7  and  N_8 
REMARK    6  A    between atoms: C_7  and  C_14 
REMARK    7  A    between atoms: C_16  and  O_17 
REMARK    8  A    between atoms: C_23  and  C_24 
REMARK    9  A    between atoms: C_27  and  O_28 
ROOT
HETATM    1  N   UNL     1     -43.057  54.417 -54.317  1.00  0.00    -0.339 N 
HETATM    2  C   UNL     1     -42.776  55.382 -55.235  1.00  0.00     0.316 C 
HETATM    3  N   UNL     1     -43.275  55.089 -56.469  1.00  0.00    -0.341 N 
HETATM    4  O   UNL     1     -42.164  56.421 -55.027  1.00  0.00    -0.248 OA
HETATM    5  H   UNL     1     -43.353  53.530 -54.703  1.00  0.00     0.164 HD
HETATM    6  H   UNL     1     -43.955  54.341 -56.540  1.00  0.00     0.164 HD
ENDROOT
BRANCH   3   7
HETATM    7  C   UNL     1     -42.923  55.830 -57.674  1.00  0.00     0.162 C 
BRANCH   7   8
HETATM    8  C   UNL     1     -44.014  56.782 -58.258  1.00  0.00     0.238 C 
BRANCH   8   9
HETATM    9  N   UNL     1     -45.122  56.007 -58.962  1.00  0.00    -0.061 N 
HETATM   10  H   UNL     1     -45.746  55.652 -58.209  1.00  0.00     0.280 HD
HETATM   11  C   UNL     1     -44.689  54.836 -59.823  1.00  0.00     0.236 C 
HETATM   12  C   UNL     1     -45.101  55.213 -61.232  1.00  0.00     0.029 C 
HETATM   13  C   UNL     1     -46.375  55.997 -61.014  1.00  0.00     0.029 C 
HETATM   14  C   UNL     1     -46.030  56.873 -59.827  1.00  0.00     0.236 C 
ENDBRANCH   8   9
BRANCH   8  15
HETATM   15  C   UNL     1     -43.360  57.891 -59.069  1.00  0.00    -0.023 A 
HETATM   16  C   UNL     1     -43.677  59.232 -58.765  1.00  0.00     0.046 A 
HETATM   17  C   UNL     1     -43.097  60.285 -59.473  1.00  0.00     0.068 A 
HETATM   18  C   UNL     1     -42.203  60.000 -60.505  1.00  0.00     0.037 A 
HETATM   19  C   UNL     1     -41.867  58.681 -60.810  1.00  0.00     0.003 A 
HETATM   20  C   UNL     1     -42.434  57.630 -60.091  1.00  0.00     0.009 A 
BRANCH  17  21
HETATM   21  O   UNL     1     -43.329  61.614 -59.265  1.00  0.00    -0.356 OA
HETATM   22  C   UNL     1     -42.376  62.535 -59.782  1.00  0.00     0.210 C 
ENDBRANCH  17  21
ENDBRANCH   8  15
ENDBRANCH   7   8
ENDBRANCH   3   7
BRANCH   1  23
HETATM   23  C   UNL     1     -42.348  54.271 -53.039  1.00  0.00     0.086 C 
HETATM   24  C   UNL     1     -42.652  55.387 -52.040  1.00  0.00     0.032 C 
BRANCH  23  25
HETATM   25  C   UNL     1     -40.824  54.112 -53.247  1.00  0.00     0.063 C 
BRANCH  25  26
HETATM   26  C   UNL     1     -40.372  52.672 -53.114  1.00  0.00    -0.056 A 
HETATM   27  C   UNL     1     -40.436  51.796 -54.208  1.00  0.00     0.010 A 
HETATM   28  C   UNL     1     -40.047  50.461 -54.072  1.00  0.00     0.037 A 
HETATM   29  C   UNL     1     -39.597  50.001 -52.840  1.00  0.00     0.065 A 
HETATM   30  C   UNL     1     -39.524  50.853 -51.746  1.00  0.00     0.037 A 
HETATM   31  C   UNL     1     -39.907  52.189 -51.882  1.00  0.00     0.010 A 
BRANCH  29  32
HETATM   32  O   UNL     1     -39.213  48.706 -52.658  1.00  0.00    -0.361 OA
HETATM   33  H   UNL     1     -39.826  48.275 -52.039  1.00  0.00     0.217 HD
ENDBRANCH  29  32
ENDBRANCH  25  26
ENDBRANCH  23  25
ENDBRANCH   1  23
TORSDOF 9
ENDMDL
MODEL 3
REMARK VINA RESULT:      -8.2      1.773      3.945
REMARK  9 active torsions:
REMARK  status: ('A' for Active; 'I' for Inactive)
REMARK    1  A    between atoms: C_2  and  N_3 
REMARK    2  A    between atoms: C_2  and  C_23 
REMARK       I    between atoms: N_3  and  C_4 
REMARK       I    between atoms: C_4  and  N_5 
REMARK    3  A    between atoms: N_5  and  C_6 
REMARK    4  A    between atoms: C_6  and  C_7 
REMARK    5  A    between atoms: C_7  and  N_8 
REMARK    6  A    between atoms: C_7  and  C_14 
REMARK    7  A    between atoms: C_16  and  O_17 
REMARK    8  A    between atoms: C_23  and  C_24 
REMARK    9  A    between atoms: C_27  and  O_28 
ROOT
HETATM    1  N   UNL     1     -43.104  54.497 -54.495  1.00  0.00    -0.339 N 
HETATM    2  C   UNL     1     -42.697  55.405 -55.423  1.00  0.00     0.316 C 
HETATM    3  N   UNL     1     -43.351  55.268 -56.610  1.00  0.00    -0.341 N 
HETATM    4  O   UNL     1     -41.854  56.278 -55.258  1.00  0.00    -0.248 OA
HETATM    5  H   UNL     1     -43.621  53.709 -54.863  1.00  0.00     0.164 HD
HETATM    6  H   UNL     1     -44.184  54.690 -56.628  1.00  0.00     0.164 HD
ENDROOT
BRANCH   3   7
HETATM    7  C   UNL     1     -42.949  55.951 -57.833  1.00  0.00     0.162 C 
BRANCH   7   8
HETATM    8  C   UNL     1     -43.835  57.152 -58.292  1.00  0.00     0.238 C 
BRANCH   8   9
HETATM    9  N   UNL     1     -44.342  56.967 -59.718  1.00  0.00    -0.061 N 
HETATM   10  H   UNL     1     -43.754  57.585 -60.313  1.00  0.00     0.280 HD
HETATM   11  C   UNL     1     -45.801  57.301 -59.968  1.00  0.00     0.236 C 
HETATM   12  C   UNL     1     -46.437  55.990 -60.382  1.00  0.00     0.029 C 
HETATM   13  C   UNL     1     -45.328  55.300 -61.144  1.00  0.00     0.029 C 
HETATM   14  C   UNL     1     -44.112  55.570 -60.281  1.00  0.00     0.236 C 
ENDBRANCH   8   9
BRANCH   8  15
HETATM   15  C   UNL     1     -43.124  58.467 -58.004  1.00  0.00    -0.023 A 
HETATM   16  C   UNL     1     -43.201  59.010 -56.704  1.00  0.00     0.046 A 
HETATM   17  C   UNL     1     -42.558  60.207 -56.388  1.00  0.00     0.068 A 
HETATM   18  C   UNL     1     -41.845  60.879 -57.381  1.00  0.00     0.037 A 
HETATM   19  C   UNL     1     -41.746  60.350 -58.667  1.00  0.00     0.003 A 
HETATM   20  C   UNL     1     -42.374  59.145 -58.978  1.00  0.00     0.009 A 
BRANCH  17  21
HETATM   21  O   UNL     1     -42.564  60.821 -55.168  1.00  0.00    -0.356 OA
HETATM   22  C   UNL     1     -42.014  60.102 -54.071  1.00  0.00     0.210 C 
ENDBRANCH  17  21
ENDBRANCH   8  15
ENDBRANCH   7   8
ENDBRANCH   3   7
BRANCH   1  23
HETATM   23  C   UNL     1     -42.338  54.160 -53.287  1.00  0.00     0.086 C 
HETATM   24  C   UNL     1     -42.530  55.153 -52.143  1.00  0.00     0.032 C 
BRANCH  23  25
HETATM   25  C   UNL     1     -40.837  53.958 -53.603  1.00  0.00     0.063 C 
BRANCH  25  26
HETATM   26  C   UNL     1     -40.379  52.538 -53.341  1.00  0.00    -0.056 A 
HETATM   27  C   UNL     1     -40.455  51.562 -54.346  1.00  0.00     0.010 A 
HETATM   28  C   UNL     1     -40.061  50.247 -54.090  1.00  0.00     0.037 A 
HETATM   29  C   UNL     1     -39.593  49.906 -52.826  1.00  0.00     0.065 A 
HETATM   30  C   UNL     1     -39.508  50.858 -51.818  1.00  0.00     0.037 A 
HETATM   31  C   UNL     1     -39.896  52.173 -52.075  1.00  0.00     0.010 A 
BRANCH  29  32
HETATM   32  O   UNL     1     -39.203  48.634 -52.527  1.00  0.00    -0.361 OA
HETATM   33  H   UNL     1     -38.425  48.666 -51.947  1.00  0.00     0.217 HD
ENDBRANCH  29  32
ENDBRANCH  25  26
ENDBRANCH  23  25
ENDBRANCH   1  23
TORSDOF 9
ENDMDL
MODEL 4
REMARK VINA RESULT:      -8.2      2.162      3.222
REMARK  9 active torsions:
REMARK  status: ('A' for Active; 'I' for Inactive)
REMARK    1  A    between atoms: C_2  and  N_3 
REMARK    2  A    between atoms: C_2  and  C_23 
REMARK       I    between atoms: N_3  and  C_4 
REMARK       I    between atoms: C_4  and  N_5 
REMARK    3  A    between atoms: N_5  and  C_6 
REMARK    4  A    between atoms: C_6  and  C_7 
REMARK    5  A    between atoms: C_7  and  N_8 
REMARK    6  A    between atoms: C_7  and  C_14 
REMARK    7  A    between atoms: C_16  and  O_17 
REMARK    8  A    between atoms: C_23  and  C_24 
REMARK    9  A    between atoms: C_27  and  O_28 
ROOT
HETATM    1  N   UNL     1     -43.618  54.604 -52.754  1.00  0.00    -0.339 N 
HETATM    2  C   UNL     1     -43.621  55.892 -53.195  1.00  0.00     0.316 C 
HETATM    3  N   UNL     1     -44.222  56.027 -54.410  1.00  0.00    -0.341 N 
HETATM    4  O   UNL     1     -43.164  56.861 -52.601  1.00  0.00    -0.248 OA
HETATM    5  H   UNL     1     -43.813  53.908 -53.461  1.00  0.00     0.164 HD
HETATM    6  H   UNL     1     -44.775  55.250 -54.753  1.00  0.00     0.164 HD
ENDROOT
BRANCH   3   7
HETATM    7  C   UNL     1     -44.157  57.245 -55.208  1.00  0.00     0.162 C 
BRANCH   7   8
HETATM    8  C   UNL     1     -42.770  57.606 -55.827  1.00  0.00     0.238 C 
BRANCH   8   9
HETATM    9  N   UNL     1     -42.382  59.052 -55.537  1.00  0.00    -0.061 N 
HETATM   10  H   UNL     1     -41.891  59.393 -56.388  1.00  0.00     0.280 HD
HETATM   11  C   UNL     1     -41.485  59.285 -54.336  1.00  0.00     0.236 C 
HETATM   12  C   UNL     1     -42.318  60.117 -53.382  1.00  0.00     0.029 C 
HETATM   13  C   UNL     1     -43.143  60.976 -54.312  1.00  0.00     0.029 C 
HETATM   14  C   UNL     1     -43.570  59.993 -55.384  1.00  0.00     0.236 C 
ENDBRANCH   8   9
BRANCH   8  15
HETATM   15  C   UNL     1     -42.725  57.187 -57.289  1.00  0.00    -0.023 A 
HETATM   16  C   UNL     1     -42.179  58.080 -58.236  1.00  0.00     0.046 A 
HETATM   17  C   UNL     1     -42.106  57.738 -59.586  1.00  0.00     0.068 A 
HETATM   18  C   UNL     1     -42.596  56.500 -60.002  1.00  0.00     0.037 A 
HETATM   19  C   UNL     1     -43.125  55.599 -59.079  1.00  0.00     0.003 A 
HETATM   20  C   UNL     1     -43.182  55.934 -57.727  1.00  0.00     0.009 A 
BRANCH  17  21
HETATM   21  O   UNL     1     -41.599  58.521 -60.584  1.00  0.00    -0.356 OA
HETATM   22  C   UNL     1     -42.332  59.689 -60.935  1.00  0.00     0.210 C 
ENDBRANCH  17  21
ENDBRANCH   8  15
ENDBRANCH   7   8
ENDBRANCH   3   7
BRANCH   1  23
HETATM   23  C   UNL     1     -42.733  54.104 -51.694  1.00  0.00     0.086 C 
HETATM   24  C   UNL     1     -42.993  54.740 -50.329  1.00  0.00     0.032 C 
BRANCH  23  25
HETATM   25  C   UNL     1     -41.243  54.226 -52.090  1.00  0.00     0.063 C 
BRANCH  25  26
HETATM   26  C   UNL     1     -40.673  52.919 -52.600  1.00  0.00    -0.056 A 
HETATM   27  C   UNL     1     -40.883  52.514 -53.927  1.00  0.00     0.010 A 
HETATM   28  C   UNL     1     -40.383  51.293 -54.384  1.00  0.00     0.037 A 
HETATM   29  C   UNL     1     -39.675  50.473 -53.512  1.00  0.00     0.065 A 
HETATM   30  C   UNL     1     -39.455  50.857 -52.196  1.00  0.00     0.037 A 
HETATM   31  C   UNL     1     -39.949  52.079 -51.740  1.00  0.00     0.010 A 
BRANCH  29  32
HETATM   32  O   UNL     1     -39.173  49.270 -53.911  1.00  0.00    -0.361 OA
HETATM   33  H   UNL     1     -39.876  48.601 -53.871  1.00  0.00     0.217 HD
ENDBRANCH  29  32
ENDBRANCH  25  26
ENDBRANCH  23  25
ENDBRANCH   1  23
TORSDOF 9
ENDMDL
MODEL 5
REMARK VINA RESULT:      -8.0      2.698      4.382
REMARK  9 active torsions:
REMARK  status: ('A' for Active; 'I' for Inactive)
REMARK    1  A    between atoms: C_2  and  N_3 
REMARK    2  A    between atoms: C_2  and  C_23 
REMARK       I    between atoms: N_3  and  C_4 
REMARK       I    between atoms: C_4  and  N_5 
REMARK    3  A    between atoms: N_5  and  C_6 
REMARK    4  A    between atoms: C_6  and  C_7 
REMARK    5  A    between atoms: C_7  and  N_8 
REMARK    6  A    between atoms: C_7  and  C_14 
REMARK    7  A    between atoms: C_16  and  O_17 
REMARK    8  A    between atoms: C_23  and  C_24 
REMARK    9  A    between atoms: C_27  and  O_28 
ROOT
HETATM    1  N   UNL     1     -42.325  53.980 -50.684  1.00  0.00    -0.339 N 
HETATM    2  C   UNL     1     -42.459  55.273 -51.088  1.00  0.00     0.316 C 
HETATM    3  N   UNL     1     -43.488  55.443 -51.964  1.00  0.00    -0.341 N 
HETATM    4  O   UNL     1     -41.770  56.219 -50.725  1.00  0.00    -0.248 OA
HETATM    5  H   UNL     1     -42.810  53.300 -51.255  1.00  0.00     0.164 HD
HETATM    6  H   UNL     1     -44.159  54.689 -52.059  1.00  0.00     0.164 HD
ENDROOT
BRANCH   3   7
HETATM    7  C   UNL     1     -43.703  56.668 -52.724  1.00  0.00     0.162 C 
BRANCH   7   8
HETATM    8  C   UNL     1     -42.518  57.163 -53.611  1.00  0.00     0.238 C 
BRANCH   8   9
HETATM    9  N   UNL     1     -42.216  58.639 -53.379  1.00  0.00    -0.061 N 
HETATM   10  H   UNL     1     -42.364  59.110 -54.294  1.00  0.00     0.280 HD
HETATM   11  C   UNL     1     -40.823  58.977 -52.882  1.00  0.00     0.236 C 
HETATM   12  C   UNL     1     -41.034  59.587 -51.511  1.00  0.00     0.029 C 
HETATM   13  C   UNL     1     -42.347  60.321 -51.664  1.00  0.00     0.029 C 
HETATM   14  C   UNL     1     -43.194  59.330 -52.437  1.00  0.00     0.236 C 
ENDBRANCH   8   9
BRANCH   8  15
HETATM   15  C   UNL     1     -42.740  56.750 -55.059  1.00  0.00    -0.023 A 
HETATM   16  C   UNL     1     -43.083  57.742 -56.003  1.00  0.00     0.046 A 
HETATM   17  C   UNL     1     -43.288  57.415 -57.344  1.00  0.00     0.068 A 
HETATM   18  C   UNL     1     -43.166  56.085 -57.747  1.00  0.00     0.037 A 
HETATM   19  C   UNL     1     -42.814  55.094 -56.831  1.00  0.00     0.003 A 
HETATM   20  C   UNL     1     -42.592  55.424 -55.495  1.00  0.00     0.009 A 
BRANCH  17  21
HETATM   21  O   UNL     1     -43.622  58.289 -58.338  1.00  0.00    -0.356 OA
HETATM   22  C   UNL     1     -44.804  59.061 -58.162  1.00  0.00     0.210 C 
ENDBRANCH  17  21
ENDBRANCH   8  15
ENDBRANCH   7   8
ENDBRANCH   3   7
BRANCH   1  23
HETATM   23  C   UNL     1     -41.110  53.438 -50.062  1.00  0.00     0.086 C 
HETATM   24  C   UNL     1     -40.790  54.058 -48.702  1.00  0.00     0.032 C 
BRANCH  23  25
HETATM   25  C   UNL     1     -39.895  53.526 -51.013  1.00  0.00     0.063 C 
BRANCH  25  26
HETATM   26  C   UNL     1     -39.904  52.434 -52.063  1.00  0.00    -0.056 A 
HETATM   27  C   UNL     1     -40.305  52.707 -53.379  1.00  0.00     0.010 A 
HETATM   28  C   UNL     1     -40.342  51.690 -54.336  1.00  0.00     0.037 A 
HETATM   29  C   UNL     1     -39.981  50.397 -53.975  1.00  0.00     0.065 A 
HETATM   30  C   UNL     1     -39.579  50.106 -52.678  1.00  0.00     0.037 A 
HETATM   31  C   UNL     1     -39.536  51.124 -51.723  1.00  0.00     0.010 A 
BRANCH  29  32
HETATM   32  O   UNL     1     -40.008  49.371 -54.872  1.00  0.00    -0.361 OA
HETATM   33  H   UNL     1     -40.607  49.600 -55.602  1.00  0.00     0.217 HD
ENDBRANCH  29  32
ENDBRANCH  25  26
ENDBRANCH  23  25
ENDBRANCH   1  23
TORSDOF 9
ENDMDL
MODEL 6
REMARK VINA RESULT:      -7.9      5.403      7.663
REMARK  9 active torsions:
REMARK  status: ('A' for Active; 'I' for Inactive)
REMARK    1  A    between atoms: C_2  and  N_3 
REMARK    2  A    between atoms: C_2  and  C_23 
REMARK       I    between atoms: N_3  and  C_4 
REMARK       I    between atoms: C_4  and  N_5 
REMARK    3  A    between atoms: N_5  and  C_6 
REMARK    4  A    between atoms: C_6  and  C_7 
REMARK    5  A    between atoms: C_7  and  N_8 
REMARK    6  A    between atoms: C_7  and  C_14 
REMARK    7  A    between atoms: C_16  and  O_17 
REMARK    8  A    between atoms: C_23  and  C_24 
REMARK    9  A    between atoms: C_27  and  O_28 
ROOT
HETATM    1  N   UNL     1     -40.989  55.971 -50.555  1.00  0.00    -0.339 N 
HETATM    2  C   UNL     1     -41.161  57.178 -51.161  1.00  0.00     0.316 C 
HETATM    3  N   UNL     1     -41.269  58.200 -50.266  1.00  0.00    -0.341 N 
HETATM    4  O   UNL     1     -41.205  57.382 -52.368  1.00  0.00    -0.248 OA
HETATM    5  H   UNL     1     -41.216  55.949 -49.570  1.00  0.00     0.164 HD
HETATM    6  H   UNL     1     -41.005  58.018 -49.305  1.00  0.00     0.164 HD
ENDROOT
BRANCH   3   7
HETATM    7  C   UNL     1     -41.687  59.548 -50.632  1.00  0.00     0.162 C 
BRANCH   7   8
HETATM    8  C   UNL     1     -43.182  59.733 -51.041  1.00  0.00     0.238 C 
BRANCH   8   9
HETATM    9  N   UNL     1     -43.357  59.737 -52.556  1.00  0.00    -0.061 N 
HETATM   10  H   UNL     1     -43.307  58.741 -52.852  1.00  0.00     0.280 HD
HETATM   11  C   UNL     1     -42.341  60.530 -53.355  1.00  0.00     0.236 C 
HETATM   12  C   UNL     1     -43.141  61.630 -54.023  1.00  0.00     0.029 C 
HETATM   13  C   UNL     1     -44.469  60.963 -54.301  1.00  0.00     0.029 C 
HETATM   14  C   UNL     1     -44.734  60.199 -53.019  1.00  0.00     0.236 C 
ENDBRANCH   8   9
BRANCH   8  15
HETATM   15  C   UNL     1     -43.784  60.919 -50.300  1.00  0.00    -0.023 A 
HETATM   16  C   UNL     1     -44.985  60.732 -49.583  1.00  0.00     0.046 A 
HETATM   17  C   UNL     1     -45.570  61.785 -48.879  1.00  0.00     0.068 A 
HETATM   18  C   UNL     1     -44.963  63.041 -48.902  1.00  0.00     0.037 A 
HETATM   19  C   UNL     1     -43.769  63.240 -49.594  1.00  0.00     0.003 A 
HETATM   20  C   UNL     1     -43.174  62.183 -50.282  1.00  0.00     0.009 A 
BRANCH  17  21
HETATM   21  O   UNL     1     -46.725  61.718 -48.154  1.00  0.00    -0.356 OA
HETATM   22  C   UNL     1     -47.435  62.933 -47.940  1.00  0.00     0.210 C 
ENDBRANCH  17  21
ENDBRANCH   8  15
ENDBRANCH   7   8
ENDBRANCH   3   7
BRANCH   1  23
HETATM   23  C   UNL     1     -41.218  54.682 -51.220  1.00  0.00     0.086 C 
HETATM   24  C   UNL     1     -42.632  54.136 -51.027  1.00  0.00     0.032 C 
BRANCH  23  25
HETATM   25  C   UNL     1     -40.157  53.633 -50.813  1.00  0.00     0.063 C 
BRANCH  25  26
HETATM   26  C   UNL     1     -40.017  52.526 -51.837  1.00  0.00    -0.056 A 
HETATM   27  C   UNL     1     -40.223  52.780 -53.201  1.00  0.00     0.010 A 
HETATM   28  C   UNL     1     -40.123  51.749 -54.139  1.00  0.00     0.037 A 
HETATM   29  C   UNL     1     -39.822  50.461 -53.710  1.00  0.00     0.065 A 
HETATM   30  C   UNL     1     -39.613  50.190 -52.364  1.00  0.00     0.037 A 
HETATM   31  C   UNL     1     -39.706  51.221 -51.428  1.00  0.00     0.010 A 
BRANCH  29  32
HETATM   32  O   UNL     1     -39.721  49.422 -54.587  1.00  0.00    -0.361 OA
HETATM   33  H   UNL     1     -38.863  49.469 -55.041  1.00  0.00     0.217 HD
ENDBRANCH  29  32
ENDBRANCH  25  26
ENDBRANCH  23  25
ENDBRANCH   1  23
TORSDOF 9
ENDMDL
MODEL 7
REMARK VINA RESULT:      -7.9      2.421      8.988
REMARK  9 active torsions:
REMARK  status: ('A' for Active; 'I' for Inactive)
REMARK    1  A    between atoms: C_2  and  N_3 
REMARK    2  A    between atoms: C_2  and  C_23 
REMARK       I    between atoms: N_3  and  C_4 
REMARK       I    between atoms: C_4  and  N_5 
REMARK    3  A    between atoms: N_5  and  C_6 
REMARK    4  A    between atoms: C_6  and  C_7 
REMARK    5  A    between atoms: C_7  and  N_8 
REMARK    6  A    between atoms: C_7  and  C_14 
REMARK    7  A    between atoms: C_16  and  O_17 
REMARK    8  A    between atoms: C_23  and  C_24 
REMARK    9  A    between atoms: C_27  and  O_28 
ROOT
HETATM    1  N   UNL     1     -45.220  57.307 -55.791  1.00  0.00    -0.339 N 
HETATM    2  C   UNL     1     -44.109  56.681 -55.314  1.00  0.00     0.316 C 
HETATM    3  N   UNL     1     -44.386  55.848 -54.272  1.00  0.00    -0.341 N 
HETATM    4  O   UNL     1     -42.969  56.803 -55.744  1.00  0.00    -0.248 OA
HETATM    5  H   UNL     1     -46.024  57.281 -55.178  1.00  0.00     0.164 HD
HETATM    6  H   UNL     1     -45.357  55.611 -54.100  1.00  0.00     0.164 HD
ENDROOT
BRANCH   3   7
HETATM    7  C   UNL     1     -43.360  55.240 -53.434  1.00  0.00     0.162 C 
BRANCH   7   8
HETATM    8  C   UNL     1     -42.884  56.064 -52.196  1.00  0.00     0.238 C 
BRANCH   8   9
HETATM    9  N   UNL     1     -42.445  57.470 -52.589  1.00  0.00    -0.061 N 
HETATM   10  H   UNL     1     -43.014  57.726 -53.420  1.00  0.00     0.280 HD
HETATM   11  C   UNL     1     -40.979  57.652 -52.934  1.00  0.00     0.236 C 
HETATM   12  C   UNL     1     -40.444  58.601 -51.880  1.00  0.00     0.029 C 
HETATM   13  C   UNL     1     -41.623  59.507 -51.610  1.00  0.00     0.029 C 
HETATM   14  C   UNL     1     -42.785  58.536 -51.555  1.00  0.00     0.236 C 
ENDBRANCH   8   9
BRANCH   8  15
HETATM   15  C   UNL     1     -41.881  55.256 -51.386  1.00  0.00    -0.023 A 
HETATM   16  C   UNL     1     -41.184  54.205 -52.020  1.00  0.00     0.046 A 
HETATM   17  C   UNL     1     -40.247  53.442 -51.322  1.00  0.00     0.068 A 
HETATM   18  C   UNL     1     -40.013  53.717 -49.975  1.00  0.00     0.037 A 
HETATM   19  C   UNL     1     -40.681  54.761 -49.336  1.00  0.00     0.003 A 
HETATM   20  C   UNL     1     -41.604  55.535 -50.038  1.00  0.00     0.009 A 
BRANCH  17  21
HETATM   21  O   UNL     1     -39.518  52.407 -51.833  1.00  0.00    -0.356 OA
HETATM   22  C   UNL     1     -39.654  51.137 -51.204  1.00  0.00     0.210 C 
ENDBRANCH  17  21
ENDBRANCH   8  15
ENDBRANCH   7   8
ENDBRANCH   3   7
BRANCH   1  23
HETATM   23  C   UNL     1     -45.184  58.512 -56.630  1.00  0.00     0.086 C 
HETATM   24  C   UNL     1     -45.217  59.814 -55.832  1.00  0.00     0.032 C 
BRANCH  23  25
HETATM   25  C   UNL     1     -46.293  58.491 -57.706  1.00  0.00     0.063 C 
BRANCH  25  26
HETATM   26  C   UNL     1     -45.961  57.566 -58.859  1.00  0.00    -0.056 A 
HETATM   27  C   UNL     1     -46.970  56.841 -59.511  1.00  0.00     0.010 A 
HETATM   28  C   UNL     1     -46.655  55.965 -60.552  1.00  0.00     0.037 A 
HETATM   29  C   UNL     1     -45.328  55.812 -60.940  1.00  0.00     0.065 A 
HETATM   30  C   UNL     1     -44.316  56.522 -60.309  1.00  0.00     0.037 A 
HETATM   31  C   UNL     1     -44.630  57.401 -59.272  1.00  0.00     0.010 A 
BRANCH  29  32
HETATM   32  O   UNL     1     -44.972  54.964 -61.946  1.00  0.00    -0.361 OA
HETATM   33  H   UNL     1     -45.662  54.288 -62.055  1.00  0.00     0.217 HD
ENDBRANCH  29  32
ENDBRANCH  25  26
ENDBRANCH  23  25
ENDBRANCH   1  23
TORSDOF 9
ENDMDL
MODEL 8
REMARK VINA RESULT:      -7.7      2.131      3.129
REMARK  9 active torsions:
REMARK  status: ('A' for Active; 'I' for Inactive)
REMARK    1  A    between atoms: C_2  and  N_3 
REMARK    2  A    between atoms: C_2  and  C_23 
REMARK       I    between atoms: N_3  and  C_4 
REMARK       I    between atoms: C_4  and  N_5 
REMARK    3  A    between atoms: N_5  and  C_6 
REMARK    4  A    between atoms: C_6  and  C_7 
REMARK    5  A    between atoms: C_7  and  N_8 
REMARK    6  A    between atoms: C_7  and  C_14 
REMARK    7  A    between atoms: C_16  and  O_17 
REMARK    8  A    between atoms: C_23  and  C_24 
REMARK    9  A    between atoms: C_27  and  O_28 
ROOT
HETATM    1  N   UNL     1     -42.360  54.814 -54.759  1.00  0.00    -0.339 N 
HETATM    2  C   UNL     1     -42.593  56.064 -55.244  1.00  0.00     0.316 C 
HETATM    3  N   UNL     1     -43.666  56.106 -56.083  1.00  0.00    -0.341 N 
HETATM    4  O   UNL     1     -41.953  57.074 -54.979  1.00  0.00    -0.248 OA
HETATM    5  H   UNL     1     -42.822  54.066 -55.259  1.00  0.00     0.164 HD
HETATM    6  H   UNL     1     -44.289  55.307 -56.096  1.00  0.00     0.164 HD
ENDROOT
BRANCH   3   7
HETATM    7  C   UNL     1     -43.990  57.258 -56.915  1.00  0.00     0.162 C 
BRANCH   7   8
HETATM    8  C   UNL     1     -43.914  57.054 -58.461  1.00  0.00     0.238 C 
BRANCH   8   9
HETATM    9  N   UNL     1     -42.616  57.603 -59.041  1.00  0.00    -0.061 N 
HETATM   10  H   UNL     1     -41.907  56.852 -58.918  1.00  0.00     0.280 HD
HETATM   11  C   UNL     1     -42.080  58.878 -58.417  1.00  0.00     0.236 C 
HETATM   12  C   UNL     1     -42.122  59.905 -59.531  1.00  0.00     0.029 C 
HETATM   13  C   UNL     1     -41.822  59.083 -60.762  1.00  0.00     0.029 C 
HETATM   14  C   UNL     1     -42.660  57.839 -60.546  1.00  0.00     0.236 C 
ENDBRANCH   8   9
BRANCH   8  15
HETATM   15  C   UNL     1     -45.196  57.546 -59.117  1.00  0.00    -0.023 A 
HETATM   16  C   UNL     1     -45.945  56.646 -59.905  1.00  0.00     0.046 A 
HETATM   17  C   UNL     1     -47.132  57.046 -60.519  1.00  0.00     0.068 A 
HETATM   18  C   UNL     1     -47.570  58.361 -60.362  1.00  0.00     0.037 A 
HETATM   19  C   UNL     1     -46.850  59.261 -59.576  1.00  0.00     0.003 A 
HETATM   20  C   UNL     1     -45.674  58.855 -58.947  1.00  0.00     0.009 A 
BRANCH  17  21
HETATM   21  O   UNL     1     -47.934  56.263 -61.299  1.00  0.00    -0.356 OA
HETATM   22  C   UNL     1     -48.476  56.849 -62.477  1.00  0.00     0.210 C 
ENDBRANCH  17  21
ENDBRANCH   8  15
ENDBRANCH   7   8
ENDBRANCH   3   7
BRANCH   1  23
HETATM   23  C   UNL     1     -41.088  54.394 -54.156  1.00  0.00     0.086 C 
HETATM   24  C   UNL     1     -40.006  54.060 -55.181  1.00  0.00     0.032 C 
BRANCH  23  25
HETATM   25  C   UNL     1     -41.288  53.230 -53.157  1.00  0.00     0.063 C 
BRANCH  25  26
HETATM   26  C   UNL     1     -41.146  53.675 -51.717  1.00  0.00    -0.056 A 
HETATM   27  C   UNL     1     -39.952  53.458 -51.012  1.00  0.00     0.010 A 
HETATM   28  C   UNL     1     -39.837  53.842 -49.674  1.00  0.00     0.037 A 
HETATM   29  C   UNL     1     -40.920  54.439 -49.038  1.00  0.00     0.065 A 
HETATM   30  C   UNL     1     -42.109  54.664 -49.718  1.00  0.00     0.037 A 
HETATM   31  C   UNL     1     -42.223  54.287 -51.057  1.00  0.00     0.010 A 
BRANCH  29  32
HETATM   32  O   UNL     1     -40.857  54.825 -47.732  1.00  0.00    -0.361 OA
HETATM   33  H   UNL     1     -41.559  54.376 -47.232  1.00  0.00     0.217 HD
ENDBRANCH  29  32
ENDBRANCH  25  26
ENDBRANCH  23  25
ENDBRANCH   1  23
TORSDOF 9
ENDMDL
MODEL 9
REMARK VINA RESULT:      -7.7      2.105      8.718
REMARK  9 active torsions:
REMARK  status: ('A' for Active; 'I' for Inactive)
REMARK    1  A    between atoms: C_2  and  N_3 
REMARK    2  A    between atoms: C_2  and  C_23 
REMARK       I    between atoms: N_3  and  C_4 
REMARK       I    between atoms: C_4  and  N_5 
REMARK    3  A    between atoms: N_5  and  C_6 
REMARK    4  A    between atoms: C_6  and  C_7 
REMARK    5  A    between atoms: C_7  and  N_8 
REMARK    6  A    between atoms: C_7  and  C_14 
REMARK    7  A    between atoms: C_16  and  O_17 
REMARK    8  A    between atoms: C_23  and  C_24 
REMARK    9  A    between atoms: C_27  and  O_28 
ROOT
HETATM    1  N   UNL     1     -44.935  57.604 -55.975  1.00  0.00    -0.339 N 
HETATM    2  C   UNL     1     -43.812  56.841 -56.056  1.00  0.00     0.316 C 
HETATM    3  N   UNL     1     -43.706  55.957 -55.025  1.00  0.00    -0.341 N 
HETATM    4  O   UNL     1     -42.966  56.889 -56.941  1.00  0.00    -0.248 OA
HETATM    5  H   UNL     1     -45.390  57.605 -55.072  1.00  0.00     0.164 HD
HETATM    6  H   UNL     1     -44.526  55.799 -54.450  1.00  0.00     0.164 HD
ENDROOT
BRANCH   3   7
HETATM    7  C   UNL     1     -42.499  55.190 -54.743  1.00  0.00     0.162 C 
BRANCH   7   8
HETATM    8  C   UNL     1     -42.092  55.044 -53.243  1.00  0.00     0.238 C 
BRANCH   8   9
HETATM    9  N   UNL     1     -41.516  56.341 -52.686  1.00  0.00    -0.061 N 
HETATM   10  H   UNL     1     -40.814  56.060 -51.972  1.00  0.00     0.280 HD
HETATM   11  C   UNL     1     -42.500  57.300 -52.043  1.00  0.00     0.236 C 
HETATM   12  C   UNL     1     -42.457  58.543 -52.908  1.00  0.00     0.029 C 
HETATM   13  C   UNL     1     -41.014  58.596 -53.354  1.00  0.00     0.029 C 
HETATM   14  C   UNL     1     -40.718  57.151 -53.701  1.00  0.00     0.236 C 
ENDBRANCH   8   9
BRANCH   8  15
HETATM   15  C   UNL     1     -41.236  53.801 -53.052  1.00  0.00    -0.023 A 
HETATM   16  C   UNL     1     -41.116  53.251 -51.758  1.00  0.00     0.046 A 
HETATM   17  C   UNL     1     -40.351  52.106 -51.533  1.00  0.00     0.068 A 
HETATM   18  C   UNL     1     -39.685  51.511 -52.604  1.00  0.00     0.037 A 
HETATM   19  C   UNL     1     -39.803  52.032 -53.892  1.00  0.00     0.003 A 
HETATM   20  C   UNL     1     -40.582  53.166 -54.120  1.00  0.00     0.009 A 
BRANCH  17  21
HETATM   21  O   UNL     1     -40.167  51.490 -50.328  1.00  0.00    -0.356 OA
HETATM   22  C   UNL     1     -39.990  50.079 -50.334  1.00  0.00     0.210 C 
ENDBRANCH  17  21
ENDBRANCH   8  15
ENDBRANCH   7   8
ENDBRANCH   3   7
BRANCH   1  23
HETATM   23  C   UNL     1     -45.123  58.864 -56.707  1.00  0.00     0.086 C 
HETATM   24  C   UNL     1     -45.328  60.075 -55.799  1.00  0.00     0.032 C 
BRANCH  23  25
HETATM   25  C   UNL     1     -46.258  58.753 -57.751  1.00  0.00     0.063 C 
BRANCH  25  26
HETATM   26  C   UNL     1     -45.935  57.765 -58.852  1.00  0.00    -0.056 A 
HETATM   27  C   UNL     1     -44.690  57.791 -59.498  1.00  0.00     0.010 A 
HETATM   28  C   UNL     1     -44.407  56.899 -60.534  1.00  0.00     0.037 A 
HETATM   29  C   UNL     1     -45.374  55.980 -60.928  1.00  0.00     0.065 A 
HETATM   30  C   UNL     1     -46.612  55.937 -60.301  1.00  0.00     0.037 A 
HETATM   31  C   UNL     1     -46.892  56.825 -59.261  1.00  0.00     0.010 A 
BRANCH  29  32
HETATM   32  O   UNL     1     -45.147  55.094 -61.939  1.00  0.00    -0.361 OA
HETATM   33  H   UNL     1     -45.364  55.514 -62.788  1.00  0.00     0.217 HD
ENDBRANCH  29  32
ENDBRANCH  25  26
ENDBRANCH  23  25
ENDBRANCH   1  23
TORSDOF 9
ENDMDL
MODEL 10
REMARK VINA RESULT:      -7.6      2.114      3.006
REMARK  9 active torsions:
REMARK  status: ('A' for Active; 'I' for Inactive)
REMARK    1  A    between atoms: C_2  and  N_3 
REMARK    2  A    between atoms: C_2  and  C_23 
REMARK       I    between atoms: N_3  and  C_4 
REMARK       I    between atoms: C_4  and  N_5 
REMARK    3  A    between atoms: N_5  and  C_6 
REMARK    4  A    between atoms: C_6  and  C_7 
REMARK    5  A    between atoms: C_7  and  N_8 
REMARK    6  A    between atoms: C_7  and  C_14 
REMARK    7  A    between atoms: C_16  and  O_17 
REMARK    8  A    between atoms: C_23  and  C_24 
REMARK    9  A    between atoms: C_27  and  O_28 
ROOT
HETATM    1  N   UNL     1     -43.184  55.972 -52.754  1.00  0.00    -0.339 N 
HETATM    2  C   UNL     1     -43.612  56.317 -53.999  1.00  0.00     0.316 C 
HETATM    3  N   UNL     1     -44.353  57.461 -53.997  1.00  0.00    -0.341 N 
HETATM    4  O   UNL     1     -43.375  55.715 -55.038  1.00  0.00    -0.248 OA
HETATM    5  H   UNL     1     -43.663  56.433 -51.992  1.00  0.00     0.164 HD
HETATM    6  H   UNL     1     -44.334  58.036 -53.163  1.00  0.00     0.164 HD
ENDROOT
BRANCH   3   7
HETATM    7  C   UNL     1     -45.121  57.922 -55.147  1.00  0.00     0.162 C 
BRANCH   7   8
HETATM    8  C   UNL     1     -44.306  58.405 -56.389  1.00  0.00     0.238 C 
BRANCH   8   9
HETATM    9  N   UNL     1     -43.967  59.889 -56.300  1.00  0.00    -0.061 N 
HETATM   10  H   UNL     1     -44.014  60.252 -57.273  1.00  0.00     0.280 HD
HETATM   11  C   UNL     1     -42.611  60.241 -55.718  1.00  0.00     0.236 C 
HETATM   12  C   UNL     1     -42.918  61.014 -54.451  1.00  0.00     0.029 C 
HETATM   13  C   UNL     1     -44.181  61.763 -54.808  1.00  0.00     0.029 C 
HETATM   14  C   UNL     1     -44.996  60.715 -55.538  1.00  0.00     0.236 C 
ENDBRANCH   8   9
BRANCH   8  15
HETATM   15  C   UNL     1     -44.993  57.956 -57.671  1.00  0.00    -0.023 A 
HETATM   16  C   UNL     1     -44.257  57.195 -58.604  1.00  0.00     0.046 A 
HETATM   17  C   UNL     1     -44.844  56.752 -59.790  1.00  0.00     0.068 A 
HETATM   18  C   UNL     1     -46.172  57.082 -60.057  1.00  0.00     0.037 A 
HETATM   19  C   UNL     1     -46.919  57.821 -59.140  1.00  0.00     0.003 A 
HETATM   20  C   UNL     1     -46.337  58.249 -57.947  1.00  0.00     0.009 A 
BRANCH  17  21
HETATM   21  O   UNL     1     -44.229  56.012 -60.759  1.00  0.00    -0.356 OA
HETATM   22  C   UNL     1     -44.971  54.944 -61.337  1.00  0.00     0.210 C 
ENDBRANCH  17  21
ENDBRANCH   8  15
ENDBRANCH   7   8
ENDBRANCH   3   7
BRANCH   1  23
HETATM   23  C   UNL     1     -42.706  54.630 -52.395  1.00  0.00     0.086 C 
HETATM   24  C   UNL     1     -43.241  54.127 -51.056  1.00  0.00     0.032 C 
BRANCH  23  25
HETATM   25  C   UNL     1     -41.163  54.541 -52.447  1.00  0.00     0.063 C 
BRANCH  25  26
HETATM   26  C   UNL     1     -40.676  53.146 -52.776  1.00  0.00    -0.056 A 
HETATM   27  C   UNL     1     -39.925  52.410 -51.847  1.00  0.00     0.010 A 
HETATM   28  C   UNL     1     -39.451  51.136 -52.167  1.00  0.00     0.037 A 
HETATM   29  C   UNL     1     -39.725  50.598 -53.420  1.00  0.00     0.065 A 
HETATM   30  C   UNL     1     -40.467  51.310 -54.353  1.00  0.00     0.037 A 
HETATM   31  C   UNL     1     -40.947  52.580 -54.032  1.00  0.00     0.010 A 
BRANCH  29  32
HETATM   32  O   UNL     1     -39.277  49.361 -53.780  1.00  0.00    -0.361 OA
HETATM   33  H   UNL     1     -39.966  48.704 -53.588  1.00  0.00     0.217 HD
ENDBRANCH  29  32
ENDBRANCH  25  26
ENDBRANCH  23  25
ENDBRANCH   1  23
TORSDOF 9
ENDMDL
