MODEL 1
REMARK VINA RESULT:      -9.3      0.000      0.000
REMARK  4 active torsions:
REMARK  status: ('A' for Active; 'I' for Inactive)
REMARK    1  A    between atoms: C_3  and  C_4 
REMARK    2  A    between atoms: C_4  and  N_5 
REMARK       I    between atoms: N_5  and  C_6 
REMARK       I    between atoms: C_6  and  N_7 
REMARK    3  A    between atoms: N_7  and  C_8 
REMARK    4  A    between atoms: C_16  and  C_17 
ROOT
HETATM    1  C   UNL     1     -42.715  60.639 -53.908  1.00  0.00     0.049 C 
HETATM    2  C   UNL     1     -42.441  59.261 -53.366  1.00  0.00    -0.054 A 
HETATM    3  C   UNL     1     -43.285  58.161 -53.629  1.00  0.00    -0.034 A 
HETATM    4  C   UNL     1     -42.912  56.884 -53.166  1.00  0.00     0.023 A 
HETATM    5  C   UNL     1     -41.768  56.707 -52.379  1.00  0.00    -0.004 A 
HETATM    6  C   UNL     1     -40.934  57.799 -52.130  1.00  0.00     0.014 A 
HETATM    7  C   UNL     1     -41.260  59.059 -52.631  1.00  0.00     0.008 A 
ENDROOT
BRANCH   3   8
HETATM    8  C   UNL     1     -44.595  58.313 -54.365  1.00  0.00     0.163 C 
BRANCH   8   9
HETATM    9  N   UNL     1     -44.706  57.406 -55.480  1.00  0.00    -0.339 N 
HETATM   10  C   UNL     1     -44.209  57.798 -56.696  1.00  0.00     0.316 C 
HETATM   11  N   UNL     1     -44.558  56.922 -57.691  1.00  0.00    -0.339 N 
HETATM   12  O   UNL     1     -43.544  58.811 -56.871  1.00  0.00    -0.247 OA
HETATM   13  H   UNL     1     -44.779  55.985 -57.384  1.00  0.00     0.164 HD
HETATM   14  H   UNL     1     -45.528  56.822 -55.507  1.00  0.00     0.164 HD
BRANCH  11  15
HETATM   15  C   UNL     1     -44.026  57.074 -59.042  1.00  0.00     0.086 C 
HETATM   16  C   UNL     1     -43.288  55.802 -59.487  1.00  0.00     0.025 C 
HETATM   17  C   UNL     1     -44.242  54.646 -59.786  1.00  0.00     0.002 C 
HETATM   18  C   UNL     1     -45.319  55.049 -60.789  1.00  0.00     0.000 C 
HETATM   19  C   UNL     1     -46.081  56.289 -60.334  1.00  0.00     0.002 C 
HETATM   20  C   UNL     1     -45.137  57.450 -60.028  1.00  0.00     0.025 C 
ENDBRANCH  11  15
ENDBRANCH   8   9
ENDBRANCH   3   8
BRANCH   5  21
HETATM   21  C   UNL     1     -41.362  55.366 -51.852  1.00  0.00     0.098 C 
HETATM   22  N   UNL     1     -41.373  55.233 -50.558  1.00  0.00    -0.169 NA
HETATM   23  N   UNL     1     -40.953  54.062 -49.990  1.00  0.00    -0.238 N 
HETATM   24  C   UNL     1     -41.030  53.978 -48.546  1.00  0.00     0.183 C 
HETATM   25  C   UNL     1     -40.392  53.006 -50.696  1.00  0.00     0.274 C 
HETATM   26  O   UNL     1     -39.925  51.998 -50.170  1.00  0.00    -0.266 OA
HETATM   27  C   UNL     1     -40.418  53.120 -52.165  1.00  0.00     0.046 A 
HETATM   28  C   UNL     1     -40.961  54.256 -52.757  1.00  0.00     0.011 A 
HETATM   29  C   UNL     1     -39.958  52.053 -52.950  1.00  0.00     0.018 A 
HETATM   30  C   UNL     1     -41.130  54.277 -54.148  1.00  0.00     0.015 A 
HETATM   31  C   UNL     1     -40.672  53.215 -54.935  1.00  0.00     0.001 A 
HETATM   32  C   UNL     1     -40.072  52.110 -54.338  1.00  0.00     0.001 A 
ENDBRANCH   5  21
TORSDOF 4
ENDMDL
MODEL 2
REMARK VINA RESULT:      -9.2      4.440      7.432
REMARK  4 active torsions:
REMARK  status: ('A' for Active; 'I' for Inactive)
REMARK    1  A    between atoms: C_3  and  C_4 
REMARK    2  A    between atoms: C_4  and  N_5 
REMARK       I    between atoms: N_5  and  C_6 
REMARK       I    between atoms: C_6  and  N_7 
REMARK    3  A    between atoms: N_7  and  C_8 
REMARK    4  A    between atoms: C_16  and  C_17 
ROOT
HETATM    1  C   UNL     1     -42.506  61.207 -53.707  1.00  0.00     0.049 C 
HETATM    2  C   UNL     1     -42.219  59.842 -53.137  1.00  0.00    -0.054 A 
HETATM    3  C   UNL     1     -43.075  59.214 -52.208  1.00  0.00    -0.034 A 
HETATM    4  C   UNL     1     -42.789  57.899 -51.792  1.00  0.00     0.023 A 
HETATM    5  C   UNL     1     -41.626  57.244 -52.217  1.00  0.00    -0.004 A 
HETATM    6  C   UNL     1     -40.788  57.870 -53.142  1.00  0.00     0.014 A 
HETATM    7  C   UNL     1     -41.090  59.151 -53.607  1.00  0.00     0.008 A 
ENDROOT
BRANCH   3   8
HETATM    8  C   UNL     1     -44.274  59.917 -51.619  1.00  0.00     0.163 C 
BRANCH   8   9
HETATM    9  N   UNL     1     -44.178  60.061 -50.188  1.00  0.00    -0.339 N 
HETATM   10  C   UNL     1     -45.294  60.447 -49.491  1.00  0.00     0.316 C 
HETATM   11  N   UNL     1     -45.001  60.726 -48.181  1.00  0.00    -0.339 N 
HETATM   12  O   UNL     1     -46.412  60.538 -49.983  1.00  0.00    -0.247 OA
HETATM   13  H   UNL     1     -44.167  60.284 -47.822  1.00  0.00     0.164 HD
HETATM   14  H   UNL     1     -43.296  60.390 -49.825  1.00  0.00     0.164 HD
BRANCH  11  15
HETATM   15  C   UNL     1     -46.063  61.029 -47.226  1.00  0.00     0.086 C 
HETATM   16  C   UNL     1     -45.770  60.389 -45.861  1.00  0.00     0.025 C 
HETATM   17  C   UNL     1     -44.635  61.092 -45.115  1.00  0.00     0.002 C 
HETATM   18  C   UNL     1     -44.888  62.591 -44.989  1.00  0.00     0.000 C 
HETATM   19  C   UNL     1     -45.141  63.239 -46.346  1.00  0.00     0.002 C 
HETATM   20  C   UNL     1     -46.271  62.542 -47.101  1.00  0.00     0.025 C 
ENDBRANCH  11  15
ENDBRANCH   8   9
ENDBRANCH   3   8
BRANCH   5  21
HETATM   21  C   UNL     1     -41.284  55.857 -51.771  1.00  0.00     0.098 C 
HETATM   22  N   UNL     1     -41.214  55.671 -50.485  1.00  0.00    -0.169 NA
HETATM   23  N   UNL     1     -40.843  54.450 -49.993  1.00  0.00    -0.238 N 
HETATM   24  C   UNL     1     -40.825  54.311 -48.551  1.00  0.00     0.183 C 
HETATM   25  C   UNL     1     -40.412  53.388 -50.777  1.00  0.00     0.274 C 
HETATM   26  O   UNL     1     -39.984  52.328 -50.323  1.00  0.00    -0.266 OA
HETATM   27  C   UNL     1     -40.531  53.565 -52.234  1.00  0.00     0.046 A 
HETATM   28  C   UNL     1     -41.030  54.761 -52.743  1.00  0.00     0.011 A 
HETATM   29  C   UNL     1     -40.207  52.502 -53.090  1.00  0.00     0.018 A 
HETATM   30  C   UNL     1     -41.294  54.852 -54.117  1.00  0.00     0.015 A 
HETATM   31  C   UNL     1     -40.971  53.795 -54.973  1.00  0.00     0.001 A 
HETATM   32  C   UNL     1     -40.413  52.625 -54.463  1.00  0.00     0.001 A 
ENDBRANCH   5  21
TORSDOF 4
ENDMDL
MODEL 3
REMARK VINA RESULT:      -8.9      1.175      2.498
REMARK  4 active torsions:
REMARK  status: ('A' for Active; 'I' for Inactive)
REMARK    1  A    between atoms: C_3  and  C_4 
REMARK    2  A    between atoms: C_4  and  N_5 
REMARK       I    between atoms: N_5  and  C_6 
REMARK       I    between atoms: C_6  and  N_7 
REMARK    3  A    between atoms: N_7  and  C_8 
REMARK    4  A    between atoms: C_16  and  C_17 
ROOT
HETATM    1  C   UNL     1     -43.720  60.762 -53.147  1.00  0.00     0.049 C 
HETATM    2  C   UNL     1     -43.171  59.369 -52.978  1.00  0.00    -0.054 A 
HETATM    3  C   UNL     1     -43.771  58.241 -53.575  1.00  0.00    -0.034 A 
HETATM    4  C   UNL     1     -43.145  56.984 -53.449  1.00  0.00     0.023 A 
HETATM    5  C   UNL     1     -41.992  56.826 -52.671  1.00  0.00    -0.004 A 
HETATM    6  C   UNL     1     -41.401  57.950 -52.090  1.00  0.00     0.014 A 
HETATM    7  C   UNL     1     -41.977  59.210 -52.255  1.00  0.00     0.008 A 
ENDROOT
BRANCH   3   8
HETATM    8  C   UNL     1     -45.081  58.328 -54.320  1.00  0.00     0.163 C 
BRANCH   8   9
HETATM    9  N   UNL     1     -45.120  57.453 -55.465  1.00  0.00    -0.339 N 
HETATM   10  C   UNL     1     -44.625  57.911 -56.659  1.00  0.00     0.316 C 
HETATM   11  N   UNL     1     -44.905  57.049 -57.687  1.00  0.00    -0.339 N 
HETATM   12  O   UNL     1     -44.015  58.965 -56.788  1.00  0.00    -0.247 OA
HETATM   13  H   UNL     1     -45.078  56.093 -57.414  1.00  0.00     0.164 HD
HETATM   14  H   UNL     1     -45.907  56.825 -55.527  1.00  0.00     0.164 HD
BRANCH  11  15
HETATM   15  C   UNL     1     -44.358  57.275 -59.022  1.00  0.00     0.086 C 
HETATM   16  C   UNL     1     -43.400  56.143 -59.420  1.00  0.00     0.025 C 
HETATM   17  C   UNL     1     -44.133  54.838 -59.731  1.00  0.00     0.002 C 
HETATM   18  C   UNL     1     -45.226  55.041 -60.777  1.00  0.00     0.000 C 
HETATM   19  C   UNL     1     -46.202  56.138 -60.368  1.00  0.00     0.002 C 
HETATM   20  C   UNL     1     -45.481  57.446 -60.051  1.00  0.00     0.025 C 
ENDBRANCH  11  15
ENDBRANCH   8   9
ENDBRANCH   3   8
BRANCH   5  21
HETATM   21  C   UNL     1     -41.321  55.500 -52.499  1.00  0.00     0.098 C 
HETATM   22  N   UNL     1     -40.983  54.884 -53.594  1.00  0.00    -0.169 NA
HETATM   23  N   UNL     1     -40.424  53.637 -53.529  1.00  0.00    -0.238 N 
HETATM   24  C   UNL     1     -40.040  53.033 -54.789  1.00  0.00     0.183 C 
HETATM   25  C   UNL     1     -40.284  52.902 -52.360  1.00  0.00     0.274 C 
HETATM   26  O   UNL     1     -39.874  51.743 -52.322  1.00  0.00    -0.266 OA
HETATM   27  C   UNL     1     -40.616  53.602 -51.107  1.00  0.00     0.046 A 
HETATM   28  C   UNL     1     -41.066  54.919 -51.154  1.00  0.00     0.011 A 
HETATM   29  C   UNL     1     -40.410  52.959 -49.878  1.00  0.00     0.018 A 
HETATM   30  C   UNL     1     -41.217  55.624 -49.952  1.00  0.00     0.015 A 
HETATM   31  C   UNL     1     -41.013  54.985 -48.725  1.00  0.00     0.001 A 
HETATM   32  C   UNL     1     -40.625  53.648 -48.686  1.00  0.00     0.001 A 
ENDBRANCH   5  21
TORSDOF 4
ENDMDL
MODEL 4
REMARK VINA RESULT:      -8.8      1.576      2.108
REMARK  4 active torsions:
REMARK  status: ('A' for Active; 'I' for Inactive)
REMARK    1  A    between atoms: C_3  and  C_4 
REMARK    2  A    between atoms: C_4  and  N_5 
REMARK       I    between atoms: N_5  and  C_6 
REMARK       I    between atoms: C_6  and  N_7 
REMARK    3  A    between atoms: N_7  and  C_8 
REMARK    4  A    between atoms: C_16  and  C_17 
ROOT
HETATM    1  C   UNL     1     -45.038  60.435 -52.619  1.00  0.00     0.049 C 
HETATM    2  C   UNL     1     -44.238  59.180 -52.385  1.00  0.00    -0.054 A 
HETATM    3  C   UNL     1     -42.936  59.005 -52.900  1.00  0.00    -0.034 A 
HETATM    4  C   UNL     1     -42.214  57.843 -52.560  1.00  0.00     0.023 A 
HETATM    5  C   UNL     1     -42.800  56.827 -51.795  1.00  0.00    -0.004 A 
HETATM    6  C   UNL     1     -44.086  57.012 -51.284  1.00  0.00     0.014 A 
HETATM    7  C   UNL     1     -44.791  58.183 -51.564  1.00  0.00     0.008 A 
ENDROOT
BRANCH   3   8
HETATM    8  C   UNL     1     -42.299  60.008 -53.831  1.00  0.00     0.163 C 
BRANCH   8   9
HETATM    9  N   UNL     1     -41.984  59.440 -55.118  1.00  0.00    -0.339 N 
HETATM   10  C   UNL     1     -42.976  59.362 -56.061  1.00  0.00     0.316 C 
HETATM   11  N   UNL     1     -42.582  58.630 -57.151  1.00  0.00    -0.339 N 
HETATM   12  O   UNL     1     -44.081  59.876 -55.938  1.00  0.00    -0.247 OA
HETATM   13  H   UNL     1     -41.584  58.574 -57.295  1.00  0.00     0.164 HD
HETATM   14  H   UNL     1     -41.307  58.693 -55.129  1.00  0.00     0.164 HD
BRANCH  11  15
HETATM   15  C   UNL     1     -43.434  58.529 -58.332  1.00  0.00     0.086 C 
HETATM   16  C   UNL     1     -42.610  58.697 -59.618  1.00  0.00     0.025 C 
HETATM   17  C   UNL     1     -41.731  57.481 -59.912  1.00  0.00     0.002 C 
HETATM   18  C   UNL     1     -42.542  56.189 -59.930  1.00  0.00     0.000 C 
HETATM   19  C   UNL     1     -43.333  55.999 -58.640  1.00  0.00     0.002 C 
HETATM   20  C   UNL     1     -44.213  57.209 -58.334  1.00  0.00     0.025 C 
ENDBRANCH  11  15
ENDBRANCH   8   9
ENDBRANCH   3   8
BRANCH   5  21
HETATM   21  C   UNL     1     -42.066  55.572 -51.441  1.00  0.00     0.098 C 
HETATM   22  N   UNL     1     -41.718  55.446 -50.193  1.00  0.00    -0.169 NA
HETATM   23  N   UNL     1     -40.988  54.361 -49.796  1.00  0.00    -0.238 N 
HETATM   24  C   UNL     1     -40.671  54.274 -48.385  1.00  0.00     0.183 C 
HETATM   25  C   UNL     1     -40.473  53.404 -50.661  1.00  0.00     0.274 C 
HETATM   26  O   UNL     1     -39.734  52.487 -50.310  1.00  0.00    -0.266 OA
HETATM   27  C   UNL     1     -40.899  53.504 -52.068  1.00  0.00     0.046 A 
HETATM   28  C   UNL     1     -41.748  54.535 -52.458  1.00  0.00     0.011 A 
HETATM   29  C   UNL     1     -40.499  52.520 -52.984  1.00  0.00     0.018 A 
HETATM   30  C   UNL     1     -42.276  54.521 -53.757  1.00  0.00     0.015 A 
HETATM   31  C   UNL     1     -41.879  53.541 -54.672  1.00  0.00     0.001 A 
HETATM   32  C   UNL     1     -40.979  52.549 -54.292  1.00  0.00     0.001 A 
ENDBRANCH   5  21
TORSDOF 4
ENDMDL
MODEL 5
REMARK VINA RESULT:      -8.6      2.631      5.463
REMARK  4 active torsions:
REMARK  status: ('A' for Active; 'I' for Inactive)
REMARK    1  A    between atoms: C_3  and  C_4 
REMARK    2  A    between atoms: C_4  and  N_5 
REMARK       I    between atoms: N_5  and  C_6 
REMARK       I    between atoms: C_6  and  N_7 
REMARK    3  A    between atoms: N_7  and  C_8 
REMARK    4  A    between atoms: C_16  and  C_17 
ROOT
HETATM    1  C   UNL     1     -40.084  51.617 -52.069  1.00  0.00     0.049 C 
HETATM    2  C   UNL     1     -40.359  53.093 -51.940  1.00  0.00    -0.054 A 
HETATM    3  C   UNL     1     -40.732  53.893 -53.041  1.00  0.00    -0.034 A 
HETATM    4  C   UNL     1     -41.064  55.245 -52.824  1.00  0.00     0.023 A 
HETATM    5  C   UNL     1     -40.945  55.824 -51.555  1.00  0.00    -0.004 A 
HETATM    6  C   UNL     1     -40.583  55.022 -50.470  1.00  0.00     0.014 A 
HETATM    7  C   UNL     1     -40.307  53.668 -50.660  1.00  0.00     0.008 A 
ENDROOT
BRANCH   3   8
HETATM    8  C   UNL     1     -40.757  53.356 -54.452  1.00  0.00     0.163 C 
BRANCH   8   9
HETATM    9  N   UNL     1     -40.882  54.403 -55.435  1.00  0.00    -0.339 N 
HETATM   10  C   UNL     1     -42.130  54.703 -55.919  1.00  0.00     0.316 C 
HETATM   11  N   UNL     1     -42.067  55.573 -56.975  1.00  0.00    -0.339 N 
HETATM   12  O   UNL     1     -43.170  54.240 -55.466  1.00  0.00    -0.247 OA
HETATM   13  H   UNL     1     -41.233  56.140 -57.019  1.00  0.00     0.164 HD
HETATM   14  H   UNL     1     -40.121  54.502 -56.089  1.00  0.00     0.164 HD
BRANCH  11  15
HETATM   15  C   UNL     1     -43.285  56.129 -57.560  1.00  0.00     0.086 C 
HETATM   16  C   UNL     1     -43.329  57.654 -57.385  1.00  0.00     0.025 C 
HETATM   17  C   UNL     1     -42.334  58.377 -58.293  1.00  0.00     0.002 C 
HETATM   18  C   UNL     1     -42.509  57.974 -59.755  1.00  0.00     0.000 C 
HETATM   19  C   UNL     1     -42.428  56.463 -59.939  1.00  0.00     0.002 C 
HETATM   20  C   UNL     1     -43.416  55.730 -59.034  1.00  0.00     0.025 C 
ENDBRANCH  11  15
ENDBRANCH   8   9
ENDBRANCH   3   8
BRANCH   5  21
HETATM   21  C   UNL     1     -41.267  57.263 -51.301  1.00  0.00     0.098 C 
HETATM   22  N   UNL     1     -40.280  58.006 -50.895  1.00  0.00    -0.169 NA
HETATM   23  N   UNL     1     -40.501  59.318 -50.577  1.00  0.00    -0.238 N 
HETATM   24  C   UNL     1     -39.344  60.089 -50.169  1.00  0.00     0.183 C 
HETATM   25  C   UNL     1     -41.753  59.915 -50.543  1.00  0.00     0.274 C 
HETATM   26  O   UNL     1     -41.956  61.065 -50.160  1.00  0.00    -0.266 OA
HETATM   27  C   UNL     1     -42.874  59.103 -51.047  1.00  0.00     0.046 A 
HETATM   28  C   UNL     1     -42.638  57.806 -51.494  1.00  0.00     0.011 A 
HETATM   29  C   UNL     1     -44.155  59.668 -51.135  1.00  0.00     0.018 A 
HETATM   30  C   UNL     1     -43.678  57.108 -52.123  1.00  0.00     0.015 A 
HETATM   31  C   UNL     1     -44.956  57.669 -52.211  1.00  0.00     0.001 A 
HETATM   32  C   UNL     1     -45.200  58.943 -51.704  1.00  0.00     0.001 A 
ENDBRANCH   5  21
TORSDOF 4
ENDMDL
MODEL 6
REMARK VINA RESULT:      -8.5      2.333      5.544
REMARK  4 active torsions:
REMARK  status: ('A' for Active; 'I' for Inactive)
REMARK    1  A    between atoms: C_3  and  C_4 
REMARK    2  A    between atoms: C_4  and  N_5 
REMARK       I    between atoms: N_5  and  C_6 
REMARK       I    between atoms: C_6  and  N_7 
REMARK    3  A    between atoms: N_7  and  C_8 
REMARK    4  A    between atoms: C_16  and  C_17 
ROOT
HETATM    1  C   UNL     1     -43.518  56.980 -58.103  1.00  0.00     0.049 C 
HETATM    2  C   UNL     1     -42.940  56.423 -56.828  1.00  0.00    -0.054 A 
HETATM    3  C   UNL     1     -42.362  57.243 -55.837  1.00  0.00    -0.034 A 
HETATM    4  C   UNL     1     -41.929  56.659 -54.630  1.00  0.00     0.023 A 
HETATM    5  C   UNL     1     -41.982  55.274 -54.438  1.00  0.00    -0.004 A 
HETATM    6  C   UNL     1     -42.563  54.470 -55.422  1.00  0.00     0.014 A 
HETATM    7  C   UNL     1     -43.050  55.041 -56.598  1.00  0.00     0.008 A 
ENDROOT
BRANCH   3   8
HETATM    8  C   UNL     1     -42.163  58.726 -56.038  1.00  0.00     0.163 C 
BRANCH   8   9
HETATM    9  N   UNL     1     -42.958  59.515 -55.130  1.00  0.00    -0.339 N 
HETATM   10  C   UNL     1     -42.359  60.029 -54.009  1.00  0.00     0.316 C 
HETATM   11  N   UNL     1     -43.275  60.585 -53.155  1.00  0.00    -0.339 N 
HETATM   12  O   UNL     1     -41.153  59.987 -53.797  1.00  0.00    -0.247 OA
HETATM   13  H   UNL     1     -44.143  60.875 -53.582  1.00  0.00     0.164 HD
HETATM   14  H   UNL     1     -43.926  59.249 -55.029  1.00  0.00     0.164 HD
BRANCH  11  15
HETATM   15  C   UNL     1     -42.843  61.307 -51.961  1.00  0.00     0.086 C 
HETATM   16  C   UNL     1     -43.516  62.685 -51.882  1.00  0.00     0.025 C 
HETATM   17  C   UNL     1     -44.999  62.593 -51.523  1.00  0.00     0.002 C 
HETATM   18  C   UNL     1     -45.221  61.786 -50.247  1.00  0.00     0.000 C 
HETATM   19  C   UNL     1     -44.587  60.402 -50.336  1.00  0.00     0.002 C 
HETATM   20  C   UNL     1     -43.106  60.481 -50.697  1.00  0.00     0.025 C 
ENDBRANCH  11  15
ENDBRANCH   8   9
ENDBRANCH   3   8
BRANCH   5  21
HETATM   21  C   UNL     1     -41.505  54.623 -53.177  1.00  0.00     0.098 C 
HETATM   22  N   UNL     1     -41.684  55.301 -52.082  1.00  0.00    -0.169 NA
HETATM   23  N   UNL     1     -41.219  54.810 -50.893  1.00  0.00    -0.238 N 
HETATM   24  C   UNL     1     -41.490  55.605 -49.713  1.00  0.00     0.183 C 
HETATM   25  C   UNL     1     -40.449  53.662 -50.768  1.00  0.00     0.274 C 
HETATM   26  O   UNL     1     -39.950  53.281 -49.711  1.00  0.00    -0.266 OA
HETATM   27  C   UNL     1     -40.279  52.857 -51.990  1.00  0.00     0.046 A 
HETATM   28  C   UNL     1     -40.858  53.285 -53.182  1.00  0.00     0.011 A 
HETATM   29  C   UNL     1     -39.595  51.635 -51.925  1.00  0.00     0.018 A 
HETATM   30  C   UNL     1     -40.830  52.429 -54.292  1.00  0.00     0.015 A 
HETATM   31  C   UNL     1     -40.148  51.210 -54.230  1.00  0.00     0.001 A 
HETATM   32  C   UNL     1     -39.516  50.819 -53.052  1.00  0.00     0.001 A 
ENDBRANCH   5  21
TORSDOF 4
ENDMDL
MODEL 7
REMARK VINA RESULT:      -8.4      1.766      2.230
REMARK  4 active torsions:
REMARK  status: ('A' for Active; 'I' for Inactive)
REMARK    1  A    between atoms: C_3  and  C_4 
REMARK    2  A    between atoms: C_4  and  N_5 
REMARK       I    between atoms: N_5  and  C_6 
REMARK       I    between atoms: C_6  and  N_7 
REMARK    3  A    between atoms: N_7  and  C_8 
REMARK    4  A    between atoms: C_16  and  C_17 
ROOT
HETATM    1  C   UNL     1     -42.694  61.201 -51.186  1.00  0.00     0.049 C 
HETATM    2  C   UNL     1     -42.410  59.722 -51.167  1.00  0.00    -0.054 A 
HETATM    3  C   UNL     1     -43.325  58.768 -51.661  1.00  0.00    -0.034 A 
HETATM    4  C   UNL     1     -42.950  57.411 -51.696  1.00  0.00     0.023 A 
HETATM    5  C   UNL     1     -41.723  56.987 -51.171  1.00  0.00    -0.004 A 
HETATM    6  C   UNL     1     -40.820  57.938 -50.692  1.00  0.00     0.014 A 
HETATM    7  C   UNL     1     -41.155  59.293 -50.704  1.00  0.00     0.008 A 
ENDROOT
BRANCH   3   8
HETATM    8  C   UNL     1     -44.711  59.150 -52.124  1.00  0.00     0.163 C 
BRANCH   8   9
HETATM    9  N   UNL     1     -45.019  58.619 -53.428  1.00  0.00    -0.339 N 
HETATM   10  C   UNL     1     -45.138  59.490 -54.480  1.00  0.00     0.316 C 
HETATM   11  N   UNL     1     -45.620  58.866 -55.601  1.00  0.00    -0.339 N 
HETATM   12  O   UNL     1     -44.857  60.680 -54.420  1.00  0.00    -0.247 OA
HETATM   13  H   UNL     1     -45.473  57.867 -55.637  1.00  0.00     0.164 HD
HETATM   14  H   UNL     1     -45.622  57.810 -53.455  1.00  0.00     0.164 HD
BRANCH  11  15
HETATM   15  C   UNL     1     -45.702  59.575 -56.875  1.00  0.00     0.086 C 
HETATM   16  C   UNL     1     -44.472  59.279 -57.747  1.00  0.00     0.025 C 
HETATM   17  C   UNL     1     -44.486  57.861 -58.316  1.00  0.00     0.002 C 
HETATM   18  C   UNL     1     -45.785  57.565 -59.060  1.00  0.00     0.000 C 
HETATM   19  C   UNL     1     -47.008  57.820 -58.187  1.00  0.00     0.002 C 
HETATM   20  C   UNL     1     -47.003  59.234 -57.609  1.00  0.00     0.025 C 
ENDBRANCH  11  15
ENDBRANCH   8   9
ENDBRANCH   3   8
BRANCH   5  21
HETATM   21  C   UNL     1     -41.308  55.549 -51.172  1.00  0.00     0.098 C 
HETATM   22  N   UNL     1     -41.182  54.990 -50.005  1.00  0.00    -0.169 NA
HETATM   23  N   UNL     1     -40.744  53.697 -49.912  1.00  0.00    -0.238 N 
HETATM   24  C   UNL     1     -40.665  53.134 -48.580  1.00  0.00     0.183 C 
HETATM   25  C   UNL     1     -40.301  52.942 -50.990  1.00  0.00     0.274 C 
HETATM   26  O   UNL     1     -39.815  51.818 -50.887  1.00  0.00    -0.266 OA
HETATM   27  C   UNL     1     -40.484  53.541 -52.323  1.00  0.00     0.046 A 
HETATM   28  C   UNL     1     -41.049  54.808 -52.435  1.00  0.00     0.011 A 
HETATM   29  C   UNL     1     -40.151  52.802 -53.467  1.00  0.00     0.018 A 
HETATM   30  C   UNL     1     -41.369  55.294 -53.711  1.00  0.00     0.015 A 
HETATM   31  C   UNL     1     -41.037  54.559 -54.854  1.00  0.00     0.001 A 
HETATM   32  C   UNL     1     -40.414  53.320 -54.733  1.00  0.00     0.001 A 
ENDBRANCH   5  21
TORSDOF 4
ENDMDL
MODEL 8
REMARK VINA RESULT:      -8.4      2.583      7.507
REMARK  4 active torsions:
REMARK  status: ('A' for Active; 'I' for Inactive)
REMARK    1  A    between atoms: C_3  and  C_4 
REMARK    2  A    between atoms: C_4  and  N_5 
REMARK       I    between atoms: N_5  and  C_6 
REMARK       I    between atoms: C_6  and  N_7 
REMARK    3  A    between atoms: N_7  and  C_8 
REMARK    4  A    between atoms: C_16  and  C_17 
ROOT
HETATM    1  C   UNL     1     -40.504  53.043 -51.911  1.00  0.00     0.049 C 
HETATM    2  C   UNL     1     -41.130  53.762 -53.078  1.00  0.00    -0.054 A 
HETATM    3  C   UNL     1     -42.298  54.544 -52.948  1.00  0.00    -0.034 A 
HETATM    4  C   UNL     1     -42.771  55.262 -54.064  1.00  0.00     0.023 A 
HETATM    5  C   UNL     1     -42.152  55.143 -55.314  1.00  0.00    -0.004 A 
HETATM    6  C   UNL     1     -40.992  54.374 -55.432  1.00  0.00     0.014 A 
HETATM    7  C   UNL     1     -40.480  53.702 -54.321  1.00  0.00     0.008 A 
ENDROOT
BRANCH   3   8
HETATM    8  C   UNL     1     -43.079  54.611 -51.657  1.00  0.00     0.163 C 
BRANCH   8   9
HETATM    9  N   UNL     1     -43.996  55.723 -51.628  1.00  0.00    -0.339 N 
HETATM   10  C   UNL     1     -43.522  56.956 -51.263  1.00  0.00     0.316 C 
HETATM   11  N   UNL     1     -44.538  57.860 -51.096  1.00  0.00    -0.339 N 
HETATM   12  O   UNL     1     -42.335  57.213 -51.098  1.00  0.00    -0.247 OA
HETATM   13  H   UNL     1     -45.392  57.647 -51.591  1.00  0.00     0.164 HD
HETATM   14  H   UNL     1     -44.946  55.518 -51.356  1.00  0.00     0.164 HD
BRANCH  11  15
HETATM   15  C   UNL     1     -44.251  59.268 -50.835  1.00  0.00     0.086 C 
HETATM   16  C   UNL     1     -43.631  59.939 -52.071  1.00  0.00     0.025 C 
HETATM   17  C   UNL     1     -44.648  60.155 -53.191  1.00  0.00     0.002 C 
HETATM   18  C   UNL     1     -45.877  60.914 -52.699  1.00  0.00     0.000 C 
HETATM   19  C   UNL     1     -46.518  60.231 -51.496  1.00  0.00     0.002 C 
HETATM   20  C   UNL     1     -45.510  60.007 -50.370  1.00  0.00     0.025 C 
ENDBRANCH  11  15
ENDBRANCH   8   9
ENDBRANCH   3   8
BRANCH   5  21
HETATM   21  C   UNL     1     -42.647  55.874 -56.522  1.00  0.00     0.098 C 
HETATM   22  N   UNL     1     -43.161  55.139 -57.465  1.00  0.00    -0.169 NA
HETATM   23  N   UNL     1     -43.578  55.720 -58.630  1.00  0.00    -0.238 N 
HETATM   24  C   UNL     1     -44.172  54.840 -59.616  1.00  0.00     0.183 C 
HETATM   25  C   UNL     1     -43.391  57.058 -58.949  1.00  0.00     0.274 C 
HETATM   26  O   UNL     1     -43.678  57.552 -60.038  1.00  0.00    -0.266 OA
HETATM   27  C   UNL     1     -42.858  57.914 -57.875  1.00  0.00     0.046 A 
HETATM   28  C   UNL     1     -42.549  57.353 -56.639  1.00  0.00     0.011 A 
HETATM   29  C   UNL     1     -42.731  59.294 -58.087  1.00  0.00     0.018 A 
HETATM   30  C   UNL     1     -42.202  58.204 -55.580  1.00  0.00     0.015 A 
HETATM   31  C   UNL     1     -42.074  59.581 -55.788  1.00  0.00     0.001 A 
HETATM   32  C   UNL     1     -42.323  60.125 -57.046  1.00  0.00     0.001 A 
ENDBRANCH   5  21
TORSDOF 4
ENDMDL
MODEL 9
REMARK VINA RESULT:      -8.2      2.739      6.140
REMARK  4 active torsions:
REMARK  status: ('A' for Active; 'I' for Inactive)
REMARK    1  A    between atoms: C_3  and  C_4 
REMARK    2  A    between atoms: C_4  and  N_5 
REMARK       I    between atoms: N_5  and  C_6 
REMARK       I    between atoms: C_6  and  N_7 
REMARK    3  A    between atoms: N_7  and  C_8 
REMARK    4  A    between atoms: C_16  and  C_17 
ROOT
HETATM    1  C   UNL     1     -43.735  57.155 -56.867  1.00  0.00     0.049 C 
HETATM    2  C   UNL     1     -42.947  56.267 -55.939  1.00  0.00    -0.054 A 
HETATM    3  C   UNL     1     -42.061  56.781 -54.968  1.00  0.00    -0.034 A 
HETATM    4  C   UNL     1     -41.432  55.892 -54.074  1.00  0.00     0.023 A 
HETATM    5  C   UNL     1     -41.604  54.508 -54.191  1.00  0.00    -0.004 A 
HETATM    6  C   UNL     1     -42.488  54.008 -55.150  1.00  0.00     0.014 A 
HETATM    7  C   UNL     1     -43.163  54.880 -56.004  1.00  0.00     0.008 A 
ENDROOT
BRANCH   3   8
HETATM    8  C   UNL     1     -41.739  58.253 -54.875  1.00  0.00     0.163 C 
BRANCH   8   9
HETATM    9  N   UNL     1     -42.677  58.969 -54.046  1.00  0.00    -0.339 N 
HETATM   10  C   UNL     1     -42.195  59.700 -52.991  1.00  0.00     0.316 C 
HETATM   11  N   UNL     1     -43.207  60.159 -52.189  1.00  0.00    -0.339 N 
HETATM   12  O   UNL     1     -41.005  59.908 -52.788  1.00  0.00    -0.247 OA
HETATM   13  H   UNL     1     -44.110  60.235 -52.634  1.00  0.00     0.164 HD
HETATM   14  H   UNL     1     -43.578  58.538 -53.907  1.00  0.00     0.164 HD
BRANCH  11  15
HETATM   15  C   UNL     1     -42.929  61.070 -51.082  1.00  0.00     0.086 C 
HETATM   16  C   UNL     1     -43.233  62.523 -51.478  1.00  0.00     0.025 C 
HETATM   17  C   UNL     1     -44.733  62.799 -51.582  1.00  0.00     0.002 C 
HETATM   18  C   UNL     1     -45.470  62.400 -50.307  1.00  0.00     0.000 C 
HETATM   19  C   UNL     1     -45.202  60.947 -49.930  1.00  0.00     0.002 C 
HETATM   20  C   UNL     1     -43.706  60.658 -49.827  1.00  0.00     0.025 C 
ENDBRANCH  11  15
ENDBRANCH   8   9
ENDBRANCH   3   8
BRANCH   5  21
HETATM   21  C   UNL     1     -40.928  53.539 -53.272  1.00  0.00     0.098 C 
HETATM   22  N   UNL     1     -40.469  52.454 -53.823  1.00  0.00    -0.169 NA
HETATM   23  N   UNL     1     -39.896  51.486 -53.046  1.00  0.00    -0.238 N 
HETATM   24  C   UNL     1     -39.376  50.323 -53.738  1.00  0.00     0.183 C 
HETATM   25  C   UNL     1     -39.860  51.515 -51.659  1.00  0.00     0.274 C 
HETATM   26  O   UNL     1     -39.433  50.595 -50.963  1.00  0.00    -0.266 OA
HETATM   27  C   UNL     1     -40.329  52.757 -51.022  1.00  0.00     0.046 A 
HETATM   28  C   UNL     1     -40.797  53.802 -51.815  1.00  0.00     0.011 A 
HETATM   29  C   UNL     1     -40.234  52.902 -49.630  1.00  0.00     0.018 A 
HETATM   30  C   UNL     1     -41.082  55.034 -51.209  1.00  0.00     0.015 A 
HETATM   31  C   UNL     1     -40.989  55.180 -49.822  1.00  0.00     0.001 A 
HETATM   32  C   UNL     1     -40.581  54.110 -49.030  1.00  0.00     0.001 A 
ENDBRANCH   5  21
TORSDOF 4
ENDMDL
MODEL 10
REMARK VINA RESULT:      -8.1      2.764      3.614
REMARK  4 active torsions:
REMARK  status: ('A' for Active; 'I' for Inactive)
REMARK    1  A    between atoms: C_3  and  C_4 
REMARK    2  A    between atoms: C_4  and  N_5 
REMARK       I    between atoms: N_5  and  C_6 
REMARK       I    between atoms: C_6  and  N_7 
REMARK    3  A    between atoms: N_7  and  C_8 
REMARK    4  A    between atoms: C_16  and  C_17 
ROOT
HETATM    1  C   UNL     1     -45.427  60.468 -51.469  1.00  0.00     0.049 C 
HETATM    2  C   UNL     1     -44.556  59.238 -51.442  1.00  0.00    -0.054 A 
HETATM    3  C   UNL     1     -43.170  59.286 -51.701  1.00  0.00    -0.034 A 
HETATM    4  C   UNL     1     -42.406  58.110 -51.563  1.00  0.00     0.023 A 
HETATM    5  C   UNL     1     -43.013  56.885 -51.261  1.00  0.00    -0.004 A 
HETATM    6  C   UNL     1     -44.384  56.849 -50.999  1.00  0.00     0.014 A 
HETATM    7  C   UNL     1     -45.144  58.017 -51.074  1.00  0.00     0.008 A 
ENDROOT
BRANCH   3   8
HETATM    8  C   UNL     1     -42.481  60.551 -52.152  1.00  0.00     0.163 C 
BRANCH   8   9
HETATM    9  N   UNL     1     -42.089  60.498 -53.539  1.00  0.00    -0.339 N 
HETATM   10  C   UNL     1     -42.867  61.143 -54.466  1.00  0.00     0.316 C 
HETATM   11  N   UNL     1     -42.482  60.843 -55.746  1.00  0.00    -0.339 N 
HETATM   12  O   UNL     1     -43.798  61.886 -54.181  1.00  0.00    -0.247 OA
HETATM   13  H   UNL     1     -41.526  60.532 -55.848  1.00  0.00     0.164 HD
HETATM   14  H   UNL     1     -41.646  59.647 -53.851  1.00  0.00     0.164 HD
BRANCH  11  15
HETATM   15  C   UNL     1     -43.089  61.522 -56.888  1.00  0.00     0.086 C 
HETATM   16  C   UNL     1     -42.048  62.363 -57.642  1.00  0.00     0.025 C 
HETATM   17  C   UNL     1     -41.061  61.503 -58.433  1.00  0.00     0.002 C 
HETATM   18  C   UNL     1     -41.781  60.533 -59.365  1.00  0.00     0.000 C 
HETATM   19  C   UNL     1     -42.788  59.669 -58.615  1.00  0.00     0.002 C 
HETATM   20  C   UNL     1     -43.777  60.517 -57.819  1.00  0.00     0.025 C 
ENDBRANCH  11  15
ENDBRANCH   8   9
ENDBRANCH   3   8
BRANCH   5  21
HETATM   21  C   UNL     1     -42.230  55.617 -51.134  1.00  0.00     0.098 C 
HETATM   22  N   UNL     1     -41.797  55.329 -49.942  1.00  0.00    -0.169 NA
HETATM   23  N   UNL     1     -41.018  54.222 -49.749  1.00  0.00    -0.238 N 
HETATM   24  C   UNL     1     -40.607  53.948 -48.386  1.00  0.00     0.183 C 
HETATM   25  C   UNL     1     -40.541  53.412 -50.770  1.00  0.00     0.274 C 
HETATM   26  O   UNL     1     -39.760  52.478 -50.600  1.00  0.00    -0.266 OA
HETATM   27  C   UNL     1     -41.061  53.694 -52.120  1.00  0.00     0.046 A 
HETATM   28  C   UNL     1     -41.957  54.743 -52.306  1.00  0.00     0.011 A 
HETATM   29  C   UNL     1     -40.702  52.860 -53.189  1.00  0.00     0.018 A 
HETATM   30  C   UNL     1     -42.569  54.893 -53.558  1.00  0.00     0.015 A 
HETATM   31  C   UNL     1     -42.213  54.064 -54.626  1.00  0.00     0.001 A 
HETATM   32  C   UNL     1     -41.267  53.058 -54.447  1.00  0.00     0.001 A 
ENDBRANCH   5  21
TORSDOF 4
ENDMDL
