MODEL 1
REMARK VINA RESULT:      -7.8      0.000      0.000
REMARK  9 active torsions:
REMARK  status: ('A' for Active; 'I' for Inactive)
REMARK    1  A    between atoms: N_5  and  C_6 
REMARK    2  A    between atoms: C_6  and  C_7 
REMARK    3  A    between atoms: C_7  and  O_8 
REMARK    4  A    between atoms: C_7  and  C_9 
REMARK    5  A    between atoms: C_9  and  O_10 
REMARK    6  A    between atoms: O_10  and  C_11 
REMARK    7  A    between atoms: N_23  and  C_24 
REMARK    8  A    between atoms: C_24  and  C_25 
REMARK    9  A    between atoms: C_25  and  N_26 
ROOT
HETATM    1  C   UNL     1     -45.792  60.674 -53.235  1.00  0.00     0.002 A 
HETATM    2  C   UNL     1     -44.755  60.300 -54.094  1.00  0.00     0.032 A 
HETATM    3  C   UNL     1     -43.844  59.379 -53.617  1.00  0.00     0.079 A 
HETATM    4  C   UNL     1     -43.949  58.814 -52.321  1.00  0.00     0.079 A 
HETATM    5  N   UNL     1     -42.895  57.915 -52.152  1.00  0.00    -0.179 N 
HETATM    6  C   UNL     1     -42.141  57.909 -53.356  1.00  0.00     0.681 A 
HETATM    7  N   UNL     1     -41.067  57.124 -53.584  1.00  0.00    -0.234 N 
HETATM    8  H   UNL     1     -40.584  57.072 -54.469  1.00  0.00     0.174 HD
HETATM    9  H   UNL     1     -40.704  56.529 -52.843  1.00  0.00     0.174 HD
HETATM   10  N   UNL     1     -42.687  58.816 -54.276  1.00  0.00    -0.180 N 
HETATM   11  C   UNL     1     -44.973  59.182 -51.477  1.00  0.00     0.032 A 
HETATM   12  C   UNL     1     -45.896  60.123 -51.944  1.00  0.00     0.002 A 
ENDROOT
BRANCH   5  13
HETATM   13  C   UNL     1     -42.846  56.978 -51.040  1.00  0.00     0.181 C 
BRANCH  13  14
HETATM   14  C   UNL     1     -43.535  55.630 -51.341  1.00  0.00     0.161 C 
BRANCH  14  15
HETATM   15  O   UNL     1     -44.689  55.535 -50.504  1.00  0.00    -0.392 OA
HETATM   16  H   UNL     1     -44.559  54.767 -49.912  1.00  0.00     0.210 HD
ENDBRANCH  14  15
BRANCH  14  17
HETATM   17  C   UNL     1     -42.613  54.442 -51.043  1.00  0.00     0.209 C 
BRANCH  17  18
HETATM   18  O   UNL     1     -41.362  54.620 -51.711  1.00  0.00    -0.347 OA
BRANCH  18  19
HETATM   19  C   UNL     1     -40.934  53.535 -52.435  1.00  0.00     0.090 A 
HETATM   20  C   UNL     1     -41.336  53.171 -53.732  1.00  0.00     0.069 A 
HETATM   21 CL   UNL     1     -42.514  54.050 -54.650  1.00  0.00    -0.081 Cl
HETATM   22  C   UNL     1     -40.805  52.025 -54.334  1.00  0.00     0.050 A 
HETATM   23  C   UNL     1     -39.897  51.230 -53.639  1.00  0.00     0.035 A 
HETATM   24 CL   UNL     1     -39.246  49.828 -54.389  1.00  0.00    -0.084 Cl
HETATM   25  C   UNL     1     -39.522  51.560 -52.341  1.00  0.00     0.026 A 
HETATM   26  C   UNL     1     -40.047  52.705 -51.738  1.00  0.00     0.040 A 
ENDBRANCH  18  19
ENDBRANCH  17  18
ENDBRANCH  14  17
ENDBRANCH  13  14
ENDBRANCH   5  13
BRANCH  10  27
HETATM   27  C   UNL     1     -42.323  59.039 -55.683  1.00  0.00     0.175 C 
BRANCH  27  28
HETATM   28  C   UNL     1     -43.376  58.495 -56.673  1.00  0.00     0.256 C 
BRANCH  28  29
HETATM   29  N   UNL     1     -42.803  57.722 -57.844  1.00  0.00    -0.066 N 
HETATM   30  H   UNL     1     -41.925  57.305 -57.497  1.00  0.00     0.280 HD
HETATM   31  C   UNL     1     -43.646  56.536 -58.320  1.00  0.00     0.261 C 
HETATM   32  C   UNL     1     -42.895  55.775 -59.419  1.00  0.00     0.195 C 
HETATM   33  O   UNL     1     -42.576  56.654 -60.501  1.00  0.00    -0.388 OA
HETATM   34  C   UNL     1     -41.698  57.709 -60.096  1.00  0.00     0.195 C 
HETATM   35  C   UNL     1     -42.376  58.588 -59.037  1.00  0.00     0.261 C 
ENDBRANCH  28  29
ENDBRANCH  27  28
ENDBRANCH  10  27
TORSDOF 9
ENDMDL
MODEL 2
REMARK VINA RESULT:      -7.8      1.320      1.751
REMARK  9 active torsions:
REMARK  status: ('A' for Active; 'I' for Inactive)
REMARK    1  A    between atoms: N_5  and  C_6 
REMARK    2  A    between atoms: C_6  and  C_7 
REMARK    3  A    between atoms: C_7  and  O_8 
REMARK    4  A    between atoms: C_7  and  C_9 
REMARK    5  A    between atoms: C_9  and  O_10 
REMARK    6  A    between atoms: O_10  and  C_11 
REMARK    7  A    between atoms: N_23  and  C_24 
REMARK    8  A    between atoms: C_24  and  C_25 
REMARK    9  A    between atoms: C_25  and  N_26 
ROOT
HETATM    1  C   UNL     1     -42.866  61.125 -52.894  1.00  0.00     0.002 A 
HETATM    2  C   UNL     1     -43.359  60.354 -53.949  1.00  0.00     0.032 A 
HETATM    3  C   UNL     1     -43.559  59.009 -53.706  1.00  0.00     0.079 A 
HETATM    4  C   UNL     1     -43.296  58.423 -52.443  1.00  0.00     0.079 A 
HETATM    5  N   UNL     1     -43.613  57.065 -52.518  1.00  0.00    -0.179 N 
HETATM    6  C   UNL     1     -44.091  56.811 -53.832  1.00  0.00     0.681 A 
HETATM    7  N   UNL     1     -44.539  55.615 -54.266  1.00  0.00    -0.234 N 
HETATM    8  H   UNL     1     -44.947  55.462 -55.177  1.00  0.00     0.174 HD
HETATM    9  H   UNL     1     -44.485  54.800 -53.660  1.00  0.00     0.174 HD
HETATM   10  N   UNL     1     -44.054  57.985 -54.599  1.00  0.00    -0.180 N 
HETATM   11  C   UNL     1     -42.812  59.186 -51.403  1.00  0.00     0.032 A 
HETATM   12  C   UNL     1     -42.594  60.547 -51.640  1.00  0.00     0.002 A 
ENDROOT
BRANCH   5  13
HETATM   13  C   UNL     1     -43.701  56.222 -51.336  1.00  0.00     0.181 C 
BRANCH  13  14
HETATM   14  C   UNL     1     -43.176  54.789 -51.562  1.00  0.00     0.161 C 
BRANCH  14  15
HETATM   15  O   UNL     1     -44.249  53.885 -51.291  1.00  0.00    -0.392 OA
HETATM   16  H   UNL     1     -45.038  54.219 -51.761  1.00  0.00     0.210 HD
ENDBRANCH  14  15
BRANCH  14  17
HETATM   17  C   UNL     1     -42.006  54.459 -50.628  1.00  0.00     0.209 C 
BRANCH  17  18
HETATM   18  O   UNL     1     -40.770  54.614 -51.326  1.00  0.00    -0.347 OA
BRANCH  18  19
HETATM   19  C   UNL     1     -40.435  53.565 -52.148  1.00  0.00     0.090 A 
HETATM   20  C   UNL     1     -40.487  53.541 -53.552  1.00  0.00     0.069 A 
HETATM   21 CL   UNL     1     -41.042  54.873 -54.512  1.00  0.00    -0.081 Cl
HETATM   22  C   UNL     1     -40.114  52.386 -54.247  1.00  0.00     0.050 A 
HETATM   23  C   UNL     1     -39.713  51.251 -53.546  1.00  0.00     0.035 A 
HETATM   24 CL   UNL     1     -39.249  49.839 -54.409  1.00  0.00    -0.084 Cl
HETATM   25  C   UNL     1     -39.694  51.252 -52.156  1.00  0.00     0.026 A 
HETATM   26  C   UNL     1     -40.063  52.404 -51.458  1.00  0.00     0.040 A 
ENDBRANCH  18  19
ENDBRANCH  17  18
ENDBRANCH  14  17
ENDBRANCH  13  14
ENDBRANCH   5  13
BRANCH  10  27
HETATM   27  C   UNL     1     -44.575  58.224 -55.953  1.00  0.00     0.175 C 
BRANCH  27  28
HETATM   28  C   UNL     1     -43.509  58.779 -56.922  1.00  0.00     0.256 C 
BRANCH  28  29
HETATM   29  N   UNL     1     -43.324  57.970 -58.189  1.00  0.00    -0.066 N 
HETATM   30  H   UNL     1     -44.114  58.229 -58.801  1.00  0.00     0.280 HD
HETATM   31  C   UNL     1     -42.068  58.302 -59.000  1.00  0.00     0.261 C 
HETATM   32  C   UNL     1     -42.071  57.504 -60.310  1.00  0.00     0.195 C 
HETATM   33  O   UNL     1     -42.158  56.103 -60.037  1.00  0.00    -0.388 OA
HETATM   34  C   UNL     1     -43.380  55.760 -59.375  1.00  0.00     0.195 C 
HETATM   35  C   UNL     1     -43.457  56.452 -58.008  1.00  0.00     0.261 C 
ENDBRANCH  28  29
ENDBRANCH  27  28
ENDBRANCH  10  27
TORSDOF 9
ENDMDL
MODEL 3
REMARK VINA RESULT:      -7.7      2.564      4.767
REMARK  9 active torsions:
REMARK  status: ('A' for Active; 'I' for Inactive)
REMARK    1  A    between atoms: N_5  and  C_6 
REMARK    2  A    between atoms: C_6  and  C_7 
REMARK    3  A    between atoms: C_7  and  O_8 
REMARK    4  A    between atoms: C_7  and  C_9 
REMARK    5  A    between atoms: C_9  and  O_10 
REMARK    6  A    between atoms: O_10  and  C_11 
REMARK    7  A    between atoms: N_23  and  C_24 
REMARK    8  A    between atoms: C_24  and  C_25 
REMARK    9  A    between atoms: C_25  and  N_26 
ROOT
HETATM    1  C   UNL     1     -45.540  60.406 -55.556  1.00  0.00     0.002 A 
HETATM    2  C   UNL     1     -45.366  60.149 -54.194  1.00  0.00     0.032 A 
HETATM    3  C   UNL     1     -44.898  58.898 -53.844  1.00  0.00     0.079 A 
HETATM    4  C   UNL     1     -44.586  57.910 -54.812  1.00  0.00     0.079 A 
HETATM    5  N   UNL     1     -44.126  56.775 -54.143  1.00  0.00    -0.179 N 
HETATM    6  C   UNL     1     -44.136  57.065 -52.752  1.00  0.00     0.681 A 
HETATM    7  N   UNL     1     -43.713  56.220 -51.789  1.00  0.00    -0.234 N 
HETATM    8  H   UNL     1     -43.653  56.463 -50.811  1.00  0.00     0.174 HD
HETATM    9  H   UNL     1     -43.419  55.277 -52.032  1.00  0.00     0.174 HD
HETATM   10  N   UNL     1     -44.626  58.361 -52.530  1.00  0.00    -0.180 N 
HETATM   11  C   UNL     1     -44.755  58.167 -56.155  1.00  0.00     0.032 A 
HETATM   12  C   UNL     1     -45.240  59.426 -56.522  1.00  0.00     0.002 A 
ENDROOT
BRANCH   5  13
HETATM   13  C   UNL     1     -43.484  55.671 -54.839  1.00  0.00     0.181 C 
BRANCH  13  14
HETATM   14  C   UNL     1     -42.079  56.017 -55.378  1.00  0.00     0.161 C 
BRANCH  14  15
HETATM   15  O   UNL     1     -41.928  55.371 -56.644  1.00  0.00    -0.392 OA
HETATM   16  H   UNL     1     -41.340  55.932 -57.189  1.00  0.00     0.210 HD
ENDBRANCH  14  15
BRANCH  14  17
HETATM   17  C   UNL     1     -40.973  55.522 -54.438  1.00  0.00     0.209 C 
BRANCH  17  18
HETATM   18  O   UNL     1     -41.545  54.746 -53.384  1.00  0.00    -0.347 OA
BRANCH  18  19
HETATM   19  C   UNL     1     -40.961  53.519 -53.189  1.00  0.00     0.090 A 
HETATM   20  C   UNL     1     -40.307  53.068 -52.029  1.00  0.00     0.069 A 
HETATM   21 CL   UNL     1     -40.090  54.043 -50.612  1.00  0.00    -0.081 Cl
HETATM   22  C   UNL     1     -39.758  51.782 -51.990  1.00  0.00     0.050 A 
HETATM   23  C   UNL     1     -39.837  50.956 -53.109  1.00  0.00     0.035 A 
HETATM   24 CL   UNL     1     -39.165  49.376 -53.049  1.00  0.00    -0.084 Cl
HETATM   25  C   UNL     1     -40.448  51.406 -54.274  1.00  0.00     0.026 A 
HETATM   26  C   UNL     1     -41.000  52.689 -54.316  1.00  0.00     0.040 A 
ENDBRANCH  18  19
ENDBRANCH  17  18
ENDBRANCH  14  17
ENDBRANCH  13  14
ENDBRANCH   5  13
BRANCH  10  27
HETATM   27  C   UNL     1     -44.684  59.127 -51.275  1.00  0.00     0.175 C 
BRANCH  27  28
HETATM   28  C   UNL     1     -43.499  60.101 -51.106  1.00  0.00     0.256 C 
BRANCH  28  29
HETATM   29  N   UNL     1     -42.138  59.495 -51.383  1.00  0.00    -0.066 N 
HETATM   30  H   UNL     1     -42.258  58.477 -51.263  1.00  0.00     0.280 HD
HETATM   31  C   UNL     1     -41.623  59.669 -52.814  1.00  0.00     0.261 C 
HETATM   32  C   UNL     1     -40.303  58.908 -52.986  1.00  0.00     0.195 C 
HETATM   33  O   UNL     1     -39.341  59.359 -52.029  1.00  0.00    -0.388 OA
HETATM   34  C   UNL     1     -39.760  59.104 -50.685  1.00  0.00     0.195 C 
HETATM   35  C   UNL     1     -41.047  59.877 -50.373  1.00  0.00     0.261 C 
ENDBRANCH  28  29
ENDBRANCH  27  28
ENDBRANCH  10  27
TORSDOF 9
ENDMDL
MODEL 4
REMARK VINA RESULT:      -7.6      3.496      7.947
REMARK  9 active torsions:
REMARK  status: ('A' for Active; 'I' for Inactive)
REMARK    1  A    between atoms: N_5  and  C_6 
REMARK    2  A    between atoms: C_6  and  C_7 
REMARK    3  A    between atoms: C_7  and  O_8 
REMARK    4  A    between atoms: C_7  and  C_9 
REMARK    5  A    between atoms: C_9  and  O_10 
REMARK    6  A    between atoms: O_10  and  C_11 
REMARK    7  A    between atoms: N_23  and  C_24 
REMARK    8  A    between atoms: C_24  and  C_25 
REMARK    9  A    between atoms: C_25  and  N_26 
ROOT
HETATM    1  C   UNL     1     -39.679  51.955 -52.165  1.00  0.00     0.002 A 
HETATM    2  C   UNL     1     -40.484  52.893 -51.513  1.00  0.00     0.032 A 
HETATM    3  C   UNL     1     -41.383  53.597 -52.289  1.00  0.00     0.079 A 
HETATM    4  C   UNL     1     -41.511  53.379 -53.683  1.00  0.00     0.079 A 
HETATM    5  N   UNL     1     -42.509  54.227 -54.167  1.00  0.00    -0.179 N 
HETATM    6  C   UNL     1     -43.015  54.964 -53.063  1.00  0.00     0.681 A 
HETATM    7  N   UNL     1     -44.027  55.854 -53.134  1.00  0.00    -0.234 N 
HETATM    8  H   UNL     1     -44.430  56.316 -52.332  1.00  0.00     0.174 HD
HETATM    9  H   UNL     1     -44.437  56.088 -54.035  1.00  0.00     0.174 HD
HETATM   10  N   UNL     1     -42.330  54.614 -51.890  1.00  0.00    -0.180 N 
HETATM   11  C   UNL     1     -40.719  52.452 -54.323  1.00  0.00     0.032 A 
HETATM   12  C   UNL     1     -39.794  51.740 -53.551  1.00  0.00     0.002 A 
ENDROOT
BRANCH   5  13
HETATM   13  C   UNL     1     -43.068  54.084 -55.502  1.00  0.00     0.181 C 
BRANCH  13  14
HETATM   14  C   UNL     1     -42.526  55.119 -56.511  1.00  0.00     0.161 C 
BRANCH  14  15
HETATM   15  O   UNL     1     -41.333  55.680 -55.958  1.00  0.00    -0.392 OA
HETATM   16  H   UNL     1     -41.584  56.508 -55.501  1.00  0.00     0.210 HD
ENDBRANCH  14  15
BRANCH  14  17
HETATM   17  C   UNL     1     -43.531  56.248 -56.762  1.00  0.00     0.209 C 
BRANCH  17  18
HETATM   18  O   UNL     1     -43.345  56.778 -58.076  1.00  0.00    -0.347 OA
BRANCH  18  19
HETATM   19  C   UNL     1     -44.476  56.802 -58.854  1.00  0.00     0.090 A 
HETATM   20  C   UNL     1     -45.550  57.704 -58.758  1.00  0.00     0.069 A 
HETATM   21 CL   UNL     1     -45.641  58.961 -57.567  1.00  0.00    -0.081 Cl
HETATM   22  C   UNL     1     -46.639  57.593 -59.629  1.00  0.00     0.050 A 
HETATM   23  C   UNL     1     -46.671  56.572 -60.577  1.00  0.00     0.035 A 
HETATM   24 CL   UNL     1     -48.009  56.447 -61.646  1.00  0.00    -0.084 Cl
HETATM   25  C   UNL     1     -45.631  55.652 -60.655  1.00  0.00     0.026 A 
HETATM   26  C   UNL     1     -44.541  55.762 -59.789  1.00  0.00     0.040 A 
ENDBRANCH  18  19
ENDBRANCH  17  18
ENDBRANCH  14  17
ENDBRANCH  13  14
ENDBRANCH   5  13
BRANCH  10  27
HETATM   27  C   UNL     1     -42.605  55.015 -50.502  1.00  0.00     0.175 C 
BRANCH  27  28
HETATM   28  C   UNL     1     -41.726  56.192 -50.027  1.00  0.00     0.256 C 
BRANCH  28  29
HETATM   29  N   UNL     1     -41.529  57.289 -51.053  1.00  0.00    -0.066 N 
HETATM   30  H   UNL     1     -41.456  56.807 -51.963  1.00  0.00     0.280 HD
HETATM   31  C   UNL     1     -42.705  58.257 -51.210  1.00  0.00     0.261 C 
HETATM   32  C   UNL     1     -42.423  59.233 -52.359  1.00  0.00     0.195 C 
HETATM   33  O   UNL     1     -41.199  59.934 -52.125  1.00  0.00    -0.388 OA
HETATM   34  C   UNL     1     -40.074  59.052 -52.085  1.00  0.00     0.195 C 
HETATM   35  C   UNL     1     -40.212  58.065 -50.919  1.00  0.00     0.261 C 
ENDBRANCH  28  29
ENDBRANCH  27  28
ENDBRANCH  10  27
TORSDOF 9
ENDMDL
MODEL 5
REMARK VINA RESULT:      -7.6      1.658      1.908
REMARK  9 active torsions:
REMARK  status: ('A' for Active; 'I' for Inactive)
REMARK    1  A    between atoms: N_5  and  C_6 
REMARK    2  A    between atoms: C_6  and  C_7 
REMARK    3  A    between atoms: C_7  and  O_8 
REMARK    4  A    between atoms: C_7  and  C_9 
REMARK    5  A    between atoms: C_9  and  O_10 
REMARK    6  A    between atoms: O_10  and  C_11 
REMARK    7  A    between atoms: N_23  and  C_24 
REMARK    8  A    between atoms: C_24  and  C_25 
REMARK    9  A    between atoms: C_25  and  N_26 
ROOT
HETATM    1  C   UNL     1     -45.444  61.233 -52.617  1.00  0.00     0.002 A 
HETATM    2  C   UNL     1     -45.474  60.394 -53.734  1.00  0.00     0.032 A 
HETATM    3  C   UNL     1     -45.048  59.093 -53.555  1.00  0.00     0.079 A 
HETATM    4  C   UNL     1     -44.612  58.607 -52.297  1.00  0.00     0.079 A 
HETATM    5  N   UNL     1     -44.268  57.262 -52.445  1.00  0.00    -0.179 N 
HETATM    6  C   UNL     1     -44.508  56.907 -53.799  1.00  0.00     0.681 A 
HETATM    7  N   UNL     1     -44.335  55.670 -54.309  1.00  0.00    -0.234 N 
HETATM    8  H   UNL     1     -44.580  55.409 -55.254  1.00  0.00     0.174 HD
HETATM    9  H   UNL     1     -43.946  54.930 -53.730  1.00  0.00     0.174 HD
HETATM   10  N   UNL     1     -44.972  58.018 -54.519  1.00  0.00    -0.180 N 
HETATM   11  C   UNL     1     -44.587  59.435 -51.196  1.00  0.00     0.032 A 
HETATM   12  C   UNL     1     -45.004  60.759 -51.367  1.00  0.00     0.002 A 
ENDROOT
BRANCH   5  13
HETATM   13  C   UNL     1     -44.023  56.394 -51.304  1.00  0.00     0.181 C 
BRANCH  13  14
HETATM   14  C   UNL     1     -42.527  56.254 -50.948  1.00  0.00     0.161 C 
BRANCH  14  15
HETATM   15  O   UNL     1     -41.778  56.973 -51.929  1.00  0.00    -0.392 OA
HETATM   16  H   UNL     1     -42.328  57.725 -52.224  1.00  0.00     0.210 HD
ENDBRANCH  14  15
BRANCH  14  17
HETATM   17  C   UNL     1     -42.076  54.789 -50.958  1.00  0.00     0.209 C 
BRANCH  17  18
HETATM   18  O   UNL     1     -40.710  54.707 -51.369  1.00  0.00    -0.347 OA
BRANCH  18  19
HETATM   19  C   UNL     1     -40.415  53.638 -52.180  1.00  0.00     0.090 A 
HETATM   20  C   UNL     1     -40.475  53.599 -53.584  1.00  0.00     0.069 A 
HETATM   21 CL   UNL     1     -40.991  54.938 -54.557  1.00  0.00    -0.081 Cl
HETATM   22  C   UNL     1     -40.143  52.424 -54.267  1.00  0.00     0.050 A 
HETATM   23  C   UNL     1     -39.776  51.285 -53.555  1.00  0.00     0.035 A 
HETATM   24 CL   UNL     1     -39.364  49.848 -54.402  1.00  0.00    -0.084 Cl
HETATM   25  C   UNL     1     -39.749  51.301 -52.164  1.00  0.00     0.026 A 
HETATM   26  C   UNL     1     -40.077  52.474 -51.479  1.00  0.00     0.040 A 
ENDBRANCH  18  19
ENDBRANCH  17  18
ENDBRANCH  14  17
ENDBRANCH  13  14
ENDBRANCH   5  13
BRANCH  10  27
HETATM   27  C   UNL     1     -45.473  58.084 -55.900  1.00  0.00     0.175 C 
BRANCH  27  28
HETATM   28  C   UNL     1     -44.364  57.891 -56.955  1.00  0.00     0.256 C 
BRANCH  28  29
HETATM   29  N   UNL     1     -44.702  56.905 -58.055  1.00  0.00    -0.066 N 
HETATM   30  H   UNL     1     -45.078  56.073 -57.575  1.00  0.00     0.280 HD
HETATM   31  C   UNL     1     -45.813  57.347 -59.012  1.00  0.00     0.261 C 
HETATM   32  C   UNL     1     -46.135  56.212 -59.991  1.00  0.00     0.195 C 
HETATM   33  O   UNL     1     -44.959  55.823 -60.705  1.00  0.00    -0.388 OA
HETATM   34  C   UNL     1     -43.949  55.304 -59.834  1.00  0.00     0.195 C 
HETATM   35  C   UNL     1     -43.493  56.384 -58.845  1.00  0.00     0.261 C 
ENDBRANCH  28  29
ENDBRANCH  27  28
ENDBRANCH  10  27
TORSDOF 9
ENDMDL
MODEL 6
REMARK VINA RESULT:      -7.5      1.407      1.910
REMARK  9 active torsions:
REMARK  status: ('A' for Active; 'I' for Inactive)
REMARK    1  A    between atoms: N_5  and  C_6 
REMARK    2  A    between atoms: C_6  and  C_7 
REMARK    3  A    between atoms: C_7  and  O_8 
REMARK    4  A    between atoms: C_7  and  C_9 
REMARK    5  A    between atoms: C_9  and  O_10 
REMARK    6  A    between atoms: O_10  and  C_11 
REMARK    7  A    between atoms: N_23  and  C_24 
REMARK    8  A    between atoms: C_24  and  C_25 
REMARK    9  A    between atoms: C_25  and  N_26 
ROOT
HETATM    1  C   UNL     1     -45.878  60.673 -52.561  1.00  0.00     0.002 A 
HETATM    2  C   UNL     1     -45.556  59.987 -53.735  1.00  0.00     0.032 A 
HETATM    3  C   UNL     1     -44.411  59.216 -53.720  1.00  0.00     0.079 A 
HETATM    4  C   UNL     1     -43.593  59.100 -52.567  1.00  0.00     0.079 A 
HETATM    5  N   UNL     1     -42.533  58.244 -52.870  1.00  0.00    -0.179 N 
HETATM    6  C   UNL     1     -42.702  57.813 -54.213  1.00  0.00     0.681 A 
HETATM    7  N   UNL     1     -41.893  56.937 -54.845  1.00  0.00    -0.234 N 
HETATM    8  H   UNL     1     -42.065  56.579 -55.773  1.00  0.00     0.174 HD
HETATM    9  H   UNL     1     -41.058  56.590 -54.381  1.00  0.00     0.174 HD
HETATM   10  N   UNL     1     -43.841  58.409 -54.775  1.00  0.00    -0.180 N 
HETATM   11  C   UNL     1     -43.915  59.775 -51.410  1.00  0.00     0.032 A 
HETATM   12  C   UNL     1     -45.066  60.569 -51.416  1.00  0.00     0.002 A 
ENDROOT
BRANCH   5  13
HETATM   13  C   UNL     1     -41.651  57.709 -51.844  1.00  0.00     0.181 C 
BRANCH  13  14
HETATM   14  C   UNL     1     -42.319  56.637 -50.957  1.00  0.00     0.161 C 
BRANCH  14  15
HETATM   15  O   UNL     1     -41.610  56.595 -49.718  1.00  0.00    -0.392 OA
HETATM   16  H   UNL     1     -42.269  56.461 -49.008  1.00  0.00     0.210 HD
ENDBRANCH  14  15
BRANCH  14  17
HETATM   17  C   UNL     1     -42.262  55.249 -51.604  1.00  0.00     0.209 C 
BRANCH  17  18
HETATM   18  O   UNL     1     -41.146  55.173 -52.492  1.00  0.00    -0.347 OA
BRANCH  18  19
HETATM   19  C   UNL     1     -40.692  53.902 -52.742  1.00  0.00     0.090 A 
HETATM   20  C   UNL     1     -40.083  53.025 -51.827  1.00  0.00     0.069 A 
HETATM   21 CL   UNL     1     -39.758  53.440 -50.176  1.00  0.00    -0.081 Cl
HETATM   22  C   UNL     1     -39.670  51.755 -52.243  1.00  0.00     0.050 A 
HETATM   23  C   UNL     1     -39.841  51.366 -53.569  1.00  0.00     0.035 A 
HETATM   24 CL   UNL     1     -39.338  49.801 -54.068  1.00  0.00    -0.084 Cl
HETATM   25  C   UNL     1     -40.408  52.239 -54.491  1.00  0.00     0.026 A 
HETATM   26  C   UNL     1     -40.824  53.508 -54.080  1.00  0.00     0.040 A 
ENDBRANCH  18  19
ENDBRANCH  17  18
ENDBRANCH  14  17
ENDBRANCH  13  14
ENDBRANCH   5  13
BRANCH  10  27
HETATM   27  C   UNL     1     -44.474  58.152 -56.078  1.00  0.00     0.175 C 
BRANCH  27  28
HETATM   28  C   UNL     1     -43.839  58.961 -57.228  1.00  0.00     0.256 C 
BRANCH  28  29
HETATM   29  N   UNL     1     -43.469  58.143 -58.448  1.00  0.00    -0.066 N 
HETATM   30  H   UNL     1     -44.175  58.378 -59.164  1.00  0.00     0.280 HD
HETATM   31  C   UNL     1     -42.123  58.494 -59.088  1.00  0.00     0.261 C 
HETATM   32  C   UNL     1     -41.933  57.682 -60.374  1.00  0.00     0.195 C 
HETATM   33  O   UNL     1     -42.028  56.282 -60.097  1.00  0.00    -0.388 OA
HETATM   34  C   UNL     1     -43.320  55.920 -59.600  1.00  0.00     0.195 C 
HETATM   35  C   UNL     1     -43.594  56.624 -58.266  1.00  0.00     0.261 C 
ENDBRANCH  28  29
ENDBRANCH  27  28
ENDBRANCH  10  27
TORSDOF 9
ENDMDL
MODEL 7
REMARK VINA RESULT:      -7.3      3.027      6.244
REMARK  9 active torsions:
REMARK  status: ('A' for Active; 'I' for Inactive)
REMARK    1  A    between atoms: N_5  and  C_6 
REMARK    2  A    between atoms: C_6  and  C_7 
REMARK    3  A    between atoms: C_7  and  O_8 
REMARK    4  A    between atoms: C_7  and  C_9 
REMARK    5  A    between atoms: C_9  and  O_10 
REMARK    6  A    between atoms: O_10  and  C_11 
REMARK    7  A    between atoms: N_23  and  C_24 
REMARK    8  A    between atoms: C_24  and  C_25 
REMARK    9  A    between atoms: C_25  and  N_26 
ROOT
HETATM    1  C   UNL     1     -41.024  59.870 -50.137  1.00  0.00     0.002 A 
HETATM    2  C   UNL     1     -42.041  60.519 -50.842  1.00  0.00     0.032 A 
HETATM    3  C   UNL     1     -42.825  59.743 -51.672  1.00  0.00     0.079 A 
HETATM    4  C   UNL     1     -42.633  58.346 -51.805  1.00  0.00     0.079 A 
HETATM    5  N   UNL     1     -43.589  57.857 -52.697  1.00  0.00    -0.179 N 
HETATM    6  C   UNL     1     -44.390  58.956 -53.108  1.00  0.00     0.681 A 
HETATM    7  N   UNL     1     -45.451  58.864 -53.937  1.00  0.00    -0.234 N 
HETATM    8  H   UNL     1     -46.060  59.637 -54.162  1.00  0.00     0.174 HD
HETATM    9  H   UNL     1     -45.684  57.973 -54.368  1.00  0.00     0.174 HD
HETATM   10  N   UNL     1     -43.935  60.140 -52.510  1.00  0.00    -0.180 N 
HETATM   11  C   UNL     1     -41.632  57.707 -51.107  1.00  0.00     0.032 A 
HETATM   12  C   UNL     1     -40.822  58.483 -50.272  1.00  0.00     0.002 A 
ENDROOT
BRANCH   5  13
HETATM   13  C   UNL     1     -43.837  56.434 -52.866  1.00  0.00     0.181 C 
BRANCH  13  14
HETATM   14  C   UNL     1     -43.543  55.923 -54.293  1.00  0.00     0.161 C 
BRANCH  14  15
HETATM   15  O   UNL     1     -44.348  54.763 -54.513  1.00  0.00    -0.392 OA
HETATM   16  H   UNL     1     -45.104  54.811 -53.896  1.00  0.00     0.210 HD
ENDBRANCH  14  15
BRANCH  14  17
HETATM   17  C   UNL     1     -42.069  55.540 -54.466  1.00  0.00     0.209 C 
BRANCH  17  18
HETATM   18  O   UNL     1     -41.514  55.167 -53.204  1.00  0.00    -0.347 OA
BRANCH  18  19
HETATM   19  C   UNL     1     -40.971  53.906 -53.162  1.00  0.00     0.090 A 
HETATM   20  C   UNL     1     -40.332  53.296 -52.069  1.00  0.00     0.069 A 
HETATM   21 CL   UNL     1     -40.081  54.085 -50.545  1.00  0.00    -0.081 Cl
HETATM   22  C   UNL     1     -39.826  51.997 -52.188  1.00  0.00     0.050 A 
HETATM   23  C   UNL     1     -39.934  51.316 -53.398  1.00  0.00     0.035 A 
HETATM   24 CL   UNL     1     -39.316  49.719 -53.534  1.00  0.00    -0.084 Cl
HETATM   25  C   UNL     1     -40.531  51.925 -54.498  1.00  0.00     0.026 A 
HETATM   26  C   UNL     1     -41.040  53.220 -54.381  1.00  0.00     0.040 A 
ENDBRANCH  18  19
ENDBRANCH  17  18
ENDBRANCH  14  17
ENDBRANCH  13  14
ENDBRANCH   5  13
BRANCH  10  27
HETATM   27  C   UNL     1     -44.537  61.482 -52.536  1.00  0.00     0.175 C 
BRANCH  27  28
HETATM   28  C   UNL     1     -45.647  61.668 -51.479  1.00  0.00     0.256 C 
BRANCH  28  29
HETATM   29  N   UNL     1     -45.148  62.025 -50.094  1.00  0.00    -0.066 N 
HETATM   30  H   UNL     1     -44.118  62.006 -50.157  1.00  0.00     0.280 HD
HETATM   31  C   UNL     1     -45.491  63.440 -49.619  1.00  0.00     0.261 C 
HETATM   32  C   UNL     1     -44.825  63.707 -48.265  1.00  0.00     0.195 C 
HETATM   33  O   UNL     1     -45.232  62.725 -47.308  1.00  0.00    -0.388 OA
HETATM   34  C   UNL     1     -44.822  61.407 -47.685  1.00  0.00     0.195 C 
HETATM   35  C   UNL     1     -45.488  60.999 -49.004  1.00  0.00     0.261 C 
ENDBRANCH  28  29
ENDBRANCH  27  28
ENDBRANCH  10  27
TORSDOF 9
ENDMDL
MODEL 8
REMARK VINA RESULT:      -7.2      3.499      7.393
REMARK  9 active torsions:
REMARK  status: ('A' for Active; 'I' for Inactive)
REMARK    1  A    between atoms: N_5  and  C_6 
REMARK    2  A    between atoms: C_6  and  C_7 
REMARK    3  A    between atoms: C_7  and  O_8 
REMARK    4  A    between atoms: C_7  and  C_9 
REMARK    5  A    between atoms: C_9  and  O_10 
REMARK    6  A    between atoms: O_10  and  C_11 
REMARK    7  A    between atoms: N_23  and  C_24 
REMARK    8  A    between atoms: C_24  and  C_25 
REMARK    9  A    between atoms: C_25  and  N_26 
ROOT
HETATM    1  C   UNL     1     -40.685  57.940 -50.407  1.00  0.00     0.002 A 
HETATM    2  C   UNL     1     -41.057  56.674 -50.865  1.00  0.00     0.032 A 
HETATM    3  C   UNL     1     -41.817  56.619 -52.017  1.00  0.00     0.079 A 
HETATM    4  C   UNL     1     -42.198  57.785 -52.727  1.00  0.00     0.079 A 
HETATM    5  N   UNL     1     -42.938  57.392 -53.843  1.00  0.00    -0.179 N 
HETATM    6  C   UNL     1     -43.002  55.973 -53.836  1.00  0.00     0.681 A 
HETATM    7  N   UNL     1     -43.598  55.228 -54.789  1.00  0.00    -0.234 N 
HETATM    8  H   UNL     1     -43.573  54.219 -54.815  1.00  0.00     0.174 HD
HETATM    9  H   UNL     1     -44.104  55.680 -55.547  1.00  0.00     0.174 HD
HETATM   10  N   UNL     1     -42.337  55.462 -52.711  1.00  0.00    -0.180 N 
HETATM   11  C   UNL     1     -41.827  59.032 -52.275  1.00  0.00     0.032 A 
HETATM   12  C   UNL     1     -41.068  59.102 -51.103  1.00  0.00     0.002 A 
ENDROOT
BRANCH   5  13
HETATM   13  C   UNL     1     -43.267  58.315 -54.919  1.00  0.00     0.181 C 
BRANCH  13  14
HETATM   14  C   UNL     1     -42.131  58.489 -55.949  1.00  0.00     0.161 C 
BRANCH  14  15
HETATM   15  O   UNL     1     -41.757  59.868 -55.955  1.00  0.00    -0.392 OA
HETATM   16  H   UNL     1     -42.552  60.386 -56.193  1.00  0.00     0.210 HD
ENDBRANCH  14  15
BRANCH  14  17
HETATM   17  C   UNL     1     -42.578  58.095 -57.361  1.00  0.00     0.209 C 
BRANCH  17  18
HETATM   18  O   UNL     1     -43.420  56.942 -57.298  1.00  0.00    -0.347 OA
BRANCH  18  19
HETATM   19  C   UNL     1     -44.433  56.916 -58.225  1.00  0.00     0.090 A 
HETATM   20  C   UNL     1     -45.610  57.685 -58.214  1.00  0.00     0.069 A 
HETATM   21 CL   UNL     1     -46.006  58.810 -56.956  1.00  0.00    -0.081 Cl
HETATM   22  C   UNL     1     -46.553  57.538 -59.237  1.00  0.00     0.050 A 
HETATM   23  C   UNL     1     -46.337  56.611 -60.254  1.00  0.00     0.035 A 
HETATM   24 CL   UNL     1     -47.498  56.441 -61.509  1.00  0.00    -0.084 Cl
HETATM   25  C   UNL     1     -45.194  55.818 -60.254  1.00  0.00     0.026 A 
HETATM   26  C   UNL     1     -44.249  55.965 -59.236  1.00  0.00     0.040 A 
ENDBRANCH  18  19
ENDBRANCH  17  18
ENDBRANCH  14  17
ENDBRANCH  13  14
ENDBRANCH   5  13
BRANCH  10  27
HETATM   27  C   UNL     1     -42.033  54.064 -52.370  1.00  0.00     0.175 C 
BRANCH  27  28
HETATM   28  C   UNL     1     -40.695  53.574 -52.963  1.00  0.00     0.256 C 
BRANCH  28  29
HETATM   29  N   UNL     1     -40.545  52.068 -53.027  1.00  0.00    -0.066 N 
HETATM   30  H   UNL     1     -41.478  51.687 -52.803  1.00  0.00     0.280 HD
HETATM   31  C   UNL     1     -40.206  51.502 -54.409  1.00  0.00     0.261 C 
HETATM   32  C   UNL     1     -40.207  49.969 -54.355  1.00  0.00     0.195 C 
HETATM   33  O   UNL     1     -39.285  49.507 -53.364  1.00  0.00    -0.388 OA
HETATM   34  C   UNL     1     -39.651  49.938 -52.049  1.00  0.00     0.195 C 
HETATM   35  C   UNL     1     -39.616  51.469 -51.962  1.00  0.00     0.261 C 
ENDBRANCH  28  29
ENDBRANCH  27  28
ENDBRANCH  10  27
TORSDOF 9
ENDMDL
MODEL 9
REMARK VINA RESULT:      -7.2      1.980      3.191
REMARK  9 active torsions:
REMARK  status: ('A' for Active; 'I' for Inactive)
REMARK    1  A    between atoms: N_5  and  C_6 
REMARK    2  A    between atoms: C_6  and  C_7 
REMARK    3  A    between atoms: C_7  and  O_8 
REMARK    4  A    between atoms: C_7  and  C_9 
REMARK    5  A    between atoms: C_9  and  O_10 
REMARK    6  A    between atoms: O_10  and  C_11 
REMARK    7  A    between atoms: N_23  and  C_24 
REMARK    8  A    between atoms: C_24  and  C_25 
REMARK    9  A    between atoms: C_25  and  N_26 
ROOT
HETATM    1  C   UNL     1     -42.807  55.138 -56.715  1.00  0.00     0.002 A 
HETATM    2  C   UNL     1     -42.584  56.516 -56.635  1.00  0.00     0.032 A 
HETATM    3  C   UNL     1     -42.943  57.144 -55.460  1.00  0.00     0.079 A 
HETATM    4  C   UNL     1     -43.500  56.438 -54.364  1.00  0.00     0.079 A 
HETATM    5  N   UNL     1     -43.734  57.348 -53.333  1.00  0.00    -0.179 N 
HETATM    6  C   UNL     1     -43.305  58.625 -53.784  1.00  0.00     0.681 A 
HETATM    7  N   UNL     1     -43.333  59.750 -53.040  1.00  0.00    -0.234 N 
HETATM    8  H   UNL     1     -42.956  60.637 -53.343  1.00  0.00     0.174 HD
HETATM    9  H   UNL     1     -43.742  59.736 -52.109  1.00  0.00     0.174 HD
HETATM   10  N   UNL     1     -42.829  58.541 -55.101  1.00  0.00    -0.180 N 
HETATM   11  C   UNL     1     -43.715  55.080 -54.444  1.00  0.00     0.032 A 
HETATM   12  C   UNL     1     -43.367  54.432 -55.633  1.00  0.00     0.002 A 
ENDROOT
BRANCH   5  13
HETATM   13  C   UNL     1     -44.063  56.921 -51.981  1.00  0.00     0.181 C 
BRANCH  13  14
HETATM   14  C   UNL     1     -42.823  56.671 -51.097  1.00  0.00     0.161 C 
BRANCH  14  15
HETATM   15  O   UNL     1     -41.782  57.537 -51.552  1.00  0.00    -0.392 OA
HETATM   16  H   UNL     1     -41.927  57.692 -52.507  1.00  0.00     0.210 HD
ENDBRANCH  14  15
BRANCH  14  17
HETATM   17  C   UNL     1     -42.336  55.221 -51.199  1.00  0.00     0.209 C 
BRANCH  17  18
HETATM   18  O   UNL     1     -41.029  55.188 -51.774  1.00  0.00    -0.347 OA
BRANCH  18  19
HETATM   19  C   UNL     1     -40.634  53.958 -52.240  1.00  0.00     0.090 A 
HETATM   20  C   UNL     1     -40.297  52.831 -51.471  1.00  0.00     0.069 A 
HETATM   21 CL   UNL     1     -40.288  52.822 -49.738  1.00  0.00    -0.081 Cl
HETATM   22  C   UNL     1     -39.908  51.644 -52.101  1.00  0.00     0.050 A 
HETATM   23  C   UNL     1     -39.831  51.586 -53.491  1.00  0.00     0.035 A 
HETATM   24 CL   UNL     1     -39.359  50.122 -54.256  1.00  0.00    -0.084 Cl
HETATM   25  C   UNL     1     -40.126  52.707 -54.260  1.00  0.00     0.026 A 
HETATM   26  C   UNL     1     -40.518  53.893 -53.634  1.00  0.00     0.040 A 
ENDBRANCH  18  19
ENDBRANCH  17  18
ENDBRANCH  14  17
ENDBRANCH  13  14
ENDBRANCH   5  13
BRANCH  10  27
HETATM   27  C   UNL     1     -42.165  59.571 -55.914  1.00  0.00     0.175 C 
BRANCH  27  28
HETATM   28  C   UNL     1     -43.153  60.401 -56.761  1.00  0.00     0.256 C 
BRANCH  28  29
HETATM   29  N   UNL     1     -43.305  59.935 -58.194  1.00  0.00    -0.066 N 
HETATM   30  H   UNL     1     -43.510  60.785 -58.742  1.00  0.00     0.280 HD
HETATM   31  C   UNL     1     -42.040  59.349 -58.829  1.00  0.00     0.261 C 
HETATM   32  C   UNL     1     -42.301  59.035 -60.307  1.00  0.00     0.195 C 
HETATM   33  O   UNL     1     -43.410  58.142 -60.437  1.00  0.00    -0.388 OA
HETATM   34  C   UNL     1     -44.624  58.718 -59.946  1.00  0.00     0.195 C 
HETATM   35  C   UNL     1     -44.505  59.013 -58.446  1.00  0.00     0.261 C 
ENDBRANCH  28  29
ENDBRANCH  27  28
ENDBRANCH  10  27
TORSDOF 9
ENDMDL
MODEL 10
REMARK VINA RESULT:      -7.1      3.389      7.626
REMARK  9 active torsions:
REMARK  status: ('A' for Active; 'I' for Inactive)
REMARK    1  A    between atoms: N_5  and  C_6 
REMARK    2  A    between atoms: C_6  and  C_7 
REMARK    3  A    between atoms: C_7  and  O_8 
REMARK    4  A    between atoms: C_7  and  C_9 
REMARK    5  A    between atoms: C_9  and  O_10 
REMARK    6  A    between atoms: O_10  and  C_11 
REMARK    7  A    between atoms: N_23  and  C_24 
REMARK    8  A    between atoms: C_24  and  C_25 
REMARK    9  A    between atoms: C_25  and  N_26 
ROOT
HETATM    1  C   UNL     1     -40.682  58.275 -50.308  1.00  0.00     0.002 A 
HETATM    2  C   UNL     1     -40.872  56.893 -50.380  1.00  0.00     0.032 A 
HETATM    3  C   UNL     1     -41.442  56.395 -51.535  1.00  0.00     0.079 A 
HETATM    4  C   UNL     1     -41.810  57.232 -52.618  1.00  0.00     0.079 A 
HETATM    5  N   UNL     1     -42.337  56.429 -53.630  1.00  0.00    -0.179 N 
HETATM    6  C   UNL     1     -42.280  55.083 -53.180  1.00  0.00     0.681 A 
HETATM    7  N   UNL     1     -42.661  54.013 -53.910  1.00  0.00    -0.234 N 
HETATM    8  H   UNL     1     -42.547  53.056 -53.610  1.00  0.00     0.174 HD
HETATM    9  H   UNL     1     -43.083  54.146 -54.825  1.00  0.00     0.174 HD
HETATM   10  N   UNL     1     -41.751  55.026 -51.882  1.00  0.00    -0.180 N 
HETATM   11  C   UNL     1     -41.619  58.594 -52.546  1.00  0.00     0.032 A 
HETATM   12  C   UNL     1     -41.053  59.113 -51.377  1.00  0.00     0.002 A 
ENDROOT
BRANCH   5  13
HETATM   13  C   UNL     1     -42.577  56.932 -54.974  1.00  0.00     0.181 C 
BRANCH  13  14
HETATM   14  C   UNL     1     -44.048  57.328 -55.228  1.00  0.00     0.161 C 
BRANCH  14  15
HETATM   15  O   UNL     1     -44.873  56.264 -54.751  1.00  0.00    -0.392 OA
HETATM   16  H   UNL     1     -44.796  56.248 -53.777  1.00  0.00     0.210 HD
ENDBRANCH  14  15
BRANCH  14  17
HETATM   17  C   UNL     1     -44.329  57.538 -56.720  1.00  0.00     0.209 C 
BRANCH  17  18
HETATM   18  O   UNL     1     -43.148  57.271 -57.478  1.00  0.00    -0.347 OA
BRANCH  18  19
HETATM   19  C   UNL     1     -42.829  58.230 -58.407  1.00  0.00     0.090 A 
HETATM   20  C   UNL     1     -43.150  58.223 -59.776  1.00  0.00     0.069 A 
HETATM   21 CL   UNL     1     -44.005  56.930 -60.551  1.00  0.00    -0.081 Cl
HETATM   22  C   UNL     1     -42.746  59.282 -60.596  1.00  0.00     0.050 A 
HETATM   23  C   UNL     1     -42.003  60.332 -60.062  1.00  0.00     0.035 A 
HETATM   24 CL   UNL     1     -41.516  61.631 -61.075  1.00  0.00    -0.084 Cl
HETATM   25  C   UNL     1     -41.647  60.330 -58.717  1.00  0.00     0.026 A 
HETATM   26  C   UNL     1     -42.051  59.277 -57.894  1.00  0.00     0.040 A 
ENDBRANCH  18  19
ENDBRANCH  17  18
ENDBRANCH  14  17
ENDBRANCH  13  14
ENDBRANCH   5  13
BRANCH  10  27
HETATM   27  C   UNL     1     -41.385  53.848 -51.081  1.00  0.00     0.175 C 
BRANCH  27  28
HETATM   28  C   UNL     1     -40.040  53.222 -51.507  1.00  0.00     0.256 C 
BRANCH  28  29
HETATM   29  N   UNL     1     -40.157  51.875 -52.191  1.00  0.00    -0.066 N 
HETATM   30  H   UNL     1     -41.153  51.612 -52.117  1.00  0.00     0.280 HD
HETATM   31  C   UNL     1     -39.857  51.876 -53.693  1.00  0.00     0.261 C 
HETATM   32  C   UNL     1     -40.133  50.485 -54.277  1.00  0.00     0.195 C 
HETATM   33  O   UNL     1     -39.358  49.497 -53.592  1.00  0.00    -0.388 OA
HETATM   34  C   UNL     1     -39.704  49.408 -52.207  1.00  0.00     0.195 C 
HETATM   35  C   UNL     1     -39.403  50.733 -51.496  1.00  0.00     0.261 C 
ENDBRANCH  28  29
ENDBRANCH  27  28
ENDBRANCH  10  27
TORSDOF 9
ENDMDL
