MODEL 1
REMARK VINA RESULT:      -8.6      0.000      0.000
REMARK  5 active torsions:
REMARK  status: ('A' for Active; 'I' for Inactive)
REMARK    1  A    between atoms: C_3  and  O_4 
REMARK    2  A    between atoms: C_6  and  N_7 
REMARK       I    between atoms: N_7  and  C_8 
REMARK    3  A    between atoms: C_8  and  C_9 
REMARK    4  A    between atoms: C_14  and  C_15 
REMARK    5  A    between atoms: C_23  and  C_24 
ROOT
HETATM    1  C   UNL     1     -44.136  59.493 -51.097  1.00  0.00     0.148 A 
HETATM    2  N   UNL     1     -43.227  59.552 -52.099  1.00  0.00    -0.165 NA
HETATM    3  N   UNL     1     -43.182  58.287 -52.556  1.00  0.00    -0.240 N 
HETATM    4  C   UNL     1     -44.050  57.438 -51.929  1.00  0.00     0.123 A 
HETATM    5  N   UNL     1     -44.173  56.145 -52.296  1.00  0.00    -0.366 N 
HETATM    6  C   UNL     1     -43.374  55.546 -53.357  1.00  0.00     0.118 C 
HETATM    7  C   UNL     1     -42.854  56.621 -54.330  1.00  0.00     0.066 C 
HETATM    8  C   UNL     1     -42.325  57.902 -53.659  1.00  0.00     0.221 C 
HETATM    9  C   UNL     1     -44.674  58.183 -50.964  1.00  0.00     0.089 A 
HETATM   10  H   UNL     1     -44.756  55.500 -51.765  1.00  0.00     0.161 HD
ENDROOT
BRANCH   1  11
HETATM   11  C   UNL     1     -44.483  60.672 -50.282  1.00  0.00     0.276 C 
HETATM   12  N   UNL     1     -45.051  60.312 -49.076  1.00  0.00    -0.322 N 
HETATM   13  H   UNL     1     -45.142  59.306 -48.959  1.00  0.00     0.169 HD
HETATM   14  O   UNL     1     -44.277  61.810 -50.690  1.00  0.00    -0.266 OA
BRANCH  12  15
HETATM   15  C   UNL     1     -45.519  61.145 -48.046  1.00  0.00     0.037 A 
HETATM   16  C   UNL     1     -46.637  61.972 -48.158  1.00  0.00     0.066 A 
HETATM   17  C   UNL     1     -47.027  62.765 -47.078  1.00  0.00     0.067 A 
HETATM   18  C   UNL     1     -46.321  62.748 -45.880  1.00  0.00     0.036 A 
HETATM   19  C   UNL     1     -45.203  61.925 -45.762  1.00  0.00     0.005 A 
HETATM   20  C   UNL     1     -44.804  61.129 -46.841  1.00  0.00     0.029 A 
BRANCH  17  21
HETATM   21  O   UNL     1     -48.125  63.560 -47.237  1.00  0.00    -0.361 OA
HETATM   22  H   UNL     1     -48.678  63.491 -46.444  1.00  0.00     0.217 HD
ENDBRANCH  17  21
ENDBRANCH  12  15
ENDBRANCH   1  11
BRANCH   8  23
HETATM   23  C   UNL     1     -40.888  57.811 -53.198  1.00  0.00     0.409 C 
HETATM   24  F   UNL     1     -40.750  57.496 -51.897  1.00  0.00    -0.169 F 
HETATM   25  F   UNL     1     -40.228  56.863 -53.912  1.00  0.00    -0.169 F 
HETATM   26  F   UNL     1     -40.221  58.970 -53.406  1.00  0.00    -0.169 F 
ENDBRANCH   8  23
BRANCH   6  27
HETATM   27  C   UNL     1     -42.314  54.593 -52.829  1.00  0.00    -0.035 A 
HETATM   28  C   UNL     1     -41.577  53.817 -53.746  1.00  0.00     0.012 A 
HETATM   29  C   UNL     1     -40.608  52.912 -53.307  1.00  0.00     0.043 A 
HETATM   30  C   UNL     1     -40.366  52.775 -51.947  1.00  0.00     0.116 A 
HETATM   31  F   UNL     1     -39.436  51.908 -51.526  1.00  0.00    -0.206 F 
HETATM   32  C   UNL     1     -41.077  53.523 -51.019  1.00  0.00     0.043 A 
HETATM   33  C   UNL     1     -42.052  54.423 -51.458  1.00  0.00     0.012 A 
ENDBRANCH   6  27
TORSDOF 5
ENDMDL
MODEL 2
REMARK VINA RESULT:      -8.3     18.779     20.581
REMARK  5 active torsions:
REMARK  status: ('A' for Active; 'I' for Inactive)
REMARK    1  A    between atoms: C_3  and  O_4 
REMARK    2  A    between atoms: C_6  and  N_7 
REMARK       I    between atoms: N_7  and  C_8 
REMARK    3  A    between atoms: C_8  and  C_9 
REMARK    4  A    between atoms: C_14  and  C_15 
REMARK    5  A    between atoms: C_23  and  C_24 
ROOT
HETATM    1  C   UNL     1     -35.569  40.867 -52.271  1.00  0.00     0.148 A 
HETATM    2  N   UNL     1     -34.587  41.061 -53.182  1.00  0.00    -0.165 NA
HETATM    3  N   UNL     1     -35.255  41.440 -54.287  1.00  0.00    -0.240 N 
HETATM    4  C   UNL     1     -36.606  41.545 -54.111  1.00  0.00     0.123 A 
HETATM    5  N   UNL     1     -37.423  41.962 -55.101  1.00  0.00    -0.366 N 
HETATM    6  C   UNL     1     -36.941  42.300 -56.434  1.00  0.00     0.118 C 
HETATM    7  C   UNL     1     -35.447  42.674 -56.402  1.00  0.00     0.066 C 
HETATM    8  C   UNL     1     -34.569  41.764 -55.522  1.00  0.00     0.221 C 
HETATM    9  C   UNL     1     -36.847  41.164 -52.819  1.00  0.00     0.089 A 
HETATM   10  H   UNL     1     -38.436  41.951 -54.988  1.00  0.00     0.161 HD
ENDROOT
BRANCH   1  11
HETATM   11  C   UNL     1     -35.286  40.407 -50.898  1.00  0.00     0.276 C 
HETATM   12  N   UNL     1     -33.975  39.998 -50.755  1.00  0.00    -0.322 N 
HETATM   13  H   UNL     1     -33.435  40.074 -51.613  1.00  0.00     0.169 HD
HETATM   14  O   UNL     1     -36.159  40.402 -50.037  1.00  0.00    -0.266 OA
BRANCH  12  15
HETATM   15  C   UNL     1     -33.337  39.490 -49.611  1.00  0.00     0.037 A 
HETATM   16  C   UNL     1     -32.136  39.985 -49.102  1.00  0.00     0.066 A 
HETATM   17  C   UNL     1     -31.578  39.416 -47.958  1.00  0.00     0.067 A 
HETATM   18  C   UNL     1     -32.199  38.357 -47.304  1.00  0.00     0.036 A 
HETATM   19  C   UNL     1     -33.398  37.857 -47.808  1.00  0.00     0.005 A 
HETATM   20  C   UNL     1     -33.963  38.421 -48.956  1.00  0.00     0.029 A 
BRANCH  17  21
HETATM   21  O   UNL     1     -30.400  39.932 -47.501  1.00  0.00    -0.361 OA
HETATM   22  H   UNL     1     -30.064  40.568 -48.151  1.00  0.00     0.217 HD
ENDBRANCH  17  21
ENDBRANCH  12  15
ENDBRANCH   1  11
BRANCH   8  23
HETATM   23  C   UNL     1     -34.105  40.501 -56.209  1.00  0.00     0.409 C 
HETATM   24  F   UNL     1     -34.845  39.416 -55.918  1.00  0.00    -0.169 F 
HETATM   25  F   UNL     1     -34.143  40.662 -57.557  1.00  0.00    -0.169 F 
HETATM   26  F   UNL     1     -32.819  40.207 -55.902  1.00  0.00    -0.169 F 
ENDBRANCH   8  23
BRANCH   6  27
HETATM   27  C   UNL     1     -37.319  41.262 -57.477  1.00  0.00    -0.035 A 
HETATM   28  C   UNL     1     -37.106  41.554 -58.839  1.00  0.00     0.012 A 
HETATM   29  C   UNL     1     -37.457  40.640 -59.835  1.00  0.00     0.043 A 
HETATM   30  C   UNL     1     -38.026  39.424 -59.479  1.00  0.00     0.116 A 
HETATM   31  F   UNL     1     -38.362  38.547 -60.434  1.00  0.00    -0.206 F 
HETATM   32  C   UNL     1     -38.251  39.108 -58.146  1.00  0.00     0.043 A 
HETATM   33  C   UNL     1     -37.906  40.026 -57.151  1.00  0.00     0.012 A 
ENDBRANCH   6  27
TORSDOF 5
ENDMDL
MODEL 3
REMARK VINA RESULT:      -8.3      7.030     10.148
REMARK  5 active torsions:
REMARK  status: ('A' for Active; 'I' for Inactive)
REMARK    1  A    between atoms: C_3  and  O_4 
REMARK    2  A    between atoms: C_6  and  N_7 
REMARK       I    between atoms: N_7  and  C_8 
REMARK    3  A    between atoms: C_8  and  C_9 
REMARK    4  A    between atoms: C_14  and  C_15 
REMARK    5  A    between atoms: C_23  and  C_24 
ROOT
HETATM    1  C   UNL     1     -42.728  55.495 -55.820  1.00  0.00     0.148 A 
HETATM    2  N   UNL     1     -42.630  55.158 -57.128  1.00  0.00    -0.165 NA
HETATM    3  N   UNL     1     -42.926  56.305 -57.769  1.00  0.00    -0.240 N 
HETATM    4  C   UNL     1     -43.159  57.363 -56.937  1.00  0.00     0.123 A 
HETATM    5  N   UNL     1     -43.420  58.599 -57.412  1.00  0.00    -0.366 N 
HETATM    6  C   UNL     1     -43.507  58.895 -58.836  1.00  0.00     0.118 C 
HETATM    7  C   UNL     1     -42.734  57.853 -59.666  1.00  0.00     0.066 C 
HETATM    8  C   UNL     1     -42.928  56.393 -59.216  1.00  0.00     0.221 C 
HETATM    9  C   UNL     1     -43.055  56.870 -55.664  1.00  0.00     0.089 A 
HETATM   10  H   UNL     1     -43.680  59.359 -56.786  1.00  0.00     0.161 HD
ENDROOT
BRANCH   1  11
HETATM   11  C   UNL     1     -42.509  54.515 -54.740  1.00  0.00     0.276 C 
HETATM   12  N   UNL     1     -41.257  53.937 -54.819  1.00  0.00    -0.322 N 
HETATM   13  H   UNL     1     -40.708  54.274 -55.605  1.00  0.00     0.169 HD
HETATM   14  O   UNL     1     -43.380  54.279 -53.910  1.00  0.00    -0.266 OA
BRANCH  12  15
HETATM   15  C   UNL     1     -40.691  52.961 -53.982  1.00  0.00     0.037 A 
HETATM   16  C   UNL     1     -40.373  51.667 -54.396  1.00  0.00     0.066 A 
HETATM   17  C   UNL     1     -39.811  50.765 -53.493  1.00  0.00     0.067 A 
HETATM   18  C   UNL     1     -39.555  51.130 -52.175  1.00  0.00     0.036 A 
HETATM   19  C   UNL     1     -39.871  52.421 -51.755  1.00  0.00     0.005 A 
HETATM   20  C   UNL     1     -40.437  53.330 -52.655  1.00  0.00     0.029 A 
BRANCH  17  21
HETATM   21  O   UNL     1     -39.521  49.510 -53.944  1.00  0.00    -0.361 OA
HETATM   22  H   UNL     1     -38.610  49.291 -53.697  1.00  0.00     0.217 HD
ENDBRANCH  17  21
ENDBRANCH  12  15
ENDBRANCH   1  11
BRANCH   8  23
HETATM   23  C   UNL     1     -44.165  55.731 -59.779  1.00  0.00     0.409 C 
HETATM   24  F   UNL     1     -45.272  55.920 -59.038  1.00  0.00    -0.169 F 
HETATM   25  F   UNL     1     -44.428  56.213 -61.021  1.00  0.00    -0.169 F 
HETATM   26  F   UNL     1     -43.998  54.395 -59.922  1.00  0.00    -0.169 F 
ENDBRANCH   8  23
BRANCH   6  27
HETATM   27  C   UNL     1     -44.932  59.152 -59.297  1.00  0.00    -0.035 A 
HETATM   28  C   UNL     1     -45.981  59.049 -58.362  1.00  0.00     0.012 A 
HETATM   29  C   UNL     1     -47.309  59.256 -58.744  1.00  0.00     0.043 A 
HETATM   30  C   UNL     1     -47.601  59.567 -60.065  1.00  0.00     0.116 A 
HETATM   31  F   UNL     1     -48.874  59.766 -60.431  1.00  0.00    -0.206 F 
HETATM   32  C   UNL     1     -46.590  59.672 -61.010  1.00  0.00     0.043 A 
HETATM   33  C   UNL     1     -45.263  59.459 -60.629  1.00  0.00     0.012 A 
ENDBRANCH   6  27
TORSDOF 5
ENDMDL
MODEL 4
REMARK VINA RESULT:      -8.2      4.030      9.196
REMARK  5 active torsions:
REMARK  status: ('A' for Active; 'I' for Inactive)
REMARK    1  A    between atoms: C_3  and  O_4 
REMARK    2  A    between atoms: C_6  and  N_7 
REMARK       I    between atoms: N_7  and  C_8 
REMARK    3  A    between atoms: C_8  and  C_9 
REMARK    4  A    between atoms: C_14  and  C_15 
REMARK    5  A    between atoms: C_23  and  C_24 
ROOT
HETATM    1  C   UNL     1     -41.836  55.682 -52.207  1.00  0.00     0.148 A 
HETATM    2  N   UNL     1     -42.555  56.216 -53.222  1.00  0.00    -0.165 NA
HETATM    3  N   UNL     1     -42.431  57.543 -53.029  1.00  0.00    -0.240 N 
HETATM    4  C   UNL     1     -41.631  57.879 -51.973  1.00  0.00     0.123 A 
HETATM    5  N   UNL     1     -41.357  59.164 -51.668  1.00  0.00    -0.366 N 
HETATM    6  C   UNL     1     -41.912  60.288 -52.411  1.00  0.00     0.118 C 
HETATM    7  C   UNL     1     -42.325  59.861 -53.833  1.00  0.00     0.066 C 
HETATM    8  C   UNL     1     -43.051  58.506 -53.917  1.00  0.00     0.221 C 
HETATM    9  C   UNL     1     -41.241  56.696 -51.406  1.00  0.00     0.089 A 
HETATM   10  H   UNL     1     -40.834  59.406 -50.828  1.00  0.00     0.161 HD
ENDROOT
BRANCH   1  11
HETATM   11  C   UNL     1     -41.721  54.225 -52.009  1.00  0.00     0.276 C 
HETATM   12  N   UNL     1     -40.705  53.684 -52.773  1.00  0.00    -0.322 N 
HETATM   13  H   UNL     1     -40.221  54.372 -53.343  1.00  0.00     0.169 HD
HETATM   14  O   UNL     1     -42.475  53.624 -51.252  1.00  0.00    -0.266 OA
BRANCH  12  15
HETATM   15  C   UNL     1     -40.299  52.342 -52.863  1.00  0.00     0.037 A 
HETATM   16  C   UNL     1     -39.831  51.593 -51.783  1.00  0.00     0.066 A 
HETATM   17  C   UNL     1     -39.450  50.264 -51.969  1.00  0.00     0.067 A 
HETATM   18  C   UNL     1     -39.530  49.661 -53.220  1.00  0.00     0.036 A 
HETATM   19  C   UNL     1     -39.996  50.404 -54.304  1.00  0.00     0.005 A 
HETATM   20  C   UNL     1     -40.376  51.738 -54.125  1.00  0.00     0.029 A 
BRANCH  17  21
HETATM   21  O   UNL     1     -38.996  49.575 -50.883  1.00  0.00    -0.361 OA
HETATM   22  H   UNL     1     -39.584  48.822 -50.722  1.00  0.00     0.217 HD
ENDBRANCH  17  21
ENDBRANCH  12  15
ENDBRANCH   1  11
BRANCH   8  23
HETATM   23  C   UNL     1     -44.537  58.582 -53.650  1.00  0.00     0.409 C 
HETATM   24  F   UNL     1     -45.257  57.644 -54.291  1.00  0.00    -0.169 F 
HETATM   25  F   UNL     1     -44.780  58.437 -52.322  1.00  0.00    -0.169 F 
HETATM   26  F   UNL     1     -45.046  59.789 -53.995  1.00  0.00    -0.169 F 
ENDBRANCH   8  23
BRANCH   6  27
HETATM   27  C   UNL     1     -42.981  61.038 -51.633  1.00  0.00    -0.035 A 
HETATM   28  C   UNL     1     -43.248  60.658 -50.302  1.00  0.00     0.012 A 
HETATM   29  C   UNL     1     -44.235  61.304 -49.554  1.00  0.00     0.043 A 
HETATM   30  C   UNL     1     -44.965  62.336 -50.129  1.00  0.00     0.116 A 
HETATM   31  F   UNL     1     -45.911  62.955 -49.411  1.00  0.00    -0.206 F 
HETATM   32  C   UNL     1     -44.727  62.730 -51.438  1.00  0.00     0.043 A 
HETATM   33  C   UNL     1     -43.744  62.079 -52.188  1.00  0.00     0.012 A 
ENDBRANCH   6  27
TORSDOF 5
ENDMDL
MODEL 5
REMARK VINA RESULT:      -8.2      4.008      9.156
REMARK  5 active torsions:
REMARK  status: ('A' for Active; 'I' for Inactive)
REMARK    1  A    between atoms: C_3  and  O_4 
REMARK    2  A    between atoms: C_6  and  N_7 
REMARK       I    between atoms: N_7  and  C_8 
REMARK    3  A    between atoms: C_8  and  C_9 
REMARK    4  A    between atoms: C_14  and  C_15 
REMARK    5  A    between atoms: C_23  and  C_24 
ROOT
HETATM    1  C   UNL     1     -41.461  55.796 -51.531  1.00  0.00     0.148 A 
HETATM    2  N   UNL     1     -42.176  56.206 -52.606  1.00  0.00    -0.165 NA
HETATM    3  N   UNL     1     -42.281  57.535 -52.424  1.00  0.00    -0.240 N 
HETATM    4  C   UNL     1     -41.629  57.998 -51.316  1.00  0.00     0.123 A 
HETATM    5  N   UNL     1     -41.587  59.312 -51.011  1.00  0.00    -0.366 N 
HETATM    6  C   UNL     1     -42.257  60.330 -51.810  1.00  0.00     0.118 C 
HETATM    7  C   UNL     1     -42.485  59.838 -53.252  1.00  0.00     0.066 C 
HETATM    8  C   UNL     1     -42.977  58.384 -53.371  1.00  0.00     0.221 C 
HETATM    9  C   UNL     1     -41.099  56.895 -50.703  1.00  0.00     0.089 A 
HETATM   10  H   UNL     1     -41.176  59.637 -50.137  1.00  0.00     0.161 HD
ENDROOT
BRANCH   1  11
HETATM   11  C   UNL     1     -41.129  54.378 -51.304  1.00  0.00     0.276 C 
HETATM   12  N   UNL     1     -40.701  53.760 -52.462  1.00  0.00    -0.322 N 
HETATM   13  H   UNL     1     -40.696  54.378 -53.269  1.00  0.00     0.169 HD
HETATM   14  O   UNL     1     -41.253  53.865 -50.197  1.00  0.00    -0.266 OA
BRANCH  12  15
HETATM   15  C   UNL     1     -40.310  52.423 -52.647  1.00  0.00     0.037 A 
HETATM   16  C   UNL     1     -39.812  51.607 -51.631  1.00  0.00     0.066 A 
HETATM   17  C   UNL     1     -39.450  50.290 -51.910  1.00  0.00     0.067 A 
HETATM   18  C   UNL     1     -39.576  49.764 -53.192  1.00  0.00     0.036 A 
HETATM   19  C   UNL     1     -40.071  50.574 -54.212  1.00  0.00     0.005 A 
HETATM   20  C   UNL     1     -40.434  51.897 -53.940  1.00  0.00     0.029 A 
BRANCH  17  21
HETATM   21  O   UNL     1     -38.965  49.532 -50.884  1.00  0.00    -0.361 OA
HETATM   22  H   UNL     1     -38.420  48.820 -51.251  1.00  0.00     0.217 HD
ENDBRANCH  17  21
ENDBRANCH  12  15
ENDBRANCH   1  11
BRANCH   8  23
HETATM   23  C   UNL     1     -44.472  58.221 -53.217  1.00  0.00     0.409 C 
HETATM   24  F   UNL     1     -44.883  58.116 -51.941  1.00  0.00    -0.169 F 
HETATM   25  F   UNL     1     -45.115  59.288 -53.758  1.00  0.00    -0.169 F 
HETATM   26  F   UNL     1     -44.928  57.132 -53.880  1.00  0.00    -0.169 F 
ENDBRANCH   8  23
BRANCH   6  27
HETATM   27  C   UNL     1     -43.488  60.901 -51.125  1.00  0.00    -0.035 A 
HETATM   28  C   UNL     1     -44.367  61.713 -51.869  1.00  0.00     0.012 A 
HETATM   29  C   UNL     1     -45.500  62.277 -51.277  1.00  0.00     0.043 A 
HETATM   30  C   UNL     1     -45.765  62.034 -49.936  1.00  0.00     0.116 A 
HETATM   31  F   UNL     1     -46.851  62.574 -49.369  1.00  0.00    -0.206 F 
HETATM   32  C   UNL     1     -44.916  61.240 -49.177  1.00  0.00     0.043 A 
HETATM   33  C   UNL     1     -43.780  60.682 -49.767  1.00  0.00     0.012 A 
ENDBRANCH   6  27
TORSDOF 5
ENDMDL
MODEL 6
REMARK VINA RESULT:      -8.1     18.913     20.616
REMARK  5 active torsions:
REMARK  status: ('A' for Active; 'I' for Inactive)
REMARK    1  A    between atoms: C_3  and  O_4 
REMARK    2  A    between atoms: C_6  and  N_7 
REMARK       I    between atoms: N_7  and  C_8 
REMARK    3  A    between atoms: C_8  and  C_9 
REMARK    4  A    between atoms: C_14  and  C_15 
REMARK    5  A    between atoms: C_23  and  C_24 
ROOT
HETATM    1  C   UNL     1     -36.009  39.452 -52.430  1.00  0.00     0.148 A 
HETATM    2  N   UNL     1     -34.965  39.968 -53.120  1.00  0.00    -0.165 NA
HETATM    3  N   UNL     1     -35.558  40.698 -54.084  1.00  0.00    -0.240 N 
HETATM    4  C   UNL     1     -36.922  40.711 -54.012  1.00  0.00     0.123 A 
HETATM    5  N   UNL     1     -37.674  41.434 -54.869  1.00  0.00    -0.366 N 
HETATM    6  C   UNL     1     -37.099  42.223 -55.950  1.00  0.00     0.118 C 
HETATM    7  C   UNL     1     -35.633  42.588 -55.650  1.00  0.00     0.066 C 
HETATM    8  C   UNL     1     -34.788  41.444 -55.059  1.00  0.00     0.221 C 
HETATM    9  C   UNL     1     -37.251  39.899 -52.960  1.00  0.00     0.089 A 
HETATM   10  H   UNL     1     -38.690  41.366 -54.863  1.00  0.00     0.161 HD
ENDROOT
BRANCH   1  11
HETATM   11  C   UNL     1     -35.819  38.547 -51.281  1.00  0.00     0.276 C 
HETATM   12  N   UNL     1     -35.537  39.243 -50.122  1.00  0.00    -0.322 N 
HETATM   13  H   UNL     1     -35.500  40.250 -50.258  1.00  0.00     0.169 HD
HETATM   14  O   UNL     1     -35.903  37.331 -51.409  1.00  0.00    -0.266 OA
BRANCH  12  15
HETATM   15  C   UNL     1     -35.286  38.736 -48.836  1.00  0.00     0.037 A 
HETATM   16  C   UNL     1     -36.257  38.610 -47.842  1.00  0.00     0.066 A 
HETATM   17  C   UNL     1     -35.912  38.094 -46.593  1.00  0.00     0.067 A 
HETATM   18  C   UNL     1     -34.609  37.694 -46.314  1.00  0.00     0.036 A 
HETATM   19  C   UNL     1     -33.634  37.818 -47.302  1.00  0.00     0.005 A 
HETATM   20  C   UNL     1     -33.971  38.338 -48.555  1.00  0.00     0.029 A 
BRANCH  17  21
HETATM   21  O   UNL     1     -36.896  37.994 -45.653  1.00  0.00    -0.361 OA
HETATM   22  H   UNL     1     -36.853  37.114 -45.248  1.00  0.00     0.217 HD
ENDBRANCH  17  21
ENDBRANCH  12  15
ENDBRANCH   1  11
BRANCH   8  23
HETATM   23  C   UNL     1     -34.207  40.508 -56.094  1.00  0.00     0.409 C 
HETATM   24  F   UNL     1     -34.970  39.430 -56.347  1.00  0.00    -0.169 F 
HETATM   25  F   UNL     1     -34.034  41.162 -57.271  1.00  0.00    -0.169 F 
HETATM   26  F   UNL     1     -32.981  40.059 -55.731  1.00  0.00    -0.169 F 
ENDBRANCH   8  23
BRANCH   6  27
HETATM   27  C   UNL     1     -37.338  41.608 -57.319  1.00  0.00    -0.035 A 
HETATM   28  C   UNL     1     -37.959  40.345 -57.401  1.00  0.00     0.012 A 
HETATM   29  C   UNL     1     -38.180  39.731 -58.636  1.00  0.00     0.043 A 
HETATM   30  C   UNL     1     -37.783  40.374 -59.801  1.00  0.00     0.116 A 
HETATM   31  F   UNL     1     -37.996  39.785 -60.985  1.00  0.00    -0.206 F 
HETATM   32  C   UNL     1     -37.167  41.616 -59.753  1.00  0.00     0.043 A 
HETATM   33  C   UNL     1     -36.940  42.227 -58.517  1.00  0.00     0.012 A 
ENDBRANCH   6  27
TORSDOF 5
ENDMDL
MODEL 7
REMARK VINA RESULT:      -8.0      4.994      7.523
REMARK  5 active torsions:
REMARK  status: ('A' for Active; 'I' for Inactive)
REMARK    1  A    between atoms: C_3  and  O_4 
REMARK    2  A    between atoms: C_6  and  N_7 
REMARK       I    between atoms: N_7  and  C_8 
REMARK    3  A    between atoms: C_8  and  C_9 
REMARK    4  A    between atoms: C_14  and  C_15 
REMARK    5  A    between atoms: C_23  and  C_24 
ROOT
HETATM    1  C   UNL     1     -43.164  57.649 -55.650  1.00  0.00     0.148 A 
HETATM    2  N   UNL     1     -42.395  56.568 -55.919  1.00  0.00    -0.165 NA
HETATM    3  N   UNL     1     -42.585  55.774 -54.848  1.00  0.00    -0.240 N 
HETATM    4  C   UNL     1     -43.473  56.273 -53.937  1.00  0.00     0.123 A 
HETATM    5  N   UNL     1     -43.820  55.585 -52.829  1.00  0.00    -0.366 N 
HETATM    6  C   UNL     1     -43.257  54.282 -52.501  1.00  0.00     0.118 C 
HETATM    7  C   UNL     1     -42.725  53.576 -53.763  1.00  0.00     0.066 C 
HETATM    8  C   UNL     1     -41.941  54.481 -54.731  1.00  0.00     0.221 C 
HETATM    9  C   UNL     1     -43.855  57.497 -54.416  1.00  0.00     0.089 A 
HETATM   10  H   UNL     1     -44.411  56.003 -52.113  1.00  0.00     0.161 HD
ENDROOT
BRANCH   1  11
HETATM   11  C   UNL     1     -43.235  58.807 -56.560  1.00  0.00     0.276 C 
HETATM   12  N   UNL     1     -42.141  58.865 -57.401  1.00  0.00    -0.322 N 
HETATM   13  H   UNL     1     -41.474  58.114 -57.245  1.00  0.00     0.169 HD
HETATM   14  O   UNL     1     -44.174  59.593 -56.516  1.00  0.00    -0.266 OA
BRANCH  12  15
HETATM   15  C   UNL     1     -41.848  59.819 -58.390  1.00  0.00     0.037 A 
HETATM   16  C   UNL     1     -42.039  59.611 -59.756  1.00  0.00     0.066 A 
HETATM   17  C   UNL     1     -41.719  60.619 -60.666  1.00  0.00     0.067 A 
HETATM   18  C   UNL     1     -41.211  61.842 -60.237  1.00  0.00     0.036 A 
HETATM   19  C   UNL     1     -41.018  62.056 -58.873  1.00  0.00     0.005 A 
HETATM   20  C   UNL     1     -41.333  61.048 -57.956  1.00  0.00     0.029 A 
BRANCH  17  21
HETATM   21  O   UNL     1     -41.920  60.367 -61.991  1.00  0.00    -0.361 OA
HETATM   22  H   UNL     1     -41.356  59.625 -62.258  1.00  0.00     0.217 HD
ENDBRANCH  17  21
ENDBRANCH  12  15
ENDBRANCH   1  11
BRANCH   8  23
HETATM   23  C   UNL     1     -40.483  54.654 -54.372  1.00  0.00     0.409 C 
HETATM   24  F   UNL     1     -39.967  53.630 -53.670  1.00  0.00    -0.169 F 
HETATM   25  F   UNL     1     -39.737  54.783 -55.500  1.00  0.00    -0.169 F 
HETATM   26  F   UNL     1     -40.274  55.783 -53.653  1.00  0.00    -0.169 F 
ENDBRANCH   8  23
BRANCH   6  27
HETATM   27  C   UNL     1     -42.279  54.339 -51.339  1.00  0.00    -0.035 A 
HETATM   28  C   UNL     1     -41.452  53.225 -51.088  1.00  0.00     0.012 A 
HETATM   29  C   UNL     1     -40.552  53.223 -50.019  1.00  0.00     0.043 A 
HETATM   30  C   UNL     1     -40.471  54.334 -49.191  1.00  0.00     0.116 A 
HETATM   31  F   UNL     1     -39.608  54.332 -48.167  1.00  0.00    -0.206 F 
HETATM   32  C   UNL     1     -41.274  55.445 -49.410  1.00  0.00     0.043 A 
HETATM   33  C   UNL     1     -42.178  55.444 -50.475  1.00  0.00     0.012 A 
ENDBRANCH   6  27
TORSDOF 5
ENDMDL
MODEL 8
REMARK VINA RESULT:      -7.9      4.291      9.079
REMARK  5 active torsions:
REMARK  status: ('A' for Active; 'I' for Inactive)
REMARK    1  A    between atoms: C_3  and  O_4 
REMARK    2  A    between atoms: C_6  and  N_7 
REMARK       I    between atoms: N_7  and  C_8 
REMARK    3  A    between atoms: C_8  and  C_9 
REMARK    4  A    between atoms: C_14  and  C_15 
REMARK    5  A    between atoms: C_23  and  C_24 
ROOT
HETATM    1  C   UNL     1     -41.160  55.638 -51.713  1.00  0.00     0.148 A 
HETATM    2  N   UNL     1     -41.290  56.065 -52.992  1.00  0.00    -0.165 NA
HETATM    3  N   UNL     1     -41.705  57.338 -52.856  1.00  0.00    -0.240 N 
HETATM    4  C   UNL     1     -41.800  57.757 -51.558  1.00  0.00     0.123 A 
HETATM    5  N   UNL     1     -42.152  59.020 -51.241  1.00  0.00    -0.366 N 
HETATM    6  C   UNL     1     -42.491  60.021 -52.244  1.00  0.00     0.118 C 
HETATM    7  C   UNL     1     -41.865  59.671 -53.607  1.00  0.00     0.066 C 
HETATM    8  C   UNL     1     -41.962  58.186 -54.003  1.00  0.00     0.221 C 
HETATM    9  C   UNL     1     -41.469  56.674 -50.789  1.00  0.00     0.089 A 
HETATM   10  H   UNL     1     -42.307  59.297 -50.273  1.00  0.00     0.161 HD
ENDROOT
BRANCH   1  11
HETATM   11  C   UNL     1     -40.745  54.262 -51.385  1.00  0.00     0.276 C 
HETATM   12  N   UNL     1     -40.614  53.482 -52.517  1.00  0.00    -0.322 N 
HETATM   13  H   UNL     1     -40.832  53.981 -53.376  1.00  0.00     0.169 HD
HETATM   14  O   UNL     1     -40.567  53.911 -50.224  1.00  0.00    -0.266 OA
BRANCH  12  15
HETATM   15  C   UNL     1     -40.249  52.128 -52.610  1.00  0.00     0.037 A 
HETATM   16  C   UNL     1     -40.255  51.398 -53.798  1.00  0.00     0.066 A 
HETATM   17  C   UNL     1     -39.875  50.055 -53.792  1.00  0.00     0.067 A 
HETATM   18  C   UNL     1     -39.485  49.423 -52.616  1.00  0.00     0.036 A 
HETATM   19  C   UNL     1     -39.478  50.147 -51.425  1.00  0.00     0.005 A 
HETATM   20  C   UNL     1     -39.860  51.492 -51.423  1.00  0.00     0.029 A 
BRANCH  17  21
HETATM   21  O   UNL     1     -39.900  49.382 -54.979  1.00  0.00    -0.361 OA
HETATM   22  H   UNL     1     -39.000  49.347 -55.338  1.00  0.00     0.217 HD
ENDBRANCH  17  21
ENDBRANCH  12  15
ENDBRANCH   1  11
BRANCH   8  23
HETATM   23  C   UNL     1     -43.271  57.803 -54.653  1.00  0.00     0.409 C 
HETATM   24  F   UNL     1     -43.164  56.814 -55.559  1.00  0.00    -0.169 F 
HETATM   25  F   UNL     1     -44.157  57.389 -53.710  1.00  0.00    -0.169 F 
HETATM   26  F   UNL     1     -43.850  58.858 -55.274  1.00  0.00    -0.169 F 
ENDBRANCH   8  23
BRANCH   6  27
HETATM   27  C   UNL     1     -43.978  60.335 -52.284  1.00  0.00    -0.035 A 
HETATM   28  C   UNL     1     -44.444  61.315 -53.184  1.00  0.00     0.012 A 
HETATM   29  C   UNL     1     -45.798  61.652 -53.241  1.00  0.00     0.043 A 
HETATM   30  C   UNL     1     -46.699  61.013 -52.401  1.00  0.00     0.116 A 
HETATM   31  F   UNL     1     -47.998  61.336 -52.457  1.00  0.00    -0.206 F 
HETATM   32  C   UNL     1     -46.271  60.046 -51.503  1.00  0.00     0.043 A 
HETATM   33  C   UNL     1     -44.915  59.714 -51.440  1.00  0.00     0.012 A 
ENDBRANCH   6  27
TORSDOF 5
ENDMDL
MODEL 9
REMARK VINA RESULT:      -7.8      6.530      9.331
REMARK  5 active torsions:
REMARK  status: ('A' for Active; 'I' for Inactive)
REMARK    1  A    between atoms: C_3  and  O_4 
REMARK    2  A    between atoms: C_6  and  N_7 
REMARK       I    between atoms: N_7  and  C_8 
REMARK    3  A    between atoms: C_8  and  C_9 
REMARK    4  A    between atoms: C_14  and  C_15 
REMARK    5  A    between atoms: C_23  and  C_24 
ROOT
HETATM    1  C   UNL     1     -42.686  57.067 -55.497  1.00  0.00     0.148 A 
HETATM    2  N   UNL     1     -42.277  57.855 -56.519  1.00  0.00    -0.165 NA
HETATM    3  N   UNL     1     -43.431  58.259 -57.085  1.00  0.00    -0.240 N 
HETATM    4  C   UNL     1     -44.551  57.808 -56.445  1.00  0.00     0.123 A 
HETATM    5  N   UNL     1     -45.790  58.158 -56.847  1.00  0.00    -0.366 N 
HETATM    6  C   UNL     1     -46.034  59.009 -58.004  1.00  0.00     0.118 C 
HETATM    7  C   UNL     1     -44.802  59.879 -58.320  1.00  0.00     0.066 C 
HETATM    8  C   UNL     1     -43.451  59.145 -58.231  1.00  0.00     0.221 C 
HETATM    9  C   UNL     1     -44.106  57.017 -55.420  1.00  0.00     0.089 A 
HETATM   10  H   UNL     1     -46.618  57.746 -56.421  1.00  0.00     0.161 HD
ENDROOT
BRANCH   1  11
HETATM   11  C   UNL     1     -41.733  56.376 -54.609  1.00  0.00     0.276 C 
HETATM   12  N   UNL     1     -41.959  55.014 -54.577  1.00  0.00    -0.322 N 
HETATM   13  H   UNL     1     -42.741  54.723 -55.157  1.00  0.00     0.169 HD
HETATM   14  O   UNL     1     -40.875  56.996 -53.992  1.00  0.00    -0.266 OA
BRANCH  12  15
HETATM   15  C   UNL     1     -41.272  54.030 -53.846  1.00  0.00     0.037 A 
HETATM   16  C   UNL     1     -41.219  53.988 -52.453  1.00  0.00     0.066 A 
HETATM   17  C   UNL     1     -40.511  52.970 -51.813  1.00  0.00     0.067 A 
HETATM   18  C   UNL     1     -39.851  51.985 -52.541  1.00  0.00     0.036 A 
HETATM   19  C   UNL     1     -39.899  52.022 -53.934  1.00  0.00     0.005 A 
HETATM   20  C   UNL     1     -40.605  53.041 -54.581  1.00  0.00     0.029 A 
BRANCH  17  21
HETATM   21  O   UNL     1     -40.485  52.973 -50.449  1.00  0.00    -0.361 OA
HETATM   22  H   UNL     1     -41.369  52.750 -50.119  1.00  0.00     0.217 HD
ENDBRANCH  17  21
ENDBRANCH  12  15
ENDBRANCH   1  11
BRANCH   8  23
HETATM   23  C   UNL     1     -43.075  58.387 -59.484  1.00  0.00     0.409 C 
HETATM   24  F   UNL     1     -41.765  58.441 -59.784  1.00  0.00    -0.169 F 
HETATM   25  F   UNL     1     -43.403  57.075 -59.352  1.00  0.00    -0.169 F 
HETATM   26  F   UNL     1     -43.755  58.837 -60.565  1.00  0.00    -0.169 F 
ENDBRANCH   8  23
BRANCH   6  27
HETATM   27  C   UNL     1     -46.598  58.244 -59.190  1.00  0.00    -0.035 A 
HETATM   28  C   UNL     1     -47.236  58.960 -60.223  1.00  0.00     0.012 A 
HETATM   29  C   UNL     1     -47.789  58.298 -61.322  1.00  0.00     0.043 A 
HETATM   30  C   UNL     1     -47.709  56.915 -61.399  1.00  0.00     0.116 A 
HETATM   31  F   UNL     1     -48.238  56.280 -62.453  1.00  0.00    -0.206 F 
HETATM   32  C   UNL     1     -47.090  56.181 -60.396  1.00  0.00     0.043 A 
HETATM   33  C   UNL     1     -46.544  56.843 -59.294  1.00  0.00     0.012 A 
ENDBRANCH   6  27
TORSDOF 5
ENDMDL
MODEL 10
REMARK VINA RESULT:      -7.8      6.522      9.284
REMARK  5 active torsions:
REMARK  status: ('A' for Active; 'I' for Inactive)
REMARK    1  A    between atoms: C_3  and  O_4 
REMARK    2  A    between atoms: C_6  and  N_7 
REMARK       I    between atoms: N_7  and  C_8 
REMARK    3  A    between atoms: C_8  and  C_9 
REMARK    4  A    between atoms: C_14  and  C_15 
REMARK    5  A    between atoms: C_23  and  C_24 
ROOT
HETATM    1  C   UNL     1     -42.667  55.800 -55.761  1.00  0.00     0.148 A 
HETATM    2  N   UNL     1     -42.899  55.254 -56.978  1.00  0.00    -0.165 NA
HETATM    3  N   UNL     1     -42.751  56.294 -57.820  1.00  0.00    -0.240 N 
HETATM    4  C   UNL     1     -42.390  57.460 -57.207  1.00  0.00     0.123 A 
HETATM    5  N   UNL     1     -42.150  58.589 -57.906  1.00  0.00    -0.366 N 
HETATM    6  C   UNL     1     -42.289  58.665 -59.354  1.00  0.00     0.118 C 
HETATM    7  C   UNL     1     -42.161  57.270 -59.995  1.00  0.00     0.066 C 
HETATM    8  C   UNL     1     -42.907  56.145 -59.254  1.00  0.00     0.221 C 
HETATM    9  C   UNL     1     -42.342  57.180 -55.867  1.00  0.00     0.089 A 
HETATM   10  H   UNL     1     -41.970  59.473 -57.433  1.00  0.00     0.161 HD
ENDROOT
BRANCH   1  11
HETATM   11  C   UNL     1     -42.752  55.010 -54.518  1.00  0.00     0.276 C 
HETATM   12  N   UNL     1     -41.532  54.933 -53.875  1.00  0.00    -0.322 N 
HETATM   13  H   UNL     1     -40.788  55.421 -54.367  1.00  0.00     0.169 HD
HETATM   14  O   UNL     1     -43.808  54.499 -54.161  1.00  0.00    -0.266 OA
BRANCH  12  15
HETATM   15  C   UNL     1     -41.214  54.267 -52.680  1.00  0.00     0.037 A 
HETATM   16  C   UNL     1     -41.651  54.673 -51.419  1.00  0.00     0.066 A 
HETATM   17  C   UNL     1     -41.283  53.946 -50.287  1.00  0.00     0.067 A 
HETATM   18  C   UNL     1     -40.485  52.811 -50.388  1.00  0.00     0.036 A 
HETATM   19  C   UNL     1     -40.045  52.400 -51.645  1.00  0.00     0.005 A 
HETATM   20  C   UNL     1     -40.407  53.126 -52.784  1.00  0.00     0.029 A 
BRANCH  17  21
HETATM   21  O   UNL     1     -41.732  54.385 -49.076  1.00  0.00    -0.361 OA
HETATM   22  H   UNL     1     -42.140  55.257 -49.190  1.00  0.00     0.217 HD
ENDBRANCH  17  21
ENDBRANCH  12  15
ENDBRANCH   1  11
BRANCH   8  23
HETATM   23  C   UNL     1     -44.371  56.032 -59.612  1.00  0.00     0.409 C 
HETATM   24  F   UNL     1     -44.666  56.466 -60.850  1.00  0.00    -0.169 F 
HETATM   25  F   UNL     1     -44.772  54.736 -59.535  1.00  0.00    -0.169 F 
HETATM   26  F   UNL     1     -45.153  56.719 -58.746  1.00  0.00    -0.169 F 
ENDBRANCH   8  23
BRANCH   6  27
HETATM   27  C   UNL     1     -43.509  59.460 -59.788  1.00  0.00    -0.035 A 
HETATM   28  C   UNL     1     -43.661  59.788 -61.151  1.00  0.00     0.012 A 
HETATM   29  C   UNL     1     -44.755  60.535 -61.593  1.00  0.00     0.043 A 
HETATM   30  C   UNL     1     -45.708  60.961 -60.678  1.00  0.00     0.116 A 
HETATM   31  F   UNL     1     -46.758  61.676 -61.103  1.00  0.00    -0.206 F 
HETATM   32  C   UNL     1     -45.586  60.656 -59.330  1.00  0.00     0.043 A 
HETATM   33  C   UNL     1     -44.487  59.915 -58.887  1.00  0.00     0.012 A 
ENDBRANCH   6  27
TORSDOF 5
ENDMDL
