MODEL 1
REMARK VINA RESULT:      -8.1      0.000      0.000
REMARK  6 active torsions:
REMARK  status: ('A' for Active; 'I' for Inactive)
REMARK    1  A    between atoms: C_3  and  C_4 
REMARK    2  A    between atoms: C_9  and  C_10 
REMARK    3  A    between atoms: C_10  and  N_11 
REMARK    4  A    between atoms: C_13  and  C_14 
REMARK    5  A    between atoms: C_15  and  O_16 
REMARK    6  A    between atoms: C_20  and  C_21 
ROOT
HETATM    1  N   UNL     1     -41.783  55.829 -52.919  1.00  0.00    -0.394 N 
HETATM    2  H   UNL     1     -42.371  55.484 -52.150  1.00  0.00     0.159 HD
HETATM    3  C   UNL     1     -41.447  57.070 -52.928  1.00  0.00     0.101 C 
ENDROOT
BRANCH   1   4
HETATM    4  C   UNL     1     -41.360  54.789 -53.879  1.00  0.00     0.157 C 
BRANCH   4   5
HETATM    5  C   UNL     1     -40.760  53.622 -53.146  1.00  0.00    -0.040 A 
HETATM    6  C   UNL     1     -40.547  52.398 -53.802  1.00  0.00     0.025 A 
HETATM    7  C   UNL     1     -39.953  51.311 -53.137  1.00  0.00     0.048 A 
HETATM    8  C   UNL     1     -39.573  51.461 -51.798  1.00  0.00     0.016 A 
HETATM    9  C   UNL     1     -39.781  52.671 -51.137  1.00  0.00     0.001 A 
HETATM   10  C   UNL     1     -40.369  53.746 -51.804  1.00  0.00     0.009 A 
BRANCH   7  11
HETATM   11  C   UNL     1     -39.748  50.001 -53.868  1.00  0.00     0.417 C 
HETATM   12  F   UNL     1     -38.697  50.008 -54.728  1.00  0.00    -0.166 F 
HETATM   13  F   UNL     1     -39.542  48.967 -53.010  1.00  0.00    -0.166 F 
HETATM   14  F   UNL     1     -40.844  49.665 -54.604  1.00  0.00    -0.166 F 
ENDBRANCH   7  11
ENDBRANCH   4   5
ENDBRANCH   1   4
BRANCH   3  15
HETATM   15  C   UNL     1     -41.833  58.105 -51.993  1.00  0.00     0.066 A 
HETATM   16  C   UNL     1     -41.032  59.163 -51.508  1.00  0.00     0.195 A 
HETATM   17  N   UNL     1     -41.670  59.974 -50.683  1.00  0.00    -0.148 NA
HETATM   18  N   UNL     1     -42.898  59.460 -50.602  1.00  0.00    -0.270 N 
HETATM   19  H   UNL     1     -43.576  59.932 -50.005  1.00  0.00     0.189 HD
HETATM   20  C   UNL     1     -43.058  58.337 -51.371  1.00  0.00     0.150 A 
BRANCH  16  21
HETATM   21  O   UNL     1     -39.759  59.482 -51.738  1.00  0.00    -0.343 OA
HETATM   22  H   UNL     1     -39.589  59.810 -52.630  1.00  0.00     0.219 HD
ENDBRANCH  16  21
BRANCH  20  23
HETATM   23  C   UNL     1     -44.381  57.693 -51.395  1.00  0.00     0.435 C 
HETATM   24  F   UNL     1     -44.746  57.448 -52.685  1.00  0.00    -0.165 F 
HETATM   25  F   UNL     1     -44.397  56.516 -50.740  1.00  0.00    -0.165 F 
HETATM   26  F   UNL     1     -45.332  58.490 -50.867  1.00  0.00    -0.165 F 
ENDBRANCH  20  23
ENDBRANCH   3  15
TORSDOF 6
ENDMDL
MODEL 2
REMARK VINA RESULT:      -8.1      3.343      3.858
REMARK  6 active torsions:
REMARK  status: ('A' for Active; 'I' for Inactive)
REMARK    1  A    between atoms: C_3  and  C_4 
REMARK    2  A    between atoms: C_9  and  C_10 
REMARK    3  A    between atoms: C_10  and  N_11 
REMARK    4  A    between atoms: C_13  and  C_14 
REMARK    5  A    between atoms: C_15  and  O_16 
REMARK    6  A    between atoms: C_20  and  C_21 
ROOT
HETATM    1  N   UNL     1     -41.296  54.637 -51.791  1.00  0.00    -0.394 N 
HETATM    2  H   UNL     1     -40.649  55.003 -52.499  1.00  0.00     0.159 HD
HETATM    3  C   UNL     1     -42.559  54.795 -51.970  1.00  0.00     0.101 C 
ENDROOT
BRANCH   1   4
HETATM    4  C   UNL     1     -40.642  53.913 -50.681  1.00  0.00     0.157 C 
BRANCH   4   5
HETATM    5  C   UNL     1     -40.359  52.493 -51.087  1.00  0.00    -0.040 A 
HETATM    6  C   UNL     1     -40.250  52.146 -52.444  1.00  0.00     0.025 A 
HETATM    7  C   UNL     1     -39.949  50.830 -52.836  1.00  0.00     0.048 A 
HETATM    8  C   UNL     1     -39.758  49.856 -51.848  1.00  0.00     0.016 A 
HETATM    9  C   UNL     1     -39.864  50.189 -50.498  1.00  0.00     0.001 A 
HETATM   10  C   UNL     1     -40.162  51.498 -50.118  1.00  0.00     0.009 A 
BRANCH   7  11
HETATM   11  C   UNL     1     -39.849  50.485 -54.307  1.00  0.00     0.417 C 
HETATM   12  F   UNL     1     -38.736  49.780 -54.635  1.00  0.00    -0.166 F 
HETATM   13  F   UNL     1     -40.913  49.751 -54.730  1.00  0.00    -0.166 F 
HETATM   14  F   UNL     1     -39.836  51.606 -55.081  1.00  0.00    -0.166 F 
ENDBRANCH   7  11
ENDBRANCH   4   5
ENDBRANCH   1   4
BRANCH   3  15
HETATM   15  C   UNL     1     -43.226  55.484 -53.053  1.00  0.00     0.066 A 
HETATM   16  C   UNL     1     -44.176  56.525 -52.950  1.00  0.00     0.195 A 
HETATM   17  N   UNL     1     -44.592  56.980 -54.118  1.00  0.00    -0.148 NA
HETATM   18  N   UNL     1     -43.929  56.244 -55.011  1.00  0.00    -0.270 N 
HETATM   19  H   UNL     1     -44.099  56.424 -56.000  1.00  0.00     0.189 HD
HETATM   20  C   UNL     1     -43.090  55.328 -54.431  1.00  0.00     0.150 A 
BRANCH  16  21
HETATM   21  O   UNL     1     -44.720  57.120 -51.888  1.00  0.00    -0.343 OA
HETATM   22  H   UNL     1     -44.171  57.815 -51.503  1.00  0.00     0.219 HD
ENDBRANCH  16  21
BRANCH  20  23
HETATM   23  C   UNL     1     -42.277  54.474 -55.311  1.00  0.00     0.435 C 
HETATM   24  F   UNL     1     -42.671  54.646 -56.605  1.00  0.00    -0.165 F 
HETATM   25  F   UNL     1     -40.963  54.765 -55.246  1.00  0.00    -0.165 F 
HETATM   26  F   UNL     1     -42.441  53.167 -55.027  1.00  0.00    -0.165 F 
ENDBRANCH  20  23
ENDBRANCH   3  15
TORSDOF 6
ENDMDL
MODEL 3
REMARK VINA RESULT:      -8.1      1.791      2.185
REMARK  6 active torsions:
REMARK  status: ('A' for Active; 'I' for Inactive)
REMARK    1  A    between atoms: C_3  and  C_4 
REMARK    2  A    between atoms: C_9  and  C_10 
REMARK    3  A    between atoms: C_10  and  N_11 
REMARK    4  A    between atoms: C_13  and  C_14 
REMARK    5  A    between atoms: C_15  and  O_16 
REMARK    6  A    between atoms: C_20  and  C_21 
ROOT
HETATM    1  N   UNL     1     -41.567  55.980 -53.942  1.00  0.00    -0.394 N 
HETATM    2  H   UNL     1     -42.252  55.854 -53.187  1.00  0.00     0.159 HD
HETATM    3  C   UNL     1     -41.048  57.143 -54.116  1.00  0.00     0.101 C 
ENDROOT
BRANCH   1   4
HETATM    4  C   UNL     1     -41.241  54.745 -54.685  1.00  0.00     0.157 C 
BRANCH   4   5
HETATM    5  C   UNL     1     -40.749  53.688 -53.736  1.00  0.00    -0.040 A 
HETATM    6  C   UNL     1     -40.489  52.384 -54.191  1.00  0.00     0.025 A 
HETATM    7  C   UNL     1     -39.994  51.396 -53.321  1.00  0.00     0.048 A 
HETATM    8  C   UNL     1     -39.761  51.728 -51.980  1.00  0.00     0.016 A 
HETATM    9  C   UNL     1     -40.017  53.019 -51.519  1.00  0.00     0.001 A 
HETATM   10  C   UNL     1     -40.507  53.994 -52.388  1.00  0.00     0.009 A 
BRANCH   7  11
HETATM   11  C   UNL     1     -39.735  49.997 -53.838  1.00  0.00     0.417 C 
HETATM   12  F   UNL     1     -39.574  49.068 -52.861  1.00  0.00    -0.166 F 
HETATM   13  F   UNL     1     -40.743  49.554 -54.634  1.00  0.00    -0.166 F 
HETATM   14  F   UNL     1     -38.607  49.950 -54.602  1.00  0.00    -0.166 F 
ENDBRANCH   7  11
ENDBRANCH   4   5
ENDBRANCH   1   4
BRANCH   3  15
HETATM   15  C   UNL     1     -41.336  58.364 -53.395  1.00  0.00     0.066 A 
HETATM   16  C   UNL     1     -41.596  59.641 -53.941  1.00  0.00     0.195 A 
HETATM   17  N   UNL     1     -41.856  60.563 -53.032  1.00  0.00    -0.148 NA
HETATM   18  N   UNL     1     -41.764  59.914 -51.871  1.00  0.00    -0.270 N 
HETATM   19  H   UNL     1     -41.927  60.441 -51.014  1.00  0.00     0.189 HD
HETATM   20  C   UNL     1     -41.457  58.587 -52.024  1.00  0.00     0.150 A 
BRANCH  16  21
HETATM   21  O   UNL     1     -41.625  60.070 -55.203  1.00  0.00    -0.343 OA
HETATM   22  H   UNL     1     -41.004  60.786 -55.390  1.00  0.00     0.219 HD
ENDBRANCH  16  21
BRANCH  20  23
HETATM   23  C   UNL     1     -41.360  57.751 -50.817  1.00  0.00     0.435 C 
HETATM   24  F   UNL     1     -42.524  57.065 -50.643  1.00  0.00    -0.165 F 
HETATM   25  F   UNL     1     -40.364  56.847 -50.891  1.00  0.00    -0.165 F 
HETATM   26  F   UNL     1     -41.180  58.497 -49.709  1.00  0.00    -0.165 F 
ENDBRANCH  20  23
ENDBRANCH   3  15
TORSDOF 6
ENDMDL
MODEL 4
REMARK VINA RESULT:      -8.0      3.388      4.257
REMARK  6 active torsions:
REMARK  status: ('A' for Active; 'I' for Inactive)
REMARK    1  A    between atoms: C_3  and  C_4 
REMARK    2  A    between atoms: C_9  and  C_10 
REMARK    3  A    between atoms: C_10  and  N_11 
REMARK    4  A    between atoms: C_13  and  C_14 
REMARK    5  A    between atoms: C_15  and  O_16 
REMARK    6  A    between atoms: C_20  and  C_21 
ROOT
HETATM    1  N   UNL     1     -43.690  55.581 -52.756  1.00  0.00    -0.394 N 
HETATM    2  H   UNL     1     -44.167  54.814 -53.244  1.00  0.00     0.159 HD
HETATM    3  C   UNL     1     -43.582  56.717 -53.349  1.00  0.00     0.101 C 
ENDROOT
BRANCH   1   4
HETATM    4  C   UNL     1     -43.249  55.254 -51.384  1.00  0.00     0.157 C 
BRANCH   4   5
HETATM    5  C   UNL     1     -42.077  54.314 -51.430  1.00  0.00    -0.040 A 
HETATM    6  C   UNL     1     -41.689  53.713 -52.639  1.00  0.00     0.025 A 
HETATM    7  C   UNL     1     -40.572  52.861 -52.703  1.00  0.00     0.048 A 
HETATM    8  C   UNL     1     -39.841  52.614 -51.534  1.00  0.00     0.016 A 
HETATM    9  C   UNL     1     -40.218  53.205 -50.328  1.00  0.00     0.001 A 
HETATM   10  C   UNL     1     -41.327  54.050 -50.274  1.00  0.00     0.009 A 
BRANCH   7  11
HETATM   11  C   UNL     1     -40.187  52.219 -54.018  1.00  0.00     0.417 C 
HETATM   12  F   UNL     1     -40.016  53.103 -55.035  1.00  0.00    -0.166 F 
HETATM   13  F   UNL     1     -39.030  51.512 -53.920  1.00  0.00    -0.166 F 
HETATM   14  F   UNL     1     -41.134  51.333 -54.435  1.00  0.00    -0.166 F 
ENDBRANCH   7  11
ENDBRANCH   4   5
ENDBRANCH   1   4
BRANCH   3  15
HETATM   15  C   UNL     1     -44.018  57.070 -54.683  1.00  0.00     0.066 A 
HETATM   16  C   UNL     1     -44.892  58.117 -55.050  1.00  0.00     0.195 A 
HETATM   17  N   UNL     1     -45.084  58.215 -56.354  1.00  0.00    -0.148 NA
HETATM   18  N   UNL     1     -44.346  57.230 -56.868  1.00  0.00    -0.270 N 
HETATM   19  H   UNL     1     -44.345  57.112 -57.881  1.00  0.00     0.189 HD
HETATM   20  C   UNL     1     -43.679  56.508 -55.913  1.00  0.00     0.150 A 
BRANCH  16  21
HETATM   21  O   UNL     1     -45.550  59.014 -54.316  1.00  0.00    -0.343 OA
HETATM   22  H   UNL     1     -45.703  59.855 -54.765  1.00  0.00     0.219 HD
ENDBRANCH  16  21
BRANCH  20  23
HETATM   23  C   UNL     1     -42.803  55.411 -56.355  1.00  0.00     0.435 C 
HETATM   24  F   UNL     1     -41.558  55.580 -55.826  1.00  0.00    -0.165 F 
HETATM   25  F   UNL     1     -43.248  54.202 -55.965  1.00  0.00    -0.165 F 
HETATM   26  F   UNL     1     -42.656  55.402 -57.696  1.00  0.00    -0.165 F 
ENDBRANCH  20  23
ENDBRANCH   3  15
TORSDOF 6
ENDMDL
MODEL 5
REMARK VINA RESULT:      -7.9      2.639      3.355
REMARK  6 active torsions:
REMARK  status: ('A' for Active; 'I' for Inactive)
REMARK    1  A    between atoms: C_3  and  C_4 
REMARK    2  A    between atoms: C_9  and  C_10 
REMARK    3  A    between atoms: C_10  and  N_11 
REMARK    4  A    between atoms: C_13  and  C_14 
REMARK    5  A    between atoms: C_15  and  O_16 
REMARK    6  A    between atoms: C_20  and  C_21 
ROOT
HETATM    1  N   UNL     1     -42.136  55.773 -54.142  1.00  0.00    -0.394 N 
HETATM    2  H   UNL     1     -43.010  55.880 -53.613  1.00  0.00     0.159 HD
HETATM    3  C   UNL     1     -41.299  56.749 -54.152  1.00  0.00     0.101 C 
ENDROOT
BRANCH   1   4
HETATM    4  C   UNL     1     -41.959  54.448 -54.771  1.00  0.00     0.157 C 
BRANCH   4   5
HETATM    5  C   UNL     1     -41.140  53.558 -53.878  1.00  0.00    -0.040 A 
HETATM    6  C   UNL     1     -41.143  53.746 -52.485  1.00  0.00     0.025 A 
HETATM    7  C   UNL     1     -40.411  52.898 -51.635  1.00  0.00     0.048 A 
HETATM    8  C   UNL     1     -39.669  51.851 -52.198  1.00  0.00     0.016 A 
HETATM    9  C   UNL     1     -39.660  51.656 -53.579  1.00  0.00     0.001 A 
HETATM   10  C   UNL     1     -40.390  52.501 -54.415  1.00  0.00     0.009 A 
BRANCH   7  11
HETATM   11  C   UNL     1     -40.424  53.134 -50.140  1.00  0.00     0.417 C 
HETATM   12  F   UNL     1     -40.419  51.995 -49.401  1.00  0.00    -0.166 F 
HETATM   13  F   UNL     1     -39.355  53.868 -49.732  1.00  0.00    -0.166 F 
HETATM   14  F   UNL     1     -41.527  53.835 -49.757  1.00  0.00    -0.166 F 
ENDBRANCH   7  11
ENDBRANCH   4   5
ENDBRANCH   1   4
BRANCH   3  15
HETATM   15  C   UNL     1     -41.439  58.049 -53.533  1.00  0.00     0.066 A 
HETATM   16  C   UNL     1     -41.598  59.294 -54.182  1.00  0.00     0.195 A 
HETATM   17  N   UNL     1     -41.730  60.312 -53.350  1.00  0.00    -0.148 NA
HETATM   18  N   UNL     1     -41.653  59.757 -52.139  1.00  0.00    -0.270 N 
HETATM   19  H   UNL     1     -41.728  60.369 -51.327  1.00  0.00     0.189 HD
HETATM   20  C   UNL     1     -41.480  58.398 -52.184  1.00  0.00     0.150 A 
BRANCH  16  21
HETATM   21  O   UNL     1     -41.638  59.616 -55.475  1.00  0.00    -0.343 OA
HETATM   22  H   UNL     1     -41.927  60.521 -55.647  1.00  0.00     0.219 HD
ENDBRANCH  16  21
BRANCH  20  23
HETATM   23  C   UNL     1     -41.413  57.663 -50.912  1.00  0.00     0.435 C 
HETATM   24  F   UNL     1     -42.622  57.090 -50.652  1.00  0.00    -0.165 F 
HETATM   25  F   UNL     1     -40.494  56.678 -50.929  1.00  0.00    -0.165 F 
HETATM   26  F   UNL     1     -41.142  58.483 -49.876  1.00  0.00    -0.165 F 
ENDBRANCH  20  23
ENDBRANCH   3  15
TORSDOF 6
ENDMDL
MODEL 6
REMARK VINA RESULT:      -7.7      3.115      3.855
REMARK  6 active torsions:
REMARK  status: ('A' for Active; 'I' for Inactive)
REMARK    1  A    between atoms: C_3  and  C_4 
REMARK    2  A    between atoms: C_9  and  C_10 
REMARK    3  A    between atoms: C_10  and  N_11 
REMARK    4  A    between atoms: C_13  and  C_14 
REMARK    5  A    between atoms: C_15  and  O_16 
REMARK    6  A    between atoms: C_20  and  C_21 
ROOT
HETATM    1  N   UNL     1     -42.468  55.004 -54.504  1.00  0.00    -0.394 N 
HETATM    2  H   UNL     1     -41.693  55.679 -54.507  1.00  0.00     0.159 HD
HETATM    3  C   UNL     1     -43.649  55.423 -54.220  1.00  0.00     0.101 C 
ENDROOT
BRANCH   1   4
HETATM    4  C   UNL     1     -42.085  53.633 -54.900  1.00  0.00     0.157 C 
BRANCH   4   5
HETATM    5  C   UNL     1     -41.175  53.032 -53.865  1.00  0.00    -0.040 A 
HETATM    6  C   UNL     1     -41.148  53.541 -52.555  1.00  0.00     0.025 A 
HETATM    7  C   UNL     1     -40.328  52.964 -51.569  1.00  0.00     0.048 A 
HETATM    8  C   UNL     1     -39.528  51.866 -51.909  1.00  0.00     0.016 A 
HETATM    9  C   UNL     1     -39.547  51.354 -53.206  1.00  0.00     0.001 A 
HETATM   10  C   UNL     1     -40.364  51.931 -54.179  1.00  0.00     0.009 A 
BRANCH   7  11
HETATM   11  C   UNL     1     -40.312  53.542 -50.170  1.00  0.00     0.417 C 
HETATM   12  F   UNL     1     -39.188  54.245 -49.875  1.00  0.00    -0.166 F 
HETATM   13  F   UNL     1     -41.361  54.379 -49.953  1.00  0.00    -0.166 F 
HETATM   14  F   UNL     1     -40.412  52.564 -49.226  1.00  0.00    -0.166 F 
ENDBRANCH   7  11
ENDBRANCH   4   5
ENDBRANCH   1   4
BRANCH   3  15
HETATM   15  C   UNL     1     -44.055  56.760 -53.845  1.00  0.00     0.066 A 
HETATM   16  C   UNL     1     -44.939  57.614 -54.541  1.00  0.00     0.195 A 
HETATM   17  N   UNL     1     -45.142  58.772 -53.938  1.00  0.00    -0.148 NA
HETATM   18  N   UNL     1     -44.389  58.705 -52.839  1.00  0.00    -0.270 N 
HETATM   19  H   UNL     1     -44.388  59.508 -52.210  1.00  0.00     0.189 HD
HETATM   20  C   UNL     1     -43.713  57.518 -52.727  1.00  0.00     0.150 A 
BRANCH  16  21
HETATM   21  O   UNL     1     -45.599  57.455 -55.689  1.00  0.00    -0.343 OA
HETATM   22  H   UNL     1     -45.036  57.217 -56.436  1.00  0.00     0.219 HD
ENDBRANCH  16  21
BRANCH  20  23
HETATM   23  C   UNL     1     -42.872  57.307 -51.538  1.00  0.00     0.435 C 
HETATM   24  F   UNL     1     -41.666  56.796 -51.918  1.00  0.00    -0.165 F 
HETATM   25  F   UNL     1     -42.633  58.446 -50.861  1.00  0.00    -0.165 F 
HETATM   26  F   UNL     1     -43.421  56.413 -50.692  1.00  0.00    -0.165 F 
ENDBRANCH  20  23
ENDBRANCH   3  15
TORSDOF 6
ENDMDL
MODEL 7
REMARK VINA RESULT:      -7.7      2.390      2.814
REMARK  6 active torsions:
REMARK  status: ('A' for Active; 'I' for Inactive)
REMARK    1  A    between atoms: C_3  and  C_4 
REMARK    2  A    between atoms: C_9  and  C_10 
REMARK    3  A    between atoms: C_10  and  N_11 
REMARK    4  A    between atoms: C_13  and  C_14 
REMARK    5  A    between atoms: C_15  and  O_16 
REMARK    6  A    between atoms: C_20  and  C_21 
ROOT
HETATM    1  N   UNL     1     -42.190  55.675 -53.991  1.00  0.00    -0.394 N 
HETATM    2  H   UNL     1     -41.405  56.321 -54.133  1.00  0.00     0.159 HD
HETATM    3  C   UNL     1     -43.222  56.091 -53.346  1.00  0.00     0.101 C 
ENDROOT
BRANCH   1   4
HETATM    4  C   UNL     1     -42.018  54.353 -54.629  1.00  0.00     0.157 C 
BRANCH   4   5
HETATM    5  C   UNL     1     -41.203  53.455 -53.742  1.00  0.00    -0.040 A 
HETATM    6  C   UNL     1     -40.838  52.167 -54.170  1.00  0.00     0.025 A 
HETATM    7  C   UNL     1     -40.044  51.331 -53.364  1.00  0.00     0.048 A 
HETATM    8  C   UNL     1     -39.617  51.800 -52.115  1.00  0.00     0.016 A 
HETATM    9  C   UNL     1     -39.974  53.076 -51.681  1.00  0.00     0.001 A 
HETATM   10  C   UNL     1     -40.761  53.900 -52.487  1.00  0.00     0.009 A 
BRANCH   7  11
HETATM   11  C   UNL     1     -39.678  49.944 -53.848  1.00  0.00     0.417 C 
HETATM   12  F   UNL     1     -39.544  49.030 -52.854  1.00  0.00    -0.166 F 
HETATM   13  F   UNL     1     -40.602  49.447 -54.712  1.00  0.00    -0.166 F 
HETATM   14  F   UNL     1     -38.496  49.950 -54.526  1.00  0.00    -0.166 F 
ENDBRANCH   7  11
ENDBRANCH   4   5
ENDBRANCH   1   4
BRANCH   3  15
HETATM   15  C   UNL     1     -43.423  57.382 -52.725  1.00  0.00     0.066 A 
HETATM   16  C   UNL     1     -44.317  57.699 -51.678  1.00  0.00     0.195 A 
HETATM   17  N   UNL     1     -44.260  58.963 -51.297  1.00  0.00    -0.148 NA
HETATM   18  N   UNL     1     -43.333  59.503 -52.091  1.00  0.00    -0.270 N 
HETATM   19  H   UNL     1     -43.121  60.493 -51.974  1.00  0.00     0.189 HD
HETATM   20  C   UNL     1     -42.792  58.601 -52.969  1.00  0.00     0.150 A 
BRANCH  16  21
HETATM   21  O   UNL     1     -45.199  56.951 -51.015  1.00  0.00    -0.343 OA
HETATM   22  H   UNL     1     -46.082  56.946 -51.404  1.00  0.00     0.219 HD
ENDBRANCH  16  21
BRANCH  20  23
HETATM   23  C   UNL     1     -41.733  59.065 -53.879  1.00  0.00     0.435 C 
HETATM   24  F   UNL     1     -41.693  60.428 -53.875  1.00  0.00    -0.165 F 
HETATM   25  F   UNL     1     -40.511  58.623 -53.522  1.00  0.00    -0.165 F 
HETATM   26  F   UNL     1     -41.969  58.689 -55.152  1.00  0.00    -0.165 F 
ENDBRANCH  20  23
ENDBRANCH   3  15
TORSDOF 6
ENDMDL
MODEL 8
REMARK VINA RESULT:      -7.5      4.970      6.136
REMARK  6 active torsions:
REMARK  status: ('A' for Active; 'I' for Inactive)
REMARK    1  A    between atoms: C_3  and  C_4 
REMARK    2  A    between atoms: C_9  and  C_10 
REMARK    3  A    between atoms: C_10  and  N_11 
REMARK    4  A    between atoms: C_13  and  C_14 
REMARK    5  A    between atoms: C_15  and  O_16 
REMARK    6  A    between atoms: C_20  and  C_21 
ROOT
HETATM    1  N   UNL     1     -43.702  56.015 -55.812  1.00  0.00    -0.394 N 
HETATM    2  H   UNL     1     -43.593  55.041 -56.123  1.00  0.00     0.159 HD
HETATM    3  C   UNL     1     -43.615  56.954 -56.686  1.00  0.00     0.101 C 
ENDROOT
BRANCH   1   4
HETATM    4  C   UNL     1     -44.011  56.167 -54.375  1.00  0.00     0.157 C 
BRANCH   4   5
HETATM    5  C   UNL     1     -43.170  55.221 -53.564  1.00  0.00    -0.040 A 
HETATM    6  C   UNL     1     -42.289  54.327 -54.195  1.00  0.00     0.025 A 
HETATM    7  C   UNL     1     -41.470  53.463 -53.446  1.00  0.00     0.048 A 
HETATM    8  C   UNL     1     -41.544  53.502 -52.048  1.00  0.00     0.016 A 
HETATM    9  C   UNL     1     -42.415  54.385 -51.412  1.00  0.00     0.001 A 
HETATM   10  C   UNL     1     -43.224  55.240 -52.162  1.00  0.00     0.009 A 
BRANCH   7  11
HETATM   11  C   UNL     1     -40.539  52.503 -54.156  1.00  0.00     0.417 C 
HETATM   12  F   UNL     1     -39.994  53.002 -55.294  1.00  0.00    -0.166 F 
HETATM   13  F   UNL     1     -39.503  52.120 -53.363  1.00  0.00    -0.166 F 
HETATM   14  F   UNL     1     -41.183  51.356 -54.510  1.00  0.00    -0.166 F 
ENDBRANCH   7  11
ENDBRANCH   4   5
ENDBRANCH   1   4
BRANCH   3  15
HETATM   15  C   UNL     1     -43.329  56.833 -58.099  1.00  0.00     0.066 A 
HETATM   16  C   UNL     1     -43.596  55.726 -58.935  1.00  0.00     0.195 A 
HETATM   17  N   UNL     1     -43.249  55.918 -60.195  1.00  0.00    -0.148 NA
HETATM   18  N   UNL     1     -42.739  57.150 -60.210  1.00  0.00    -0.270 N 
HETATM   19  H   UNL     1     -42.397  57.515 -61.098  1.00  0.00     0.189 HD
HETATM   20  C   UNL     1     -42.763  57.753 -58.979  1.00  0.00     0.150 A 
BRANCH  16  21
HETATM   21  O   UNL     1     -44.134  54.534 -58.675  1.00  0.00    -0.343 OA
HETATM   22  H   UNL     1     -44.155  53.937 -59.434  1.00  0.00     0.219 HD
ENDBRANCH  16  21
BRANCH  20  23
HETATM   23  C   UNL     1     -42.259  59.131 -58.869  1.00  0.00     0.435 C 
HETATM   24  F   UNL     1     -43.291  59.972 -58.580  1.00  0.00    -0.165 F 
HETATM   25  F   UNL     1     -41.338  59.270 -57.897  1.00  0.00    -0.165 F 
HETATM   26  F   UNL     1     -41.724  59.559 -60.030  1.00  0.00    -0.165 F 
ENDBRANCH  20  23
ENDBRANCH   3  15
TORSDOF 6
ENDMDL
MODEL 9
REMARK VINA RESULT:      -7.5      5.138      6.486
REMARK  6 active torsions:
REMARK  status: ('A' for Active; 'I' for Inactive)
REMARK    1  A    between atoms: C_3  and  C_4 
REMARK    2  A    between atoms: C_9  and  C_10 
REMARK    3  A    between atoms: C_10  and  N_11 
REMARK    4  A    between atoms: C_13  and  C_14 
REMARK    5  A    between atoms: C_15  and  O_16 
REMARK    6  A    between atoms: C_20  and  C_21 
ROOT
HETATM    1  N   UNL     1     -43.305  55.274 -56.039  1.00  0.00    -0.394 N 
HETATM    2  H   UNL     1     -43.360  54.350 -56.486  1.00  0.00     0.159 HD
HETATM    3  C   UNL     1     -43.301  56.320 -56.786  1.00  0.00     0.101 C 
ENDROOT
BRANCH   1   4
HETATM    4  C   UNL     1     -43.301  55.240 -54.562  1.00  0.00     0.157 C 
BRANCH   4   5
HETATM    5  C   UNL     1     -42.187  54.360 -54.069  1.00  0.00    -0.040 A 
HETATM    6  C   UNL     1     -41.936  54.226 -52.693  1.00  0.00     0.025 A 
HETATM    7  C   UNL     1     -40.921  53.377 -52.218  1.00  0.00     0.048 A 
HETATM    8  C   UNL     1     -40.151  52.658 -53.142  1.00  0.00     0.016 A 
HETATM    9  C   UNL     1     -40.391  52.784 -54.510  1.00  0.00     0.001 A 
HETATM   10  C   UNL     1     -41.401  53.628 -54.973  1.00  0.00     0.009 A 
BRANCH   7  11
HETATM   11  C   UNL     1     -40.668  53.263 -50.730  1.00  0.00     0.417 C 
HETATM   12  F   UNL     1     -40.592  51.985 -50.279  1.00  0.00    -0.166 F 
HETATM   13  F   UNL     1     -39.510  53.875 -50.363  1.00  0.00    -0.166 F 
HETATM   14  F   UNL     1     -41.655  53.866 -50.010  1.00  0.00    -0.166 F 
ENDBRANCH   7  11
ENDBRANCH   4   5
ENDBRANCH   1   4
BRANCH   3  15
HETATM   15  C   UNL     1     -43.320  56.383 -58.232  1.00  0.00     0.066 A 
HETATM   16  C   UNL     1     -43.808  55.404 -59.126  1.00  0.00     0.195 A 
HETATM   17  N   UNL     1     -43.719  55.755 -60.396  1.00  0.00    -0.148 NA
HETATM   18  N   UNL     1     -43.164  56.968 -60.363  1.00  0.00    -0.270 N 
HETATM   19  H   UNL     1     -42.995  57.441 -61.250  1.00  0.00     0.189 HD
HETATM   20  C   UNL     1     -42.904  57.401 -59.089  1.00  0.00     0.150 A 
BRANCH  16  21
HETATM   21  O   UNL     1     -44.338  54.200 -58.911  1.00  0.00    -0.343 OA
HETATM   22  H   UNL     1     -44.831  53.847 -59.662  1.00  0.00     0.219 HD
ENDBRANCH  16  21
BRANCH  20  23
HETATM   23  C   UNL     1     -42.321  58.740 -58.914  1.00  0.00     0.435 C 
HETATM   24  F   UNL     1     -41.777  59.157 -60.093  1.00  0.00    -0.165 F 
HETATM   25  F   UNL     1     -43.233  59.659 -58.542  1.00  0.00    -0.165 F 
HETATM   26  F   UNL     1     -41.323  58.735 -58.008  1.00  0.00    -0.165 F 
ENDBRANCH  20  23
ENDBRANCH   3  15
TORSDOF 6
ENDMDL
MODEL 10
REMARK VINA RESULT:      -7.5      2.446      3.081
REMARK  6 active torsions:
REMARK  status: ('A' for Active; 'I' for Inactive)
REMARK    1  A    between atoms: C_3  and  C_4 
REMARK    2  A    between atoms: C_9  and  C_10 
REMARK    3  A    between atoms: C_10  and  N_11 
REMARK    4  A    between atoms: C_13  and  C_14 
REMARK    5  A    between atoms: C_15  and  O_16 
REMARK    6  A    between atoms: C_20  and  C_21 
ROOT
HETATM    1  N   UNL     1     -42.146  55.653 -54.124  1.00  0.00    -0.394 N 
HETATM    2  H   UNL     1     -42.864  55.559 -53.395  1.00  0.00     0.159 HD
HETATM    3  C   UNL     1     -41.616  56.808 -54.321  1.00  0.00     0.101 C 
ENDROOT
BRANCH   1   4
HETATM    4  C   UNL     1     -41.792  54.388 -54.801  1.00  0.00     0.157 C 
BRANCH   4   5
HETATM    5  C   UNL     1     -41.023  53.500 -53.864  1.00  0.00    -0.040 A 
HETATM    6  C   UNL     1     -41.054  53.726 -52.477  1.00  0.00     0.025 A 
HETATM    7  C   UNL     1     -40.368  52.880 -51.587  1.00  0.00     0.048 A 
HETATM    8  C   UNL     1     -39.644  51.798 -52.104  1.00  0.00     0.016 A 
HETATM    9  C   UNL     1     -39.606  51.565 -53.478  1.00  0.00     0.001 A 
HETATM   10  C   UNL     1     -40.290  52.408 -54.354  1.00  0.00     0.009 A 
BRANCH   7  11
HETATM   11  C   UNL     1     -40.411  53.156 -50.100  1.00  0.00     0.417 C 
HETATM   12  F   UNL     1     -40.400  52.038 -49.330  1.00  0.00    -0.166 F 
HETATM   13  F   UNL     1     -39.361  53.918 -49.694  1.00  0.00    -0.166 F 
HETATM   14  F   UNL     1     -41.532  53.849 -49.755  1.00  0.00    -0.166 F 
ENDBRANCH   7  11
ENDBRANCH   4   5
ENDBRANCH   1   4
BRANCH   3  15
HETATM   15  C   UNL     1     -41.932  58.057 -53.663  1.00  0.00     0.066 A 
HETATM   16  C   UNL     1     -41.023  59.033 -53.195  1.00  0.00     0.195 A 
HETATM   17  N   UNL     1     -41.609  60.089 -52.660  1.00  0.00    -0.148 NA
HETATM   18  N   UNL     1     -42.913  59.825 -52.758  1.00  0.00    -0.270 N 
HETATM   19  H   UNL     1     -43.569  60.517 -52.398  1.00  0.00     0.189 HD
HETATM   20  C   UNL     1     -43.170  58.619 -53.356  1.00  0.00     0.150 A 
BRANCH  16  21
HETATM   21  O   UNL     1     -39.691  59.071 -53.200  1.00  0.00    -0.343 OA
HETATM   22  H   UNL     1     -39.281  58.450 -53.816  1.00  0.00     0.219 HD
ENDBRANCH  16  21
BRANCH  20  23
HETATM   23  C   UNL     1     -44.574  58.226 -53.554  1.00  0.00     0.435 C 
HETATM   24  F   UNL     1     -45.353  59.342 -53.632  1.00  0.00    -0.165 F 
HETATM   25  F   UNL     1     -44.761  57.521 -54.686  1.00  0.00    -0.165 F 
HETATM   26  F   UNL     1     -45.039  57.501 -52.516  1.00  0.00    -0.165 F 
ENDBRANCH  20  23
ENDBRANCH   3  15
TORSDOF 6
ENDMDL
