MODEL 1
REMARK VINA RESULT:      -8.8      0.000      0.000
REMARK  5 active torsions:
REMARK  status: ('A' for Active; 'I' for Inactive)
REMARK    1  A    between atoms: N_1  and  C_2 
REMARK    2  A    between atoms: C_2  and  C_3 
REMARK    3  A    between atoms: C_2  and  C_12 
REMARK    4  A    between atoms: C_3  and  C_4 
REMARK    5  A    between atoms: C_17  and  C_23 
ROOT
HETATM    1  C   UNL     1     -42.634  56.387 -55.069  1.00  0.00     0.141 A 
HETATM    2  N   UNL     1     -41.698  55.626 -55.542  1.00  0.00    -0.232 NA
HETATM    3  C   UNL     1     -41.272  54.546 -54.749  1.00  0.00     0.074 A 
HETATM    4  C   UNL     1     -40.299  53.685 -55.256  1.00  0.00     0.033 A 
HETATM    5  C   UNL     1     -39.867  52.581 -54.510  1.00  0.00     0.014 A 
HETATM    6  C   UNL     1     -40.399  52.318 -53.238  1.00  0.00    -0.022 A 
HETATM    7  C   UNL     1     -41.371  53.184 -52.725  1.00  0.00     0.031 A 
HETATM    8  C   UNL     1     -41.796  54.283 -53.481  1.00  0.00     0.061 A 
HETATM    9  C   UNL     1     -42.829  55.199 -52.969  1.00  0.00     0.259 A 
HETATM   10  O   UNL     1     -43.344  55.052 -51.870  1.00  0.00    -0.267 OA
HETATM   11  N   UNL     1     -43.173  56.215 -53.819  1.00  0.00    -0.309 N 
HETATM   12  H   UNL     1     -43.896  56.866 -53.530  1.00  0.00     0.170 HD
ENDROOT
BRANCH   1  13
HETATM   13  C   UNL     1     -43.177  57.598 -55.844  1.00  0.00     0.291 C 
BRANCH  13  14
HETATM   14  N   UNL     1     -44.662  57.568 -55.826  1.00  0.00     0.090 N 
HETATM   15  H   UNL     1     -44.963  56.784 -55.242  1.00  0.00     0.313 HD
HETATM   16  H   UNL     1     -44.993  57.341 -56.765  1.00  0.00     0.313 HD
ENDBRANCH  13  14
BRANCH  13  17
HETATM   17  C   UNL     1     -42.573  57.743 -57.257  1.00  0.00     0.082 C 
BRANCH  17  18
HETATM   18  C   UNL     1     -43.376  57.116 -58.380  1.00  0.00    -0.053 A 
HETATM   19  C   UNL     1     -44.085  57.921 -59.287  1.00  0.00     0.010 A 
HETATM   20  C   UNL     1     -44.815  57.348 -60.332  1.00  0.00     0.046 A 
HETATM   21  C   UNL     1     -44.843  55.966 -60.471  1.00  0.00     0.154 A 
HETATM   22  F   UNL     1     -45.542  55.419 -61.475  1.00  0.00    -0.203 F 
HETATM   23  C   UNL     1     -44.155  55.159 -59.575  1.00  0.00     0.155 A 
HETATM   24  F   UNL     1     -44.182  53.825 -59.709  1.00  0.00    -0.203 F 
HETATM   25  C   UNL     1     -43.425  55.722 -58.531  1.00  0.00     0.052 A 
ENDBRANCH  17  18
ENDBRANCH  13  17
ENDBRANCH   1  13
BRANCH   6  26
HETATM   26  C   UNL     1     -39.951  51.158 -52.486  1.00  0.00     0.010 A 
HETATM   27  C   UNL     1     -39.705  50.989 -51.103  1.00  0.00     0.152 A 
HETATM   28  N   UNL     1     -39.308  49.752 -50.793  1.00  0.00    -0.187 NA
HETATM   29  N   UNL     1     -39.297  49.121 -51.977  1.00  0.00    -0.289 N 
HETATM   30  H   UNL     1     -39.023  48.144 -52.001  1.00  0.00     0.188 HD
HETATM   31  C   UNL     1     -39.677  49.916 -53.020  1.00  0.00     0.123 A 
ENDBRANCH   6  26
TORSDOF 5
ENDMDL
MODEL 2
REMARK VINA RESULT:      -8.7      1.677      2.164
REMARK  5 active torsions:
REMARK  status: ('A' for Active; 'I' for Inactive)
REMARK    1  A    between atoms: N_1  and  C_2 
REMARK    2  A    between atoms: C_2  and  C_3 
REMARK    3  A    between atoms: C_2  and  C_12 
REMARK    4  A    between atoms: C_3  and  C_4 
REMARK    5  A    between atoms: C_17  and  C_23 
ROOT
HETATM    1  C   UNL     1     -41.632  57.272 -53.804  1.00  0.00     0.141 A 
HETATM    2  N   UNL     1     -41.146  56.415 -54.645  1.00  0.00    -0.232 NA
HETATM    3  C   UNL     1     -40.812  55.139 -54.159  1.00  0.00     0.074 A 
HETATM    4  C   UNL     1     -40.331  54.184 -55.055  1.00  0.00     0.033 A 
HETATM    5  C   UNL     1     -40.014  52.892 -54.616  1.00  0.00     0.014 A 
HETATM    6  C   UNL     1     -40.168  52.530 -53.269  1.00  0.00    -0.022 A 
HETATM    7  C   UNL     1     -40.645  53.489 -52.367  1.00  0.00     0.031 A 
HETATM    8  C   UNL     1     -40.961  54.776 -52.818  1.00  0.00     0.061 A 
HETATM    9  C   UNL     1     -41.479  55.796 -51.891  1.00  0.00     0.259 A 
HETATM   10  O   UNL     1     -41.640  55.572 -50.699  1.00  0.00    -0.267 OA
HETATM   11  N   UNL     1     -41.774  57.003 -52.466  1.00  0.00    -0.309 N 
HETATM   12  H   UNL     1     -42.156  57.738 -51.881  1.00  0.00     0.170 HD
ENDROOT
BRANCH   1  13
HETATM   13  C   UNL     1     -42.029  58.696 -54.220  1.00  0.00     0.291 C 
BRANCH  13  14
HETATM   14  N   UNL     1     -42.185  59.539 -53.006  1.00  0.00     0.090 N 
HETATM   15  H   UNL     1     -42.005  58.957 -52.184  1.00  0.00     0.313 HD
HETATM   16  H   UNL     1     -43.165  59.813 -52.926  1.00  0.00     0.313 HD
ENDBRANCH  13  14
BRANCH  13  17
HETATM   17  C   UNL     1     -43.245  58.742 -55.170  1.00  0.00     0.082 C 
BRANCH  17  18
HETATM   18  C   UNL     1     -42.985  58.274 -56.588  1.00  0.00    -0.053 A 
HETATM   19  C   UNL     1     -42.173  59.028 -57.452  1.00  0.00     0.010 A 
HETATM   20  C   UNL     1     -41.919  58.593 -58.755  1.00  0.00     0.046 A 
HETATM   21  C   UNL     1     -42.483  57.406 -59.204  1.00  0.00     0.154 A 
HETATM   22  F   UNL     1     -42.237  56.991 -60.455  1.00  0.00    -0.203 F 
HETATM   23  C   UNL     1     -43.297  56.657 -58.365  1.00  0.00     0.155 A 
HETATM   24  F   UNL     1     -43.842  55.511 -58.798  1.00  0.00    -0.203 F 
HETATM   25  C   UNL     1     -43.554  57.082 -57.064  1.00  0.00     0.052 A 
ENDBRANCH  17  18
ENDBRANCH  13  17
ENDBRANCH   1  13
BRANCH   6  26
HETATM   26  C   UNL     1     -39.850  51.180 -52.835  1.00  0.00     0.010 A 
HETATM   27  C   UNL     1     -39.728  49.976 -53.568  1.00  0.00     0.152 A 
HETATM   28  N   UNL     1     -39.410  48.931 -52.801  1.00  0.00    -0.187 NA
HETATM   29  N   UNL     1     -39.326  49.460 -51.570  1.00  0.00    -0.289 N 
HETATM   30  H   UNL     1     -39.089  48.847 -50.797  1.00  0.00     0.188 HD
HETATM   31  C   UNL     1     -39.577  50.801 -51.537  1.00  0.00     0.123 A 
ENDBRANCH   6  26
TORSDOF 5
ENDMDL
MODEL 3
REMARK VINA RESULT:      -8.6      3.511      8.807
REMARK  5 active torsions:
REMARK  status: ('A' for Active; 'I' for Inactive)
REMARK    1  A    between atoms: N_1  and  C_2 
REMARK    2  A    between atoms: C_2  and  C_3 
REMARK    3  A    between atoms: C_2  and  C_12 
REMARK    4  A    between atoms: C_3  and  C_4 
REMARK    5  A    between atoms: C_17  and  C_23 
ROOT
HETATM    1  C   UNL     1     -42.534  55.368 -55.297  1.00  0.00     0.141 A 
HETATM    2  N   UNL     1     -42.849  55.050 -56.512  1.00  0.00    -0.232 NA
HETATM    3  C   UNL     1     -42.867  56.076 -57.473  1.00  0.00     0.074 A 
HETATM    4  C   UNL     1     -43.156  55.750 -58.798  1.00  0.00     0.033 A 
HETATM    5  C   UNL     1     -43.157  56.739 -59.790  1.00  0.00     0.014 A 
HETATM    6  C   UNL     1     -42.871  58.076 -59.476  1.00  0.00    -0.022 A 
HETATM    7  C   UNL     1     -42.585  58.406 -58.146  1.00  0.00     0.031 A 
HETATM    8  C   UNL     1     -42.586  57.409 -57.164  1.00  0.00     0.061 A 
HETATM    9  C   UNL     1     -42.273  57.730 -55.760  1.00  0.00     0.259 A 
HETATM   10  O   UNL     1     -42.017  58.868 -55.393  1.00  0.00    -0.267 OA
HETATM   11  N   UNL     1     -42.280  56.659 -54.907  1.00  0.00    -0.309 N 
HETATM   12  H   UNL     1     -42.050  56.815 -53.932  1.00  0.00     0.170 HD
ENDROOT
BRANCH   1  13
HETATM   13  C   UNL     1     -42.484  54.332 -54.163  1.00  0.00     0.291 C 
BRANCH  13  14
HETATM   14  N   UNL     1     -43.614  54.570 -53.229  1.00  0.00     0.090 N 
HETATM   15  H   UNL     1     -44.080  53.677 -53.051  1.00  0.00     0.313 HD
HETATM   16  H   UNL     1     -44.313  55.143 -53.705  1.00  0.00     0.313 HD
ENDBRANCH  13  14
BRANCH  13  17
HETATM   17  C   UNL     1     -41.108  54.247 -53.469  1.00  0.00     0.082 C 
BRANCH  17  18
HETATM   18  C   UNL     1     -40.576  52.847 -53.239  1.00  0.00    -0.053 A 
HETATM   19  C   UNL     1     -40.092  52.465 -51.976  1.00  0.00     0.010 A 
HETATM   20  C   UNL     1     -39.614  51.171 -51.756  1.00  0.00     0.046 A 
HETATM   21  C   UNL     1     -39.612  50.253 -52.799  1.00  0.00     0.154 A 
HETATM   22  F   UNL     1     -39.154  49.012 -52.584  1.00  0.00    -0.203 F 
HETATM   23  C   UNL     1     -40.077  50.621 -54.054  1.00  0.00     0.155 A 
HETATM   24  F   UNL     1     -40.075  49.736 -55.061  1.00  0.00    -0.203 F 
HETATM   25  C   UNL     1     -40.556  51.909 -54.283  1.00  0.00     0.052 A 
ENDBRANCH  17  18
ENDBRANCH  13  17
ENDBRANCH   1  13
BRANCH   6  26
HETATM   26  C   UNL     1     -42.859  59.085 -60.521  1.00  0.00     0.010 A 
HETATM   27  C   UNL     1     -43.919  59.788 -61.143  1.00  0.00     0.152 A 
HETATM   28  N   UNL     1     -43.496  60.653 -62.068  1.00  0.00    -0.187 NA
HETATM   29  N   UNL     1     -42.162  60.510 -62.044  1.00  0.00    -0.289 N 
HETATM   30  H   UNL     1     -41.604  61.077 -62.674  1.00  0.00     0.188 HD
HETATM   31  C   UNL     1     -41.730  59.587 -61.135  1.00  0.00     0.123 A 
ENDBRANCH   6  26
TORSDOF 5
ENDMDL
MODEL 4
REMARK VINA RESULT:      -8.6      4.166      5.596
REMARK  5 active torsions:
REMARK  status: ('A' for Active; 'I' for Inactive)
REMARK    1  A    between atoms: N_1  and  C_2 
REMARK    2  A    between atoms: C_2  and  C_3 
REMARK    3  A    between atoms: C_2  and  C_12 
REMARK    4  A    between atoms: C_3  and  C_4 
REMARK    5  A    between atoms: C_17  and  C_23 
ROOT
HETATM    1  C   UNL     1     -42.547  56.970 -54.478  1.00  0.00     0.141 A 
HETATM    2  N   UNL     1     -41.608  56.325 -55.094  1.00  0.00    -0.232 NA
HETATM    3  C   UNL     1     -41.219  55.079 -54.572  1.00  0.00     0.074 A 
HETATM    4  C   UNL     1     -40.243  54.345 -55.245  1.00  0.00     0.033 A 
HETATM    5  C   UNL     1     -39.847  53.086 -54.774  1.00  0.00     0.014 A 
HETATM    6  C   UNL     1     -40.419  52.538 -53.615  1.00  0.00    -0.022 A 
HETATM    7  C   UNL     1     -41.395  53.276 -52.935  1.00  0.00     0.031 A 
HETATM    8  C   UNL     1     -41.783  54.531 -53.418  1.00  0.00     0.061 A 
HETATM    9  C   UNL     1     -42.819  55.319 -52.728  1.00  0.00     0.259 A 
HETATM   10  O   UNL     1     -43.368  54.924 -51.709  1.00  0.00    -0.267 OA
HETATM   11  N   UNL     1     -43.125  56.515 -53.319  1.00  0.00    -0.309 N 
HETATM   12  H   UNL     1     -43.848  57.092 -52.901  1.00  0.00     0.170 HD
ENDROOT
BRANCH   1  13
HETATM   13  C   UNL     1     -43.052  58.341 -54.954  1.00  0.00     0.291 C 
BRANCH  13  14
HETATM   14  N   UNL     1     -43.307  58.290 -56.417  1.00  0.00     0.090 N 
HETATM   15  H   UNL     1     -44.243  58.664 -56.595  1.00  0.00     0.313 HD
HETATM   16  H   UNL     1     -43.355  57.311 -56.704  1.00  0.00     0.313 HD
ENDBRANCH  13  14
BRANCH  13  17
HETATM   17  C   UNL     1     -42.147  59.513 -54.519  1.00  0.00     0.082 C 
BRANCH  17  18
HETATM   18  C   UNL     1     -41.768  59.539 -53.052  1.00  0.00    -0.053 A 
HETATM   19  C   UNL     1     -42.692  59.965 -52.083  1.00  0.00     0.010 A 
HETATM   20  C   UNL     1     -42.352  59.977 -50.728  1.00  0.00     0.046 A 
HETATM   21  C   UNL     1     -41.084  59.569 -50.335  1.00  0.00     0.154 A 
HETATM   22  F   UNL     1     -40.761  59.580 -49.035  1.00  0.00    -0.203 F 
HETATM   23  C   UNL     1     -40.158  59.155 -51.284  1.00  0.00     0.155 A 
HETATM   24  F   UNL     1     -38.933  58.761 -50.905  1.00  0.00    -0.203 F 
HETATM   25  C   UNL     1     -40.488  59.139 -52.637  1.00  0.00     0.052 A 
ENDBRANCH  17  18
ENDBRANCH  13  17
ENDBRANCH   1  13
BRANCH   6  26
HETATM   26  C   UNL     1     -40.009  51.224 -53.151  1.00  0.00     0.010 A 
HETATM   27  C   UNL     1     -39.841  50.005 -53.850  1.00  0.00     0.152 A 
HETATM   28  N   UNL     1     -39.438  49.006 -53.061  1.00  0.00    -0.187 NA
HETATM   29  N   UNL     1     -39.344  49.579 -51.852  1.00  0.00    -0.289 N 
HETATM   30  H   UNL     1     -39.046  49.007 -51.068  1.00  0.00     0.188 HD
HETATM   31  C   UNL     1     -39.672  50.905 -51.852  1.00  0.00     0.123 A 
ENDBRANCH   6  26
TORSDOF 5
ENDMDL
MODEL 5
REMARK VINA RESULT:      -8.6      3.957      9.177
REMARK  5 active torsions:
REMARK  status: ('A' for Active; 'I' for Inactive)
REMARK    1  A    between atoms: N_1  and  C_2 
REMARK    2  A    between atoms: C_2  and  C_3 
REMARK    3  A    between atoms: C_2  and  C_12 
REMARK    4  A    between atoms: C_3  and  C_4 
REMARK    5  A    between atoms: C_17  and  C_23 
ROOT
HETATM    1  C   UNL     1     -42.870  55.599 -56.239  1.00  0.00     0.141 A 
HETATM    2  N   UNL     1     -42.392  56.803 -56.237  1.00  0.00    -0.232 NA
HETATM    3  C   UNL     1     -42.465  57.538 -57.433  1.00  0.00     0.074 A 
HETATM    4  C   UNL     1     -42.000  58.853 -57.443  1.00  0.00     0.033 A 
HETATM    5  C   UNL     1     -42.080  59.627 -58.607  1.00  0.00     0.014 A 
HETATM    6  C   UNL     1     -42.625  59.100 -59.788  1.00  0.00    -0.022 A 
HETATM    7  C   UNL     1     -43.087  57.778 -59.782  1.00  0.00     0.031 A 
HETATM    8  C   UNL     1     -43.003  57.015 -58.612  1.00  0.00     0.061 A 
HETATM    9  C   UNL     1     -43.497  55.628 -58.577  1.00  0.00     0.259 A 
HETATM   10  O   UNL     1     -43.982  55.083 -59.559  1.00  0.00    -0.267 OA
HETATM   11  N   UNL     1     -43.382  55.003 -57.364  1.00  0.00    -0.309 N 
HETATM   12  H   UNL     1     -43.726  54.054 -57.273  1.00  0.00     0.170 HD
ENDROOT
BRANCH   1  13
HETATM   13  C   UNL     1     -42.843  54.703 -54.992  1.00  0.00     0.291 C 
BRANCH  13  14
HETATM   14  N   UNL     1     -44.177  54.726 -54.339  1.00  0.00     0.090 N 
HETATM   15  H   UNL     1     -44.142  54.128 -53.509  1.00  0.00     0.313 HD
HETATM   16  H   UNL     1     -44.850  54.274 -54.961  1.00  0.00     0.313 HD
ENDBRANCH  13  14
BRANCH  13  17
HETATM   17  C   UNL     1     -41.675  55.019 -54.033  1.00  0.00     0.082 C 
BRANCH  17  18
HETATM   18  C   UNL     1     -40.972  53.816 -53.438  1.00  0.00    -0.053 A 
HETATM   19  C   UNL     1     -40.722  53.746 -52.057  1.00  0.00     0.010 A 
HETATM   20  C   UNL     1     -40.087  52.632 -51.501  1.00  0.00     0.046 A 
HETATM   21  C   UNL     1     -39.693  51.586 -52.325  1.00  0.00     0.154 A 
HETATM   22  F   UNL     1     -39.085  50.518 -51.789  1.00  0.00    -0.203 F 
HETATM   23  C   UNL     1     -39.924  51.647 -53.693  1.00  0.00     0.155 A 
HETATM   24  F   UNL     1     -39.543  50.637 -54.489  1.00  0.00    -0.203 F 
HETATM   25  C   UNL     1     -40.557  52.753 -54.255  1.00  0.00     0.052 A 
ENDBRANCH  17  18
ENDBRANCH  13  17
ENDBRANCH   1  13
BRANCH   6  26
HETATM   26  C   UNL     1     -42.716  59.924 -60.981  1.00  0.00     0.010 A 
HETATM   27  C   UNL     1     -43.834  60.310 -61.758  1.00  0.00     0.152 A 
HETATM   28  N   UNL     1     -43.505  61.092 -62.789  1.00  0.00    -0.187 NA
HETATM   29  N   UNL     1     -42.173  61.211 -62.679  1.00  0.00    -0.289 N 
HETATM   30  H   UNL     1     -41.680  61.774 -63.366  1.00  0.00     0.188 HD
HETATM   31  C   UNL     1     -41.653  60.535 -61.613  1.00  0.00     0.123 A 
ENDBRANCH   6  26
TORSDOF 5
ENDMDL
MODEL 6
REMARK VINA RESULT:      -8.6      4.654      6.037
REMARK  5 active torsions:
REMARK  status: ('A' for Active; 'I' for Inactive)
REMARK    1  A    between atoms: N_1  and  C_2 
REMARK    2  A    between atoms: C_2  and  C_3 
REMARK    3  A    between atoms: C_2  and  C_12 
REMARK    4  A    between atoms: C_3  and  C_4 
REMARK    5  A    between atoms: C_17  and  C_23 
ROOT
HETATM    1  C   UNL     1     -41.801  57.437 -53.304  1.00  0.00     0.141 A 
HETATM    2  N   UNL     1     -41.336  56.702 -54.263  1.00  0.00    -0.232 NA
HETATM    3  C   UNL     1     -40.963  55.382 -53.954  1.00  0.00     0.074 A 
HETATM    4  C   UNL     1     -40.504  54.557 -54.980  1.00  0.00     0.033 A 
HETATM    5  C   UNL     1     -40.149  53.227 -54.719  1.00  0.00     0.014 A 
HETATM    6  C   UNL     1     -40.243  52.697 -53.423  1.00  0.00    -0.022 A 
HETATM    7  C   UNL     1     -40.699  53.526 -52.391  1.00  0.00     0.031 A 
HETATM    8  C   UNL     1     -41.052  54.852 -52.665  1.00  0.00     0.061 A 
HETATM    9  C   UNL     1     -41.549  55.738 -51.598  1.00  0.00     0.259 A 
HETATM   10  O   UNL     1     -41.659  55.364 -50.438  1.00  0.00    -0.267 OA
HETATM   11  N   UNL     1     -41.886  57.001 -52.005  1.00  0.00    -0.309 N 
HETATM   12  H   UNL     1     -42.255  57.649 -51.319  1.00  0.00     0.170 HD
ENDROOT
BRANCH   1  13
HETATM   13  C   UNL     1     -42.237  58.894 -53.523  1.00  0.00     0.291 C 
BRANCH  13  14
HETATM   14  N   UNL     1     -41.716  59.373 -54.828  1.00  0.00     0.090 N 
HETATM   15  H   UNL     1     -42.250  58.922 -55.575  1.00  0.00     0.313 HD
HETATM   16  H   UNL     1     -40.761  59.029 -54.942  1.00  0.00     0.313 HD
ENDBRANCH  13  14
BRANCH  13  17
HETATM   17  C   UNL     1     -41.896  59.822 -52.337  1.00  0.00     0.082 C 
BRANCH  17  18
HETATM   18  C   UNL     1     -43.066  60.223 -51.461  1.00  0.00    -0.053 A 
HETATM   19  C   UNL     1     -42.869  61.044 -50.338  1.00  0.00     0.010 A 
HETATM   20  C   UNL     1     -43.947  61.428 -49.536  1.00  0.00     0.046 A 
HETATM   21  C   UNL     1     -45.227  60.987 -49.850  1.00  0.00     0.154 A 
HETATM   22  F   UNL     1     -46.259  61.358 -49.080  1.00  0.00    -0.203 F 
HETATM   23  C   UNL     1     -45.433  60.167 -50.951  1.00  0.00     0.155 A 
HETATM   24  F   UNL     1     -46.668  59.741 -51.254  1.00  0.00    -0.203 F 
HETATM   25  C   UNL     1     -44.365  59.780 -51.756  1.00  0.00     0.052 A 
ENDBRANCH  17  18
ENDBRANCH  13  17
ENDBRANCH   1  13
BRANCH   6  26
HETATM   26  C   UNL     1     -39.887  51.310 -53.174  1.00  0.00     0.010 A 
HETATM   27  C   UNL     1     -39.692  50.229 -54.066  1.00  0.00     0.152 A 
HETATM   28  N   UNL     1     -39.360  49.096 -53.444  1.00  0.00    -0.187 NA
HETATM   29  N   UNL     1     -39.340  49.444 -52.148  1.00  0.00    -0.289 N 
HETATM   30  H   UNL     1     -39.106  48.735 -51.461  1.00  0.00     0.188 HD
HETATM   31  C   UNL     1     -39.645  50.758 -51.934  1.00  0.00     0.123 A 
ENDBRANCH   6  26
TORSDOF 5
ENDMDL
MODEL 7
REMARK VINA RESULT:      -8.4      3.501      8.224
REMARK  5 active torsions:
REMARK  status: ('A' for Active; 'I' for Inactive)
REMARK    1  A    between atoms: N_1  and  C_2 
REMARK    2  A    between atoms: C_2  and  C_3 
REMARK    3  A    between atoms: C_2  and  C_12 
REMARK    4  A    between atoms: C_3  and  C_4 
REMARK    5  A    between atoms: C_17  and  C_23 
ROOT
HETATM    1  C   UNL     1     -42.155  54.956 -52.627  1.00  0.00     0.141 A 
HETATM    2  N   UNL     1     -42.643  54.354 -53.665  1.00  0.00    -0.232 NA
HETATM    3  C   UNL     1     -42.715  55.079 -54.868  1.00  0.00     0.074 A 
HETATM    4  C   UNL     1     -43.193  54.437 -56.010  1.00  0.00     0.033 A 
HETATM    5  C   UNL     1     -43.255  55.115 -57.234  1.00  0.00     0.014 A 
HETATM    6  C   UNL     1     -42.844  56.453 -57.339  1.00  0.00    -0.022 A 
HETATM    7  C   UNL     1     -42.370  57.101 -56.192  1.00  0.00     0.031 A 
HETATM    8  C   UNL     1     -42.311  56.411 -54.975  1.00  0.00     0.061 A 
HETATM    9  C   UNL     1     -41.801  57.067 -53.759  1.00  0.00     0.259 A 
HETATM   10  O   UNL     1     -41.426  58.232 -53.753  1.00  0.00    -0.267 OA
HETATM   11  N   UNL     1     -41.770  56.273 -52.644  1.00  0.00    -0.309 N 
HETATM   12  H   UNL     1     -41.408  56.664 -51.781  1.00  0.00     0.170 HD
ENDROOT
BRANCH   1  13
HETATM   13  C   UNL     1     -42.029  54.266 -51.261  1.00  0.00     0.291 C 
BRANCH  13  14
HETATM   14  N   UNL     1     -42.647  55.123 -50.217  1.00  0.00     0.090 N 
HETATM   15  H   UNL     1     -42.296  56.077 -50.332  1.00  0.00     0.313 HD
HETATM   16  H   UNL     1     -42.301  54.822 -49.304  1.00  0.00     0.313 HD
ENDBRANCH  13  14
BRANCH  13  17
HETATM   17  C   UNL     1     -40.590  53.819 -50.929  1.00  0.00     0.082 C 
BRANCH  17  18
HETATM   18  C   UNL     1     -40.211  52.428 -51.396  1.00  0.00    -0.053 A 
HETATM   19  C   UNL     1     -40.081  51.376 -50.474  1.00  0.00     0.010 A 
HETATM   20  C   UNL     1     -39.746  50.088 -50.901  1.00  0.00     0.046 A 
HETATM   21  C   UNL     1     -39.534  49.848 -52.253  1.00  0.00     0.154 A 
HETATM   22  F   UNL     1     -39.214  48.612 -52.661  1.00  0.00    -0.203 F 
HETATM   23  C   UNL     1     -39.649  50.881 -53.173  1.00  0.00     0.155 A 
HETATM   24  F   UNL     1     -39.444  50.650 -54.478  1.00  0.00    -0.203 F 
HETATM   25  C   UNL     1     -39.983  52.167 -52.756  1.00  0.00     0.052 A 
ENDBRANCH  17  18
ENDBRANCH  13  17
ENDBRANCH   1  13
BRANCH   6  26
HETATM   26  C   UNL     1     -42.899  57.136 -58.620  1.00  0.00     0.010 A 
HETATM   27  C   UNL     1     -42.023  58.079 -59.206  1.00  0.00     0.152 A 
HETATM   28  N   UNL     1     -42.419  58.472 -60.420  1.00  0.00    -0.187 NA
HETATM   29  N   UNL     1     -43.552  57.782 -60.618  1.00  0.00    -0.289 N 
HETATM   30  H   UNL     1     -44.051  57.913 -61.492  1.00  0.00     0.188 HD
HETATM   31  C   UNL     1     -43.882  56.967 -59.574  1.00  0.00     0.123 A 
ENDBRANCH   6  26
TORSDOF 5
ENDMDL
MODEL 8
REMARK VINA RESULT:      -8.3      4.221      9.122
REMARK  5 active torsions:
REMARK  status: ('A' for Active; 'I' for Inactive)
REMARK    1  A    between atoms: N_1  and  C_2 
REMARK    2  A    between atoms: C_2  and  C_3 
REMARK    3  A    between atoms: C_2  and  C_12 
REMARK    4  A    between atoms: C_3  and  C_4 
REMARK    5  A    between atoms: C_17  and  C_23 
ROOT
HETATM    1  C   UNL     1     -42.725  56.575 -55.907  1.00  0.00     0.141 A 
HETATM    2  N   UNL     1     -42.867  56.384 -57.180  1.00  0.00    -0.232 NA
HETATM    3  C   UNL     1     -42.611  57.470 -58.036  1.00  0.00     0.074 A 
HETATM    4  C   UNL     1     -42.711  57.277 -59.413  1.00  0.00     0.033 A 
HETATM    5  C   UNL     1     -42.437  58.326 -60.301  1.00  0.00     0.014 A 
HETATM    6  C   UNL     1     -42.059  59.591 -59.827  1.00  0.00    -0.022 A 
HETATM    7  C   UNL     1     -41.963  59.789 -58.444  1.00  0.00     0.031 A 
HETATM    8  C   UNL     1     -42.238  58.733 -57.568  1.00  0.00     0.061 A 
HETATM    9  C   UNL     1     -42.129  58.912 -56.110  1.00  0.00     0.259 A 
HETATM   10  O   UNL     1     -41.813  59.981 -55.606  1.00  0.00    -0.267 OA
HETATM   11  N   UNL     1     -42.397  57.794 -55.368  1.00  0.00    -0.309 N 
HETATM   12  H   UNL     1     -42.317  57.850 -54.359  1.00  0.00     0.170 HD
ENDROOT
BRANCH   1  13
HETATM   13  C   UNL     1     -42.980  55.463 -54.877  1.00  0.00     0.291 C 
BRANCH  13  14
HETATM   14  N   UNL     1     -44.414  55.473 -54.487  1.00  0.00     0.090 N 
HETATM   15  H   UNL     1     -44.835  56.342 -54.826  1.00  0.00     0.313 HD
HETATM   16  H   UNL     1     -44.472  55.531 -53.469  1.00  0.00     0.313 HD
ENDBRANCH  13  14
BRANCH  13  17
HETATM   17  C   UNL     1     -42.008  55.501 -53.679  1.00  0.00     0.082 C 
BRANCH  17  18
HETATM   18  C   UNL     1     -41.261  54.212 -53.401  1.00  0.00    -0.053 A 
HETATM   19  C   UNL     1     -40.918  53.344 -54.451  1.00  0.00     0.010 A 
HETATM   20  C   UNL     1     -40.217  52.161 -54.201  1.00  0.00     0.046 A 
HETATM   21  C   UNL     1     -39.862  51.837 -52.898  1.00  0.00     0.154 A 
HETATM   22  F   UNL     1     -39.189  50.703 -52.660  1.00  0.00    -0.203 F 
HETATM   23  C   UNL     1     -40.205  52.681 -51.849  1.00  0.00     0.155 A 
HETATM   24  F   UNL     1     -39.862  52.368 -50.591  1.00  0.00    -0.203 F 
HETATM   25  C   UNL     1     -40.902  53.862 -52.090  1.00  0.00     0.052 A 
ENDBRANCH  17  18
ENDBRANCH  13  17
ENDBRANCH   1  13
BRANCH   6  26
HETATM   26  C   UNL     1     -41.761  60.662 -60.763  1.00  0.00     0.010 A 
HETATM   27  C   UNL     1     -41.107  61.902 -60.574  1.00  0.00     0.152 A 
HETATM   28  N   UNL     1     -41.018  62.619 -61.698  1.00  0.00    -0.187 NA
HETATM   29  N   UNL     1     -41.615  61.841 -62.613  1.00  0.00    -0.289 N 
HETATM   30  H   UNL     1     -41.672  62.177 -63.569  1.00  0.00     0.188 HD
HETATM   31  C   UNL     1     -42.074  60.659 -62.106  1.00  0.00     0.123 A 
ENDBRANCH   6  26
TORSDOF 5
ENDMDL
MODEL 9
REMARK VINA RESULT:      -8.1      4.841      6.299
REMARK  5 active torsions:
REMARK  status: ('A' for Active; 'I' for Inactive)
REMARK    1  A    between atoms: N_1  and  C_2 
REMARK    2  A    between atoms: C_2  and  C_3 
REMARK    3  A    between atoms: C_2  and  C_12 
REMARK    4  A    between atoms: C_3  and  C_4 
REMARK    5  A    between atoms: C_17  and  C_23 
ROOT
HETATM    1  C   UNL     1     -41.860  57.335 -53.064  1.00  0.00     0.141 A 
HETATM    2  N   UNL     1     -41.530  56.608 -52.044  1.00  0.00    -0.232 NA
HETATM    3  C   UNL     1     -41.165  55.271 -52.285  1.00  0.00     0.074 A 
HETATM    4  C   UNL     1     -40.761  54.482 -51.209  1.00  0.00     0.033 A 
HETATM    5  C   UNL     1     -40.363  53.154 -51.409  1.00  0.00     0.014 A 
HETATM    6  C   UNL     1     -40.366  52.587 -52.693  1.00  0.00    -0.022 A 
HETATM    7  C   UNL     1     -40.777  53.376 -53.774  1.00  0.00     0.031 A 
HETATM    8  C   UNL     1     -41.170  54.702 -53.560  1.00  0.00     0.061 A 
HETATM    9  C   UNL     1     -41.592  55.556 -54.684  1.00  0.00     0.259 A 
HETATM   10  O   UNL     1     -41.632  55.146 -55.836  1.00  0.00    -0.267 OA
HETATM   11  N   UNL     1     -41.924  56.840 -54.342  1.00  0.00    -0.309 N 
HETATM   12  H   UNL     1     -42.201  57.481 -55.077  1.00  0.00     0.170 HD
ENDROOT
BRANCH   1  13
HETATM   13  C   UNL     1     -42.278  58.806 -52.922  1.00  0.00     0.291 C 
BRANCH  13  14
HETATM   14  N   UNL     1     -41.509  59.632 -53.888  1.00  0.00     0.090 N 
HETATM   15  H   UNL     1     -40.860  60.223 -53.363  1.00  0.00     0.313 HD
HETATM   16  H   UNL     1     -42.152  60.284 -54.340  1.00  0.00     0.313 HD
ENDBRANCH  13  14
BRANCH  13  17
HETATM   17  C   UNL     1     -42.216  59.325 -51.470  1.00  0.00     0.082 C 
BRANCH  17  18
HETATM   18  C   UNL     1     -43.447  60.063 -50.984  1.00  0.00    -0.053 A 
HETATM   19  C   UNL     1     -43.355  60.997 -49.939  1.00  0.00     0.010 A 
HETATM   20  C   UNL     1     -44.485  61.690 -49.497  1.00  0.00     0.046 A 
HETATM   21  C   UNL     1     -45.715  61.448 -50.096  1.00  0.00     0.154 A 
HETATM   22  F   UNL     1     -46.797  62.116 -49.671  1.00  0.00    -0.203 F 
HETATM   23  C   UNL     1     -45.823  60.520 -51.123  1.00  0.00     0.155 A 
HETATM   24  F   UNL     1     -47.010  60.286 -51.700  1.00  0.00    -0.203 F 
HETATM   25  C   UNL     1     -44.701  59.825 -51.569  1.00  0.00     0.052 A 
ENDBRANCH  17  18
ENDBRANCH  13  17
ENDBRANCH   1  13
BRANCH   6  26
HETATM   26  C   UNL     1     -39.934  51.213 -52.885  1.00  0.00     0.010 A 
HETATM   27  C   UNL     1     -39.759  50.453 -54.066  1.00  0.00     0.152 A 
HETATM   28  N   UNL     1     -39.333  49.210 -53.825  1.00  0.00    -0.187 NA
HETATM   29  N   UNL     1     -39.233  49.167 -52.488  1.00  0.00    -0.289 N 
HETATM   30  H   UNL     1     -38.919  48.305 -52.055  1.00  0.00     0.188 HD
HETATM   31  C   UNL     1     -39.577  50.340 -51.879  1.00  0.00     0.123 A 
ENDBRANCH   6  26
TORSDOF 5
ENDMDL
MODEL 10
REMARK VINA RESULT:      -8.1      2.405      3.035
REMARK  5 active torsions:
REMARK  status: ('A' for Active; 'I' for Inactive)
REMARK    1  A    between atoms: N_1  and  C_2 
REMARK    2  A    between atoms: C_2  and  C_3 
REMARK    3  A    between atoms: C_2  and  C_12 
REMARK    4  A    between atoms: C_3  and  C_4 
REMARK    5  A    between atoms: C_17  and  C_23 
ROOT
HETATM    1  C   UNL     1     -42.456  56.596 -56.256  1.00  0.00     0.141 A 
HETATM    2  N   UNL     1     -42.272  55.377 -55.857  1.00  0.00    -0.232 NA
HETATM    3  C   UNL     1     -41.944  55.175 -54.505  1.00  0.00     0.074 A 
HETATM    4  C   UNL     1     -41.787  53.869 -54.042  1.00  0.00     0.033 A 
HETATM    5  C   UNL     1     -41.488  53.622 -52.696  1.00  0.00     0.014 A 
HETATM    6  C   UNL     1     -41.337  54.680 -51.786  1.00  0.00    -0.022 A 
HETATM    7  C   UNL     1     -41.489  55.992 -52.250  1.00  0.00     0.031 A 
HETATM    8  C   UNL     1     -41.789  56.225 -53.597  1.00  0.00     0.061 A 
HETATM    9  C   UNL     1     -41.969  57.595 -54.106  1.00  0.00     0.259 A 
HETATM   10  O   UNL     1     -41.851  58.578 -53.387  1.00  0.00    -0.267 OA
HETATM   11  N   UNL     1     -42.288  57.682 -55.434  1.00  0.00    -0.309 N 
HETATM   12  H   UNL     1     -42.446  58.600 -55.836  1.00  0.00     0.170 HD
ENDROOT
BRANCH   1  13
HETATM   13  C   UNL     1     -42.815  56.939 -57.710  1.00  0.00     0.291 C 
BRANCH  13  14
HETATM   14  N   UNL     1     -41.639  57.557 -58.375  1.00  0.00     0.090 N 
HETATM   15  H   UNL     1     -40.977  56.815 -58.616  1.00  0.00     0.313 HD
HETATM   16  H   UNL     1     -41.149  58.137 -57.692  1.00  0.00     0.313 HD
ENDBRANCH  13  14
BRANCH  13  17
HETATM   17  C   UNL     1     -44.112  57.764 -57.844  1.00  0.00     0.082 C 
BRANCH  17  18
HETATM   18  C   UNL     1     -45.079  57.297 -58.914  1.00  0.00    -0.053 A 
HETATM   19  C   UNL     1     -46.322  57.930 -59.080  1.00  0.00     0.010 A 
HETATM   20  C   UNL     1     -47.210  57.512 -60.075  1.00  0.00     0.046 A 
HETATM   21  C   UNL     1     -46.862  56.453 -60.904  1.00  0.00     0.154 A 
HETATM   22  F   UNL     1     -47.715  56.054 -61.857  1.00  0.00    -0.203 F 
HETATM   23  C   UNL     1     -45.641  55.811 -60.743  1.00  0.00     0.155 A 
HETATM   24  F   UNL     1     -45.305  54.788 -61.542  1.00  0.00    -0.203 F 
HETATM   25  C   UNL     1     -44.749  56.222 -59.755  1.00  0.00     0.052 A 
ENDBRANCH  17  18
ENDBRANCH  13  17
ENDBRANCH   1  13
BRANCH   6  26
HETATM   26  C   UNL     1     -41.044  54.405 -50.389  1.00  0.00     0.010 A 
HETATM   27  C   UNL     1     -41.212  55.202 -49.232  1.00  0.00     0.152 A 
HETATM   28  N   UNL     1     -40.828  54.582 -48.114  1.00  0.00    -0.187 NA
HETATM   29  N   UNL     1     -40.410  53.383 -48.548  1.00  0.00    -0.289 N 
HETATM   30  H   UNL     1     -40.064  52.717 -47.865  1.00  0.00     0.188 HD
HETATM   31  C   UNL     1     -40.522  53.226 -49.899  1.00  0.00     0.123 A 
ENDBRANCH   6  26
TORSDOF 5
ENDMDL
