MODEL 1
REMARK VINA RESULT:      -9.0      0.000      0.000
REMARK  5 active torsions:
REMARK  status: ('A' for Active; 'I' for Inactive)
REMARK    1  A    between atoms: N_4  and  C_5 
REMARK    2  A    between atoms: C_14  and  C_15 
REMARK       I    between atoms: C_15  and  N_16 
REMARK    3  A    between atoms: N_16  and  N_17 
REMARK    4  A    between atoms: N_17  and  C_18 
REMARK    5  A    between atoms: N_19  and  C_20 
ROOT
HETATM    1  C   UNL     1     -44.110  56.757 -53.733  1.00  0.00     0.277 C 
HETATM    2  N   UNL     1     -44.285  56.519 -55.083  1.00  0.00    -0.263 N 
HETATM    3  O   UNL     1     -44.724  57.655 -53.155  1.00  0.00    -0.265 OA
HETATM    4  H   UNL     1     -43.751  55.808 -55.578  1.00  0.00     0.190 HD
ENDROOT
BRANCH   1   5
HETATM    5  C   UNL     1     -43.163  55.877 -53.060  1.00  0.00     0.077 A 
HETATM    6  S   UNL     1     -42.510  54.465 -53.859  1.00  0.00    -0.064 SA
HETATM    7  C   UNL     1     -41.650  54.053 -52.494  1.00  0.00     0.113 A 
HETATM    8  N   UNL     1     -40.804  53.074 -52.034  1.00  0.00    -0.226 N 
HETATM    9  C   UNL     1     -41.826  54.926 -51.499  1.00  0.00     0.027 A 
HETATM   10  N   UNL     1     -40.431  53.369 -50.731  1.00  0.00    -0.171 NA
HETATM   11  C   UNL     1     -41.072  54.512 -50.417  1.00  0.00     0.064 A 
HETATM   12  C   UNL     1     -40.911  55.132 -49.082  1.00  0.00     0.073 C 
HETATM   13  C   UNL     1     -42.683  55.992 -51.755  1.00  0.00     0.041 A 
BRANCH   8  14
HETATM   14  C   UNL     1     -40.316  51.891 -52.663  1.00  0.00     0.059 A 
HETATM   15  C   UNL     1     -39.850  50.837 -51.859  1.00  0.00     0.031 A 
HETATM   16  C   UNL     1     -39.378  49.654 -52.436  1.00  0.00     0.002 A 
HETATM   17  C   UNL     1     -39.363  49.512 -53.820  1.00  0.00     0.000 A 
HETATM   18  C   UNL     1     -39.818  50.552 -54.627  1.00  0.00     0.002 A 
HETATM   19  C   UNL     1     -40.292  51.737 -54.054  1.00  0.00     0.031 A 
ENDBRANCH   8  14
ENDBRANCH   1   5
BRANCH   2  20
HETATM   20  N   UNL     1     -45.173  57.304 -55.833  1.00  0.00    -0.273 N 
HETATM   21  H   UNL     1     -46.020  56.815 -56.119  1.00  0.00     0.189 HD
BRANCH  20  22
HETATM   22  C   UNL     1     -44.704  58.333 -56.603  1.00  0.00     0.191 C 
HETATM   23  N   UNL     1     -44.354  58.074 -57.892  1.00  0.00    -0.331 N 
HETATM   24  H   UNL     1     -43.809  58.827 -58.309  1.00  0.00     0.168 HD
HETATM   25  S   UNL     1     -44.483  59.902 -56.041  1.00  0.00    -0.039 SA
BRANCH  23  26
HETATM   26  C   UNL     1     -44.591  56.983 -58.759  1.00  0.00     0.056 A 
HETATM   27  C   UNL     1     -45.801  56.966 -59.484  1.00  0.00     0.060 A 
HETATM   28 CL   UNL     1     -46.952  58.251 -59.331  1.00  0.00    -0.082 Cl
HETATM   29  C   UNL     1     -46.104  55.919 -60.357  1.00  0.00     0.026 A 
HETATM   30  C   UNL     1     -45.211  54.862 -60.507  1.00  0.00     0.002 A 
HETATM   31  C   UNL     1     -44.030  54.846 -59.770  1.00  0.00     0.002 A 
HETATM   32  C   UNL     1     -43.724  55.894 -58.893  1.00  0.00     0.031 A 
ENDBRANCH  23  26
ENDBRANCH  20  22
ENDBRANCH   2  20
TORSDOF 5
ENDMDL
MODEL 2
REMARK VINA RESULT:      -8.8      1.145      1.447
REMARK  5 active torsions:
REMARK  status: ('A' for Active; 'I' for Inactive)
REMARK    1  A    between atoms: N_4  and  C_5 
REMARK    2  A    between atoms: C_14  and  C_15 
REMARK       I    between atoms: C_15  and  N_16 
REMARK    3  A    between atoms: N_16  and  N_17 
REMARK    4  A    between atoms: N_17  and  C_18 
REMARK    5  A    between atoms: N_19  and  C_20 
ROOT
HETATM    1  C   UNL     1     -44.588  57.273 -53.822  1.00  0.00     0.277 C 
HETATM    2  N   UNL     1     -44.935  56.883 -55.102  1.00  0.00    -0.263 N 
HETATM    3  O   UNL     1     -45.103  58.257 -53.290  1.00  0.00    -0.265 OA
HETATM    4  H   UNL     1     -44.484  56.097 -55.566  1.00  0.00     0.190 HD
ENDROOT
BRANCH   1   5
HETATM    5  C   UNL     1     -43.588  56.442 -53.164  1.00  0.00     0.077 A 
HETATM    6  S   UNL     1     -42.922  55.029 -53.950  1.00  0.00    -0.064 SA
HETATM    7  C   UNL     1     -41.996  54.683 -52.610  1.00  0.00     0.113 A 
HETATM    8  N   UNL     1     -41.102  53.744 -52.157  1.00  0.00    -0.226 N 
HETATM    9  C   UNL     1     -42.161  55.578 -51.632  1.00  0.00     0.027 A 
HETATM   10  N   UNL     1     -40.688  54.087 -50.879  1.00  0.00    -0.171 NA
HETATM   11  C   UNL     1     -41.353  55.218 -50.570  1.00  0.00     0.064 A 
HETATM   12  C   UNL     1     -41.159  55.880 -49.260  1.00  0.00     0.073 C 
HETATM   13  C   UNL     1     -43.061  56.609 -51.882  1.00  0.00     0.041 A 
BRANCH   8  14
HETATM   14  C   UNL     1     -40.601  52.559 -52.773  1.00  0.00     0.059 A 
HETATM   15  C   UNL     1     -39.835  51.665 -52.004  1.00  0.00     0.031 A 
HETATM   16  C   UNL     1     -39.339  50.486 -52.566  1.00  0.00     0.002 A 
HETATM   17  C   UNL     1     -39.599  50.186 -53.901  1.00  0.00     0.000 A 
HETATM   18  C   UNL     1     -40.352  51.066 -54.673  1.00  0.00     0.002 A 
HETATM   19  C   UNL     1     -40.852  52.248 -54.115  1.00  0.00     0.031 A 
ENDBRANCH   8  14
ENDBRANCH   1   5
BRANCH   2  20
HETATM   20  N   UNL     1     -45.888  57.607 -55.830  1.00  0.00    -0.273 N 
HETATM   21  H   UNL     1     -46.714  57.068 -56.087  1.00  0.00     0.189 HD
BRANCH  20  22
HETATM   22  C   UNL     1     -45.503  58.654 -56.623  1.00  0.00     0.191 C 
HETATM   23  N   UNL     1     -45.063  58.389 -57.883  1.00  0.00    -0.331 N 
HETATM   24  H   UNL     1     -44.588  59.183 -58.308  1.00  0.00     0.168 HD
HETATM   25  S   UNL     1     -45.489  60.258 -56.121  1.00  0.00    -0.039 SA
BRANCH  23  26
HETATM   26  C   UNL     1     -45.132  57.245 -58.712  1.00  0.00     0.056 A 
HETATM   27  C   UNL     1     -44.028  56.368 -58.722  1.00  0.00     0.060 A 
HETATM   28 CL   UNL     1     -42.637  56.672 -57.734  1.00  0.00    -0.082 Cl
HETATM   29  C   UNL     1     -44.025  55.220 -59.518  1.00  0.00     0.026 A 
HETATM   30  C   UNL     1     -45.119  54.939 -60.331  1.00  0.00     0.002 A 
HETATM   31  C   UNL     1     -46.200  55.815 -60.360  1.00  0.00     0.002 A 
HETATM   32  C   UNL     1     -46.205  56.967 -59.564  1.00  0.00     0.031 A 
ENDBRANCH  23  26
ENDBRANCH  20  22
ENDBRANCH   2  20
TORSDOF 5
ENDMDL
MODEL 3
REMARK VINA RESULT:      -8.8      2.589      3.035
REMARK  5 active torsions:
REMARK  status: ('A' for Active; 'I' for Inactive)
REMARK    1  A    between atoms: N_4  and  C_5 
REMARK    2  A    between atoms: C_14  and  C_15 
REMARK       I    between atoms: C_15  and  N_16 
REMARK    3  A    between atoms: N_16  and  N_17 
REMARK    4  A    between atoms: N_17  and  C_18 
REMARK    5  A    between atoms: N_19  and  C_20 
ROOT
HETATM    1  C   UNL     1     -42.698  56.878 -56.346  1.00  0.00     0.277 C 
HETATM    2  N   UNL     1     -43.768  56.254 -56.959  1.00  0.00    -0.263 N 
HETATM    3  O   UNL     1     -42.262  57.955 -56.756  1.00  0.00    -0.265 OA
HETATM    4  H   UNL     1     -44.107  55.344 -56.654  1.00  0.00     0.190 HD
ENDROOT
BRANCH   1   5
HETATM    5  C   UNL     1     -42.139  56.177 -55.197  1.00  0.00     0.077 A 
HETATM    6  S   UNL     1     -41.559  54.533 -55.331  1.00  0.00    -0.064 SA
HETATM    7  C   UNL     1     -41.185  54.501 -53.708  1.00  0.00     0.113 A 
HETATM    8  N   UNL     1     -40.682  53.648 -52.756  1.00  0.00    -0.226 N 
HETATM    9  C   UNL     1     -41.463  55.657 -53.099  1.00  0.00     0.027 A 
HETATM   10  N   UNL     1     -40.627  54.307 -51.537  1.00  0.00    -0.171 NA
HETATM   11  C   UNL     1     -41.114  55.543 -51.766  1.00  0.00     0.064 A 
HETATM   12  C   UNL     1     -41.209  56.537 -50.674  1.00  0.00     0.073 C 
HETATM   13  C   UNL     1     -42.014  56.658 -53.892  1.00  0.00     0.041 A 
BRANCH   8  14
HETATM   14  C   UNL     1     -40.263  52.288 -52.850  1.00  0.00     0.059 A 
HETATM   15  C   UNL     1     -39.854  51.621 -51.682  1.00  0.00     0.031 A 
HETATM   16  C   UNL     1     -39.450  50.284 -51.729  1.00  0.00     0.002 A 
HETATM   17  C   UNL     1     -39.448  49.599 -52.940  1.00  0.00     0.000 A 
HETATM   18  C   UNL     1     -39.846  50.251 -54.104  1.00  0.00     0.002 A 
HETATM   19  C   UNL     1     -40.252  51.589 -54.063  1.00  0.00     0.031 A 
ENDBRANCH   8  14
ENDBRANCH   1   5
BRANCH   2  20
HETATM   20  N   UNL     1     -44.387  56.838 -58.073  1.00  0.00    -0.273 N 
HETATM   21  H   UNL     1     -45.239  57.352 -57.854  1.00  0.00     0.189 HD
BRANCH  20  22
HETATM   22  C   UNL     1     -44.246  56.278 -59.314  1.00  0.00     0.191 C 
HETATM   23  N   UNL     1     -43.991  57.095 -60.372  1.00  0.00    -0.331 N 
HETATM   24  H   UNL     1     -44.131  56.632 -61.268  1.00  0.00     0.168 HD
HETATM   25  S   UNL     1     -44.421  54.636 -59.629  1.00  0.00    -0.039 SA
BRANCH  23  26
HETATM   26  C   UNL     1     -43.573  58.442 -60.476  1.00  0.00     0.056 A 
HETATM   27  C   UNL     1     -44.566  59.432 -60.624  1.00  0.00     0.060 A 
HETATM   28 CL   UNL     1     -46.246  59.013 -60.659  1.00  0.00    -0.082 Cl
HETATM   29  C   UNL     1     -44.227  60.783 -60.735  1.00  0.00     0.026 A 
HETATM   30  C   UNL     1     -42.889  61.164 -60.717  1.00  0.00     0.002 A 
HETATM   31  C   UNL     1     -41.896  60.194 -60.609  1.00  0.00     0.002 A 
HETATM   32  C   UNL     1     -42.233  58.840 -60.499  1.00  0.00     0.031 A 
ENDBRANCH  23  26
ENDBRANCH  20  22
ENDBRANCH   2  20
TORSDOF 5
ENDMDL
MODEL 4
REMARK VINA RESULT:      -8.6      1.301      1.320
REMARK  5 active torsions:
REMARK  status: ('A' for Active; 'I' for Inactive)
REMARK    1  A    between atoms: N_4  and  C_5 
REMARK    2  A    between atoms: C_14  and  C_15 
REMARK       I    between atoms: C_15  and  N_16 
REMARK    3  A    between atoms: N_16  and  N_17 
REMARK    4  A    between atoms: N_17  and  C_18 
REMARK    5  A    between atoms: N_19  and  C_20 
ROOT
HETATM    1  C   UNL     1     -42.685  57.656 -54.517  1.00  0.00     0.277 C 
HETATM    2  N   UNL     1     -42.942  57.277 -55.822  1.00  0.00    -0.263 N 
HETATM    3  O   UNL     1     -42.936  58.794 -54.119  1.00  0.00    -0.265 OA
HETATM    4  H   UNL     1     -42.699  56.353 -56.172  1.00  0.00     0.190 HD
ENDROOT
BRANCH   1   5
HETATM    5  C   UNL     1     -42.109  56.622 -53.668  1.00  0.00     0.077 A 
HETATM    6  S   UNL     1     -41.572  55.096 -54.332  1.00  0.00    -0.064 SA
HETATM    7  C   UNL     1     -41.150  54.550 -52.816  1.00  0.00     0.113 A 
HETATM    8  N   UNL     1     -40.639  53.435 -52.199  1.00  0.00    -0.226 N 
HETATM    9  C   UNL     1     -41.382  55.459 -51.865  1.00  0.00     0.027 A 
HETATM   10  N   UNL     1     -40.531  53.677 -50.837  1.00  0.00    -0.171 NA
HETATM   11  C   UNL     1     -40.996  54.927 -50.649  1.00  0.00     0.064 A 
HETATM   12  C   UNL     1     -41.034  55.529 -49.297  1.00  0.00     0.073 C 
HETATM   13  C   UNL     1     -41.934  56.666 -52.283  1.00  0.00     0.041 A 
BRANCH   8  14
HETATM   14  C   UNL     1     -40.255  52.168 -52.729  1.00  0.00     0.059 A 
HETATM   15  C   UNL     1     -39.777  51.180 -51.851  1.00  0.00     0.031 A 
HETATM   16  C   UNL     1     -39.404  49.921 -52.330  1.00  0.00     0.002 A 
HETATM   17  C   UNL     1     -39.502  49.635 -53.688  1.00  0.00     0.000 A 
HETATM   18  C   UNL     1     -39.969  50.607 -54.568  1.00  0.00     0.002 A 
HETATM   19  C   UNL     1     -40.344  51.869 -54.094  1.00  0.00     0.031 A 
ENDBRANCH   8  14
ENDBRANCH   1   5
BRANCH   2  20
HETATM   20  N   UNL     1     -43.498  58.190 -56.729  1.00  0.00    -0.273 N 
HETATM   21  H   UNL     1     -44.513  58.138 -56.802  1.00  0.00     0.189 HD
BRANCH  20  22
HETATM   22  C   UNL     1     -42.773  58.621 -57.807  1.00  0.00     0.191 C 
HETATM   23  N   UNL     1     -42.806  57.884 -58.951  1.00  0.00    -0.331 N 
HETATM   24  H   UNL     1     -42.072  58.145 -59.607  1.00  0.00     0.168 HD
HETATM   25  S   UNL     1     -41.793  59.986 -57.794  1.00  0.00    -0.039 SA
BRANCH  23  26
HETATM   26  C   UNL     1     -43.646  56.842 -59.407  1.00  0.00     0.056 A 
HETATM   27  C   UNL     1     -44.829  57.197 -60.088  1.00  0.00     0.060 A 
HETATM   28 CL   UNL     1     -45.231  58.858 -60.373  1.00  0.00    -0.082 Cl
HETATM   29  C   UNL     1     -45.708  56.222 -60.564  1.00  0.00     0.026 A 
HETATM   30  C   UNL     1     -45.427  54.875 -60.353  1.00  0.00     0.002 A 
HETATM   31  C   UNL     1     -44.282  54.510 -59.650  1.00  0.00     0.002 A 
HETATM   32  C   UNL     1     -43.401  55.487 -59.170  1.00  0.00     0.031 A 
ENDBRANCH  23  26
ENDBRANCH  20  22
ENDBRANCH   2  20
TORSDOF 5
ENDMDL
MODEL 5
REMARK VINA RESULT:      -8.5      4.904      6.941
REMARK  5 active torsions:
REMARK  status: ('A' for Active; 'I' for Inactive)
REMARK    1  A    between atoms: N_4  and  C_5 
REMARK    2  A    between atoms: C_14  and  C_15 
REMARK       I    between atoms: C_15  and  N_16 
REMARK    3  A    between atoms: N_16  and  N_17 
REMARK    4  A    between atoms: N_17  and  C_18 
REMARK    5  A    between atoms: N_19  and  C_20 
ROOT
HETATM    1  C   UNL     1     -42.146  58.017 -51.671  1.00  0.00     0.277 C 
HETATM    2  N   UNL     1     -42.889  58.626 -50.677  1.00  0.00    -0.263 N 
HETATM    3  O   UNL     1     -41.962  58.564 -52.760  1.00  0.00    -0.265 OA
HETATM    4  H   UNL     1     -43.083  58.165 -49.790  1.00  0.00     0.190 HD
ENDROOT
BRANCH   1   5
HETATM    5  C   UNL     1     -41.607  56.706 -51.335  1.00  0.00     0.077 A 
HETATM    6  S   UNL     1     -41.312  55.501 -52.567  1.00  0.00    -0.064 SA
HETATM    7  C   UNL     1     -40.805  54.407 -51.419  1.00  0.00     0.113 A 
HETATM    8  N   UNL     1     -40.362  53.111 -51.317  1.00  0.00    -0.226 N 
HETATM    9  C   UNL     1     -40.838  54.914 -50.183  1.00  0.00     0.027 A 
HETATM   10  N   UNL     1     -40.094  52.824 -49.987  1.00  0.00    -0.171 NA
HETATM   11  C   UNL     1     -40.395  53.945 -49.302  1.00  0.00     0.064 A 
HETATM   12  C   UNL     1     -40.231  54.005 -47.832  1.00  0.00     0.073 C 
HETATM   13  C   UNL     1     -41.291  56.224 -50.063  1.00  0.00     0.041 A 
BRANCH   8  14
HETATM   14  C   UNL     1     -40.177  52.107 -52.313  1.00  0.00     0.059 A 
HETATM   15  C   UNL     1     -39.720  50.837 -51.921  1.00  0.00     0.031 A 
HETATM   16  C   UNL     1     -39.539  49.822 -52.865  1.00  0.00     0.002 A 
HETATM   17  C   UNL     1     -39.809  50.063 -54.208  1.00  0.00     0.000 A 
HETATM   18  C   UNL     1     -40.258  51.319 -54.609  1.00  0.00     0.002 A 
HETATM   19  C   UNL     1     -40.441  52.339 -53.668  1.00  0.00     0.031 A 
ENDBRANCH   8  14
ENDBRANCH   1   5
BRANCH   2  20
HETATM   20  N   UNL     1     -43.457  59.891 -50.888  1.00  0.00    -0.273 N 
HETATM   21  H   UNL     1     -43.012  60.640 -50.360  1.00  0.00     0.189 HD
BRANCH  20  22
HETATM   22  C   UNL     1     -44.777  60.008 -51.228  1.00  0.00     0.191 C 
HETATM   23  N   UNL     1     -45.650  60.476 -50.295  1.00  0.00    -0.331 N 
HETATM   24  H   UNL     1     -46.622  60.313 -50.551  1.00  0.00     0.168 HD
HETATM   25  S   UNL     1     -45.406  59.558 -52.720  1.00  0.00    -0.039 SA
BRANCH  23  26
HETATM   26  C   UNL     1     -45.481  61.138 -49.057  1.00  0.00     0.056 A 
HETATM   27  C   UNL     1     -45.209  62.521 -49.079  1.00  0.00     0.060 A 
HETATM   28 CL   UNL     1     -45.105  63.387 -50.575  1.00  0.00    -0.082 Cl
HETATM   29  C   UNL     1     -45.029  63.239 -47.895  1.00  0.00     0.026 A 
HETATM   30  C   UNL     1     -45.099  62.583 -46.669  1.00  0.00     0.002 A 
HETATM   31  C   UNL     1     -45.329  61.210 -46.634  1.00  0.00     0.002 A 
HETATM   32  C   UNL     1     -45.509  60.488 -47.820  1.00  0.00     0.031 A 
ENDBRANCH  23  26
ENDBRANCH  20  22
ENDBRANCH   2  20
TORSDOF 5
ENDMDL
MODEL 6
REMARK VINA RESULT:      -8.4      3.806      8.541
REMARK  5 active torsions:
REMARK  status: ('A' for Active; 'I' for Inactive)
REMARK    1  A    between atoms: N_4  and  C_5 
REMARK    2  A    between atoms: C_14  and  C_15 
REMARK       I    between atoms: C_15  and  N_16 
REMARK    3  A    between atoms: N_16  and  N_17 
REMARK    4  A    between atoms: N_17  and  C_18 
REMARK    5  A    between atoms: N_19  and  C_20 
ROOT
HETATM    1  C   UNL     1     -42.488  55.074 -53.145  1.00  0.00     0.277 C 
HETATM    2  N   UNL     1     -41.818  55.074 -51.936  1.00  0.00    -0.263 N 
HETATM    3  O   UNL     1     -43.060  54.067 -53.562  1.00  0.00    -0.265 OA
HETATM    4  H   UNL     1     -41.306  55.888 -51.604  1.00  0.00     0.190 HD
ENDROOT
BRANCH   1   5
HETATM    5  C   UNL     1     -42.465  56.338 -53.872  1.00  0.00     0.077 A 
HETATM    6  S   UNL     1     -42.383  56.380 -55.618  1.00  0.00    -0.064 SA
HETATM    7  C   UNL     1     -42.347  58.045 -55.606  1.00  0.00     0.113 A 
HETATM    8  N   UNL     1     -42.259  59.106 -56.473  1.00  0.00    -0.226 N 
HETATM    9  C   UNL     1     -42.407  58.546 -54.369  1.00  0.00     0.027 A 
HETATM   10  N   UNL     1     -42.292  60.289 -55.750  1.00  0.00    -0.171 NA
HETATM   11  C   UNL     1     -42.380  59.926 -54.456  1.00  0.00     0.064 A 
HETATM   12  C   UNL     1     -42.435  60.943 -53.382  1.00  0.00     0.073 C 
HETATM   13  C   UNL     1     -42.472  57.624 -53.330  1.00  0.00     0.041 A 
BRANCH   8  14
HETATM   14  C   UNL     1     -42.133  59.143 -57.893  1.00  0.00     0.059 A 
HETATM   15  C   UNL     1     -42.099  57.931 -58.604  1.00  0.00     0.031 A 
HETATM   16  C   UNL     1     -41.991  57.924 -59.998  1.00  0.00     0.002 A 
HETATM   17  C   UNL     1     -41.914  59.126 -60.696  1.00  0.00     0.000 A 
HETATM   18  C   UNL     1     -41.942  60.332 -60.002  1.00  0.00     0.002 A 
HETATM   19  C   UNL     1     -42.051  60.344 -58.607  1.00  0.00     0.031 A 
ENDBRANCH   8  14
ENDBRANCH   1   5
BRANCH   2  20
HETATM   20  N   UNL     1     -41.774  53.914 -51.150  1.00  0.00    -0.273 N 
HETATM   21  H   UNL     1     -42.677  53.635 -50.769  1.00  0.00     0.189 HD
BRANCH  20  22
HETATM   22  C   UNL     1     -40.633  53.581 -50.471  1.00  0.00     0.191 C 
HETATM   23  N   UNL     1     -39.896  52.526 -50.914  1.00  0.00    -0.331 N 
HETATM   24  H   UNL     1     -39.210  52.213 -50.231  1.00  0.00     0.168 HD
HETATM   25  S   UNL     1     -40.104  54.366 -49.082  1.00  0.00    -0.039 SA
BRANCH  23  26
HETATM   26  C   UNL     1     -39.892  51.787 -52.120  1.00  0.00     0.056 A 
HETATM   27  C   UNL     1     -39.671  50.397 -52.042  1.00  0.00     0.060 A 
HETATM   28 CL   UNL     1     -39.433  49.615 -50.514  1.00  0.00    -0.082 Cl
HETATM   29  C   UNL     1     -39.651  49.604 -53.191  1.00  0.00     0.026 A 
HETATM   30  C   UNL     1     -39.832  50.190 -54.440  1.00  0.00     0.002 A 
HETATM   31  C   UNL     1     -40.014  51.568 -54.536  1.00  0.00     0.002 A 
HETATM   32  C   UNL     1     -40.033  52.365 -53.385  1.00  0.00     0.031 A 
ENDBRANCH  23  26
ENDBRANCH  20  22
ENDBRANCH   2  20
TORSDOF 5
ENDMDL
MODEL 7
REMARK VINA RESULT:      -8.4      2.016      2.869
REMARK  5 active torsions:
REMARK  status: ('A' for Active; 'I' for Inactive)
REMARK    1  A    between atoms: N_4  and  C_5 
REMARK    2  A    between atoms: C_14  and  C_15 
REMARK       I    between atoms: C_15  and  N_16 
REMARK    3  A    between atoms: N_16  and  N_17 
REMARK    4  A    between atoms: N_17  and  C_18 
REMARK    5  A    between atoms: N_19  and  C_20 
ROOT
HETATM    1  C   UNL     1     -45.377  58.537 -55.350  1.00  0.00     0.277 C 
HETATM    2  N   UNL     1     -46.056  57.575 -56.075  1.00  0.00    -0.263 N 
HETATM    3  O   UNL     1     -45.691  59.727 -55.412  1.00  0.00    -0.265 OA
HETATM    4  H   UNL     1     -45.777  56.596 -56.064  1.00  0.00     0.190 HD
ENDROOT
BRANCH   1   5
HETATM    5  C   UNL     1     -44.285  58.041 -54.522  1.00  0.00     0.077 A 
HETATM    6  S   UNL     1     -43.579  56.466 -54.798  1.00  0.00    -0.064 SA
HETATM    7  C   UNL     1     -42.551  56.667 -53.504  1.00  0.00     0.113 A 
HETATM    8  N   UNL     1     -41.570  55.993 -52.819  1.00  0.00    -0.226 N 
HETATM    9  C   UNL     1     -42.712  57.850 -52.904  1.00  0.00     0.027 A 
HETATM   10  N   UNL     1     -41.101  56.793 -51.788  1.00  0.00    -0.171 NA
HETATM   11  C   UNL     1     -41.818  57.933 -51.854  1.00  0.00     0.064 A 
HETATM   12  C   UNL     1     -41.586  59.033 -50.891  1.00  0.00     0.073 C 
HETATM   13  C   UNL     1     -43.692  58.684 -53.434  1.00  0.00     0.041 A 
BRANCH   8  14
HETATM   14  C   UNL     1     -41.033  54.685 -53.005  1.00  0.00     0.059 A 
HETATM   15  C   UNL     1     -40.772  54.237 -54.311  1.00  0.00     0.031 A 
HETATM   16  C   UNL     1     -40.232  52.967 -54.536  1.00  0.00     0.002 A 
HETATM   17  C   UNL     1     -39.949  52.131 -53.460  1.00  0.00     0.000 A 
HETATM   18  C   UNL     1     -40.208  52.562 -52.162  1.00  0.00     0.002 A 
HETATM   19  C   UNL     1     -40.748  53.832 -51.932  1.00  0.00     0.031 A 
ENDBRANCH   8  14
ENDBRANCH   1   5
BRANCH   2  20
HETATM   20  N   UNL     1     -47.126  57.936 -56.906  1.00  0.00    -0.273 N 
HETATM   21  H   UNL     1     -47.886  57.258 -56.924  1.00  0.00     0.189 HD
BRANCH  20  22
HETATM   22  C   UNL     1     -46.913  58.728 -58.002  1.00  0.00     0.191 C 
HETATM   23  N   UNL     1     -45.985  58.337 -58.917  1.00  0.00    -0.331 N 
HETATM   24  H   UNL     1     -45.732  59.083 -59.562  1.00  0.00     0.168 HD
HETATM   25  S   UNL     1     -47.693  60.193 -58.268  1.00  0.00    -0.039 SA
BRANCH  23  26
HETATM   26  C   UNL     1     -45.311  57.116 -59.151  1.00  0.00     0.056 A 
HETATM   27  C   UNL     1     -45.952  56.152 -59.956  1.00  0.00     0.060 A 
HETATM   28 CL   UNL     1     -47.507  56.460 -60.653  1.00  0.00    -0.082 Cl
HETATM   29  C   UNL     1     -45.347  54.922 -60.228  1.00  0.00     0.026 A 
HETATM   30  C   UNL     1     -44.099  54.629 -59.685  1.00  0.00     0.002 A 
HETATM   31  C   UNL     1     -43.471  55.557 -58.858  1.00  0.00     0.002 A 
HETATM   32  C   UNL     1     -44.077  56.789 -58.583  1.00  0.00     0.031 A 
ENDBRANCH  23  26
ENDBRANCH  20  22
ENDBRANCH   2  20
TORSDOF 5
ENDMDL
MODEL 8
REMARK VINA RESULT:      -8.3      5.115      7.625
REMARK  5 active torsions:
REMARK  status: ('A' for Active; 'I' for Inactive)
REMARK    1  A    between atoms: N_4  and  C_5 
REMARK    2  A    between atoms: C_14  and  C_15 
REMARK       I    between atoms: C_15  and  N_16 
REMARK    3  A    between atoms: N_16  and  N_17 
REMARK    4  A    between atoms: N_17  and  C_18 
REMARK    5  A    between atoms: N_19  and  C_20 
ROOT
HETATM    1  C   UNL     1     -44.423  57.751 -51.398  1.00  0.00     0.277 C 
HETATM    2  N   UNL     1     -43.682  58.875 -51.084  1.00  0.00    -0.263 N 
HETATM    3  O   UNL     1     -45.548  57.574 -50.930  1.00  0.00    -0.265 OA
HETATM    4  H   UNL     1     -42.735  59.009 -51.432  1.00  0.00     0.190 HD
ENDROOT
BRANCH   1   5
HETATM    5  C   UNL     1     -43.782  56.814 -52.311  1.00  0.00     0.077 A 
HETATM    6  S   UNL     1     -42.877  55.441 -51.716  1.00  0.00    -0.064 SA
HETATM    7  C   UNL     1     -42.485  54.988 -53.270  1.00  0.00     0.113 A 
HETATM    8  N   UNL     1     -41.766  54.030 -53.941  1.00  0.00    -0.226 N 
HETATM    9  C   UNL     1     -43.010  55.805 -54.187  1.00  0.00     0.027 A 
HETATM   10  N   UNL     1     -41.875  54.251 -55.306  1.00  0.00    -0.171 NA
HETATM   11  C   UNL     1     -42.643  55.350 -55.439  1.00  0.00     0.064 A 
HETATM   12  C   UNL     1     -42.973  55.889 -56.777  1.00  0.00     0.073 C 
HETATM   13  C   UNL     1     -43.761  56.873 -53.706  1.00  0.00     0.041 A 
BRANCH   8  14
HETATM   14  C   UNL     1     -40.978  52.944 -53.457  1.00  0.00     0.059 A 
HETATM   15  C   UNL     1     -40.709  51.864 -54.315  1.00  0.00     0.031 A 
HETATM   16  C   UNL     1     -39.930  50.787 -53.884  1.00  0.00     0.002 A 
HETATM   17  C   UNL     1     -39.412  50.775 -52.592  1.00  0.00     0.000 A 
HETATM   18  C   UNL     1     -39.676  51.837 -51.731  1.00  0.00     0.002 A 
HETATM   19  C   UNL     1     -40.455  52.918 -52.159  1.00  0.00     0.031 A 
ENDBRANCH   8  14
ENDBRANCH   1   5
BRANCH   2  20
HETATM   20  N   UNL     1     -44.199  59.846 -50.216  1.00  0.00    -0.273 N 
HETATM   21  H   UNL     1     -44.986  59.525 -49.653  1.00  0.00     0.189 HD
BRANCH  20  22
HETATM   22  C   UNL     1     -44.101  61.175 -50.528  1.00  0.00     0.191 C 
HETATM   23  N   UNL     1     -44.769  62.076 -49.756  1.00  0.00    -0.331 N 
HETATM   24  H   UNL     1     -44.828  62.995 -50.189  1.00  0.00     0.168 HD
HETATM   25  S   UNL     1     -43.243  61.770 -51.845  1.00  0.00    -0.039 SA
BRANCH  23  26
HETATM   26  C   UNL     1     -45.388  61.993 -48.488  1.00  0.00     0.056 A 
HETATM   27  C   UNL     1     -46.676  62.549 -48.344  1.00  0.00     0.060 A 
HETATM   28 CL   UNL     1     -47.481  63.294 -49.684  1.00  0.00    -0.082 Cl
HETATM   29  C   UNL     1     -47.348  62.506 -47.120  1.00  0.00     0.026 A 
HETATM   30  C   UNL     1     -46.736  61.921 -46.015  1.00  0.00     0.002 A 
HETATM   31  C   UNL     1     -45.450  61.401 -46.132  1.00  0.00     0.002 A 
HETATM   32  C   UNL     1     -44.774  61.445 -47.358  1.00  0.00     0.031 A 
ENDBRANCH  23  26
ENDBRANCH  20  22
ENDBRANCH   2  20
TORSDOF 5
ENDMDL
MODEL 9
REMARK VINA RESULT:      -8.2      2.264      2.811
REMARK  5 active torsions:
REMARK  status: ('A' for Active; 'I' for Inactive)
REMARK    1  A    between atoms: N_4  and  C_5 
REMARK    2  A    between atoms: C_14  and  C_15 
REMARK       I    between atoms: C_15  and  N_16 
REMARK    3  A    between atoms: N_16  and  N_17 
REMARK    4  A    between atoms: N_17  and  C_18 
REMARK    5  A    between atoms: N_19  and  C_20 
ROOT
HETATM    1  C   UNL     1     -42.762  57.141 -55.983  1.00  0.00     0.277 C 
HETATM    2  N   UNL     1     -43.772  56.519 -56.693  1.00  0.00    -0.263 N 
HETATM    3  O   UNL     1     -42.391  58.281 -56.261  1.00  0.00    -0.265 OA
HETATM    4  H   UNL     1     -44.057  55.561 -56.499  1.00  0.00     0.190 HD
ENDROOT
BRANCH   1   5
HETATM    5  C   UNL     1     -42.186  56.355 -54.898  1.00  0.00     0.077 A 
HETATM    6  S   UNL     1     -41.614  54.724 -55.162  1.00  0.00    -0.064 SA
HETATM    7  C   UNL     1     -41.213  54.573 -53.553  1.00  0.00     0.113 A 
HETATM    8  N   UNL     1     -40.697  53.651 -52.676  1.00  0.00    -0.226 N 
HETATM    9  C   UNL     1     -41.476  55.681 -52.856  1.00  0.00     0.027 A 
HETATM   10  N   UNL     1     -40.618  54.219 -51.412  1.00  0.00    -0.171 NA
HETATM   11  C   UNL     1     -41.105  55.469 -51.542  1.00  0.00     0.064 A 
HETATM   12  C   UNL     1     -41.178  56.380 -50.378  1.00  0.00     0.073 C 
HETATM   13  C   UNL     1     -42.038  56.739 -53.564  1.00  0.00     0.041 A 
BRANCH   8  14
HETATM   14  C   UNL     1     -40.284  52.301 -52.876  1.00  0.00     0.059 A 
HETATM   15  C   UNL     1     -39.828  51.559 -51.772  1.00  0.00     0.031 A 
HETATM   16  C   UNL     1     -39.428  50.228 -51.924  1.00  0.00     0.002 A 
HETATM   17  C   UNL     1     -39.477  49.624 -53.177  1.00  0.00     0.000 A 
HETATM   18  C   UNL     1     -39.922  50.351 -54.278  1.00  0.00     0.002 A 
HETATM   19  C   UNL     1     -40.324  51.683 -54.132  1.00  0.00     0.031 A 
ENDBRANCH   8  14
ENDBRANCH   1   5
BRANCH   2  20
HETATM   20  N   UNL     1     -44.401  57.180 -57.758  1.00  0.00    -0.273 N 
HETATM   21  H   UNL     1     -45.366  57.448 -57.570  1.00  0.00     0.189 HD
BRANCH  20  22
HETATM   22  C   UNL     1     -44.017  56.932 -59.048  1.00  0.00     0.191 C 
HETATM   23  N   UNL     1     -44.709  57.526 -60.058  1.00  0.00    -0.331 N 
HETATM   24  H   UNL     1     -44.510  57.111 -60.967  1.00  0.00     0.168 HD
HETATM   25  S   UNL     1     -42.768  55.891 -59.473  1.00  0.00    -0.039 SA
BRANCH  23  26
HETATM   26  C   UNL     1     -45.638  58.591 -60.100  1.00  0.00     0.056 A 
HETATM   27  C   UNL     1     -46.952  58.307 -60.525  1.00  0.00     0.060 A 
HETATM   28 CL   UNL     1     -47.419  56.698 -60.964  1.00  0.00    -0.082 Cl
HETATM   29  C   UNL     1     -47.922  59.310 -60.593  1.00  0.00     0.026 A 
HETATM   30  C   UNL     1     -47.589  60.618 -60.254  1.00  0.00     0.002 A 
HETATM   31  C   UNL     1     -46.286  60.921 -59.869  1.00  0.00     0.002 A 
HETATM   32  C   UNL     1     -45.312  59.917 -59.801  1.00  0.00     0.031 A 
ENDBRANCH  23  26
ENDBRANCH  20  22
ENDBRANCH   2  20
TORSDOF 5
ENDMDL
MODEL 10
REMARK VINA RESULT:      -8.0      3.346      9.180
REMARK  5 active torsions:
REMARK  status: ('A' for Active; 'I' for Inactive)
REMARK    1  A    between atoms: N_4  and  C_5 
REMARK    2  A    between atoms: C_14  and  C_15 
REMARK       I    between atoms: C_15  and  N_16 
REMARK    3  A    between atoms: N_16  and  N_17 
REMARK    4  A    between atoms: N_17  and  C_18 
REMARK    5  A    between atoms: N_19  and  C_20 
ROOT
HETATM    1  C   UNL     1     -41.880  56.636 -54.848  1.00  0.00     0.277 C 
HETATM    2  N   UNL     1     -42.366  57.643 -54.035  1.00  0.00    -0.263 N 
HETATM    3  O   UNL     1     -41.122  55.769 -54.412  1.00  0.00    -0.265 OA
HETATM    4  H   UNL     1     -42.958  58.388 -54.396  1.00  0.00     0.190 HD
ENDROOT
BRANCH   1   5
HETATM    5  C   UNL     1     -42.329  56.680 -56.234  1.00  0.00     0.077 A 
HETATM    6  S   UNL     1     -42.151  58.126 -57.201  1.00  0.00    -0.064 SA
HETATM    7  C   UNL     1     -42.898  57.390 -58.494  1.00  0.00     0.113 A 
HETATM    8  N   UNL     1     -43.297  57.662 -59.779  1.00  0.00    -0.226 N 
HETATM    9  C   UNL     1     -43.250  56.129 -58.228  1.00  0.00     0.027 A 
HETATM   10  N   UNL     1     -43.886  56.531 -60.324  1.00  0.00    -0.171 NA
HETATM   11  C   UNL     1     -43.850  55.596 -59.354  1.00  0.00     0.064 A 
HETATM   12  C   UNL     1     -44.402  54.242 -59.582  1.00  0.00     0.073 C 
HETATM   13  C   UNL     1     -42.956  55.660 -56.951  1.00  0.00     0.041 A 
BRANCH   8  14
HETATM   14  C   UNL     1     -43.206  58.859 -60.551  1.00  0.00     0.059 A 
HETATM   15  C   UNL     1     -44.391  59.476 -60.988  1.00  0.00     0.031 A 
HETATM   16  C   UNL     1     -44.345  60.658 -61.734  1.00  0.00     0.002 A 
HETATM   17  C   UNL     1     -43.119  61.234 -62.053  1.00  0.00     0.000 A 
HETATM   18  C   UNL     1     -41.939  60.628 -61.629  1.00  0.00     0.002 A 
HETATM   19  C   UNL     1     -41.979  59.446 -60.881  1.00  0.00     0.031 A 
ENDBRANCH   8  14
ENDBRANCH   1   5
BRANCH   2  20
HETATM   20  N   UNL     1     -42.001  57.700 -52.682  1.00  0.00    -0.273 N 
HETATM   21  H   UNL     1     -41.069  57.339 -52.487  1.00  0.00     0.189 HD
BRANCH  20  22
HETATM   22  C   UNL     1     -42.958  57.640 -51.705  1.00  0.00     0.191 C 
HETATM   23  N   UNL     1     -42.974  56.562 -50.875  1.00  0.00    -0.331 N 
HETATM   24  H   UNL     1     -43.839  56.488 -50.344  1.00  0.00     0.168 HD
HETATM   25  S   UNL     1     -44.159  58.797 -51.494  1.00  0.00    -0.039 SA
BRANCH  23  26
HETATM   26  C   UNL     1     -42.039  55.535 -50.604  1.00  0.00     0.056 A 
HETATM   27  C   UNL     1     -42.153  54.331 -51.328  1.00  0.00     0.060 A 
HETATM   28 CL   UNL     1     -43.386  54.121 -52.526  1.00  0.00    -0.082 Cl
HETATM   29  C   UNL     1     -41.267  53.273 -51.111  1.00  0.00     0.026 A 
HETATM   30  C   UNL     1     -40.263  53.395 -50.154  1.00  0.00     0.002 A 
HETATM   31  C   UNL     1     -40.163  54.565 -49.405  1.00  0.00     0.002 A 
HETATM   32  C   UNL     1     -41.051  55.626 -49.620  1.00  0.00     0.031 A 
ENDBRANCH  23  26
ENDBRANCH  20  22
ENDBRANCH   2  20
TORSDOF 5
ENDMDL
