MODEL 1
REMARK VINA RESULT:      -8.0      0.000      0.000
REMARK  6 active torsions:
REMARK  status: ('A' for Active; 'I' for Inactive)
REMARK    1  A    between atoms: C_2  and  O_3 
REMARK    2  A    between atoms: C_2  and  C_4 
REMARK    3  A    between atoms: C_2  and  C_11 
REMARK    4  A    between atoms: C_11  and  N_12 
REMARK       I    between atoms: N_12  and  C_13 
REMARK    5  A    between atoms: C_13  and  C_14 
REMARK    6  A    between atoms: C_15  and  C_16 
ROOT
HETATM    1  N   UNL     1     -43.218  55.176 -54.528  1.00  0.00    -0.354 N 
HETATM    2  C   UNL     1     -43.265  56.167 -55.487  1.00  0.00     0.255 C 
HETATM    3  O   UNL     1     -42.695  56.063 -56.567  1.00  0.00    -0.268 OA
HETATM    4  H   UNL     1     -43.628  55.348 -53.623  1.00  0.00     0.162 HD
ENDROOT
BRANCH   2   5
HETATM    5  C   UNL     1     -44.022  57.352 -55.101  1.00  0.00     0.080 A 
HETATM    6  C   UNL     1     -43.695  58.360 -54.131  1.00  0.00     0.104 A 
HETATM    7  N   UNL     1     -44.634  59.324 -54.107  1.00  0.00    -0.174 NA
HETATM    8  N   UNL     1     -45.535  58.947 -55.015  1.00  0.00    -0.288 N 
HETATM    9  H   UNL     1     -46.342  59.546 -55.164  1.00  0.00     0.188 HD
HETATM   10  C   UNL     1     -45.226  57.779 -55.638  1.00  0.00     0.128 A 
BRANCH   6  11
HETATM   11  C   UNL     1     -42.549  58.455 -53.220  1.00  0.00    -0.004 A 
HETATM   12  C   UNL     1     -41.298  58.866 -53.713  1.00  0.00     0.017 A 
HETATM   13  C   UNL     1     -40.198  58.984 -52.861  1.00  0.00     0.043 A 
HETATM   14  C   UNL     1     -40.347  58.695 -51.510  1.00  0.00     0.116 A 
HETATM   15  F   UNL     1     -39.294  58.807 -50.691  1.00  0.00    -0.206 F 
HETATM   16  C   UNL     1     -41.576  58.300 -50.997  1.00  0.00     0.043 A 
HETATM   17  C   UNL     1     -42.679  58.187 -51.849  1.00  0.00     0.017 A 
ENDBRANCH   6  11
ENDBRANCH   2   5
BRANCH   1  18
HETATM   18  C   UNL     1     -42.499  53.929 -54.734  1.00  0.00     0.165 C 
BRANCH  18  19
HETATM   19  C   UNL     1     -41.009  53.954 -54.282  1.00  0.00     0.097 C 
HETATM   20  C   UNL     1     -40.796  55.121 -53.302  1.00  0.00     0.053 C 
BRANCH  19  21
HETATM   21  O   UNL     1     -40.221  54.297 -55.439  1.00  0.00    -0.384 OA
HETATM   22  H   UNL     1     -40.248  55.266 -55.534  1.00  0.00     0.211 HD
ENDBRANCH  19  21
BRANCH  19  23
HETATM   23  C   UNL     1     -40.518  52.596 -53.771  1.00  0.00    -0.023 A 
HETATM   24  C   UNL     1     -40.008  52.403 -52.475  1.00  0.00     0.013 A 
HETATM   25  C   UNL     1     -39.559  51.145 -52.060  1.00  0.00     0.043 A 
HETATM   26  C   UNL     1     -39.617  50.068 -52.932  1.00  0.00     0.116 A 
HETATM   27  F   UNL     1     -39.183  48.867 -52.530  1.00  0.00    -0.206 F 
HETATM   28  C   UNL     1     -40.116  50.223 -54.216  1.00  0.00     0.043 A 
HETATM   29  C   UNL     1     -40.560  51.479 -54.633  1.00  0.00     0.013 A 
ENDBRANCH  19  23
ENDBRANCH  18  19
ENDBRANCH   1  18
TORSDOF 6
ENDMDL
MODEL 2
REMARK VINA RESULT:      -8.0      3.418      7.278
REMARK  6 active torsions:
REMARK  status: ('A' for Active; 'I' for Inactive)
REMARK    1  A    between atoms: C_2  and  O_3 
REMARK    2  A    between atoms: C_2  and  C_4 
REMARK    3  A    between atoms: C_2  and  C_11 
REMARK    4  A    between atoms: C_11  and  N_12 
REMARK       I    between atoms: N_12  and  C_13 
REMARK    5  A    between atoms: C_13  and  C_14 
REMARK    6  A    between atoms: C_15  and  C_16 
ROOT
HETATM    1  N   UNL     1     -41.829  55.865 -53.405  1.00  0.00    -0.354 N 
HETATM    2  C   UNL     1     -42.304  55.098 -52.362  1.00  0.00     0.255 C 
HETATM    3  O   UNL     1     -43.468  54.717 -52.304  1.00  0.00    -0.268 OA
HETATM    4  H   UNL     1     -40.889  56.229 -53.360  1.00  0.00     0.162 HD
ENDROOT
BRANCH   2   5
HETATM    5  C   UNL     1     -41.321  54.802 -51.327  1.00  0.00     0.080 A 
HETATM    6  C   UNL     1     -40.371  53.727 -51.261  1.00  0.00     0.104 A 
HETATM    7  N   UNL     1     -39.602  53.835 -50.161  1.00  0.00    -0.174 NA
HETATM    8  N   UNL     1     -40.045  54.928 -49.539  1.00  0.00    -0.288 N 
HETATM    9  H   UNL     1     -39.591  55.200 -48.672  1.00  0.00     0.188 HD
HETATM   10  C   UNL     1     -41.069  55.545 -50.184  1.00  0.00     0.128 A 
BRANCH   6  11
HETATM   11  C   UNL     1     -40.159  52.598 -52.173  1.00  0.00    -0.004 A 
HETATM   12  C   UNL     1     -39.713  51.365 -51.665  1.00  0.00     0.017 A 
HETATM   13  C   UNL     1     -39.525  50.270 -52.512  1.00  0.00     0.043 A 
HETATM   14  C   UNL     1     -39.786  50.404 -53.870  1.00  0.00     0.116 A 
HETATM   15  F   UNL     1     -39.605  49.356 -54.683  1.00  0.00    -0.206 F 
HETATM   16  C   UNL     1     -40.239  51.608 -54.393  1.00  0.00     0.043 A 
HETATM   17  C   UNL     1     -40.433  52.703 -53.545  1.00  0.00     0.017 A 
ENDBRANCH   6  11
ENDBRANCH   2   5
BRANCH   1  18
HETATM   18  C   UNL     1     -42.671  56.267 -54.520  1.00  0.00     0.165 C 
BRANCH  18  19
HETATM   19  C   UNL     1     -42.453  55.453 -55.830  1.00  0.00     0.097 C 
HETATM   20  C   UNL     1     -43.220  54.122 -55.732  1.00  0.00     0.053 C 
BRANCH  19  21
HETATM   21  O   UNL     1     -41.063  55.074 -55.867  1.00  0.00    -0.384 OA
HETATM   22  H   UNL     1     -40.667  55.492 -56.652  1.00  0.00     0.211 HD
ENDBRANCH  19  21
BRANCH  19  23
HETATM   23  C   UNL     1     -42.748  56.266 -57.094  1.00  0.00    -0.023 A 
HETATM   24  C   UNL     1     -42.558  57.657 -57.174  1.00  0.00     0.013 A 
HETATM   25  C   UNL     1     -42.855  58.357 -58.347  1.00  0.00     0.043 A 
HETATM   26  C   UNL     1     -43.343  57.675 -59.453  1.00  0.00     0.116 A 
HETATM   27  F   UNL     1     -43.630  58.352 -60.573  1.00  0.00    -0.206 F 
HETATM   28  C   UNL     1     -43.541  56.304 -59.409  1.00  0.00     0.043 A 
HETATM   29  C   UNL     1     -43.249  55.605 -58.236  1.00  0.00     0.013 A 
ENDBRANCH  19  23
ENDBRANCH  18  19
ENDBRANCH   1  18
TORSDOF 6
ENDMDL
MODEL 3
REMARK VINA RESULT:      -8.0      2.951      4.114
REMARK  6 active torsions:
REMARK  status: ('A' for Active; 'I' for Inactive)
REMARK    1  A    between atoms: C_2  and  O_3 
REMARK    2  A    between atoms: C_2  and  C_4 
REMARK    3  A    between atoms: C_2  and  C_11 
REMARK    4  A    between atoms: C_11  and  N_12 
REMARK       I    between atoms: N_12  and  C_13 
REMARK    5  A    between atoms: C_13  and  C_14 
REMARK    6  A    between atoms: C_15  and  C_16 
ROOT
HETATM    1  N   UNL     1     -42.610  55.398 -50.725  1.00  0.00    -0.354 N 
HETATM    2  C   UNL     1     -43.861  55.975 -50.807  1.00  0.00     0.255 C 
HETATM    3  O   UNL     1     -44.797  55.613 -50.104  1.00  0.00    -0.268 OA
HETATM    4  H   UNL     1     -41.899  55.669 -51.387  1.00  0.00     0.162 HD
ENDROOT
BRANCH   2   5
HETATM    5  C   UNL     1     -43.982  57.026 -51.810  1.00  0.00     0.080 A 
HETATM    6  C   UNL     1     -43.448  57.072 -53.143  1.00  0.00     0.104 A 
HETATM    7  N   UNL     1     -43.829  58.200 -53.772  1.00  0.00    -0.174 NA
HETATM    8  N   UNL     1     -44.568  58.859 -52.878  1.00  0.00    -0.288 N 
HETATM    9  H   UNL     1     -44.965  59.751 -53.153  1.00  0.00     0.188 HD
HETATM   10  C   UNL     1     -44.692  58.211 -51.690  1.00  0.00     0.128 A 
BRANCH   6  11
HETATM   11  C   UNL     1     -42.590  56.114 -53.849  1.00  0.00    -0.004 A 
HETATM   12  C   UNL     1     -41.214  56.375 -53.978  1.00  0.00     0.017 A 
HETATM   13  C   UNL     1     -40.375  55.468 -54.628  1.00  0.00     0.043 A 
HETATM   14  C   UNL     1     -40.907  54.295 -55.147  1.00  0.00     0.116 A 
HETATM   15  F   UNL     1     -40.104  53.424 -55.771  1.00  0.00    -0.206 F 
HETATM   16  C   UNL     1     -42.261  54.010 -55.021  1.00  0.00     0.043 A 
HETATM   17  C   UNL     1     -43.102  54.914 -54.366  1.00  0.00     0.017 A 
ENDBRANCH   6  11
ENDBRANCH   2   5
BRANCH   1  18
HETATM   18  C   UNL     1     -42.308  54.326 -49.791  1.00  0.00     0.165 C 
BRANCH  18  19
HETATM   19  C   UNL     1     -40.796  53.977 -49.663  1.00  0.00     0.097 C 
HETATM   20  C   UNL     1     -40.430  53.845 -48.174  1.00  0.00     0.053 C 
BRANCH  19  21
HETATM   21  O   UNL     1     -40.056  55.126 -50.123  1.00  0.00    -0.384 OA
HETATM   22  H   UNL     1     -39.870  54.994 -51.069  1.00  0.00     0.211 HD
ENDBRANCH  19  21
BRANCH  19  23
HETATM   23  C   UNL     1     -40.384  52.782 -50.528  1.00  0.00    -0.023 A 
HETATM   24  C   UNL     1     -40.094  52.890 -51.899  1.00  0.00     0.013 A 
HETATM   25  C   UNL     1     -39.736  51.766 -52.650  1.00  0.00     0.043 A 
HETATM   26  C   UNL     1     -39.662  50.523 -52.038  1.00  0.00     0.116 A 
HETATM   27  F   UNL     1     -39.322  49.449 -52.763  1.00  0.00    -0.206 F 
HETATM   28  C   UNL     1     -39.940  50.381 -50.688  1.00  0.00     0.043 A 
HETATM   29  C   UNL     1     -40.302  51.502 -49.939  1.00  0.00     0.013 A 
ENDBRANCH  19  23
ENDBRANCH  18  19
ENDBRANCH   1  18
TORSDOF 6
ENDMDL
MODEL 4
REMARK VINA RESULT:      -7.8      2.304      2.985
REMARK  6 active torsions:
REMARK  status: ('A' for Active; 'I' for Inactive)
REMARK    1  A    between atoms: C_2  and  O_3 
REMARK    2  A    between atoms: C_2  and  C_4 
REMARK    3  A    between atoms: C_2  and  C_11 
REMARK    4  A    between atoms: C_11  and  N_12 
REMARK       I    between atoms: N_12  and  C_13 
REMARK    5  A    between atoms: C_13  and  C_14 
REMARK    6  A    between atoms: C_15  and  C_16 
ROOT
HETATM    1  N   UNL     1     -43.413  56.435 -52.436  1.00  0.00    -0.354 N 
HETATM    2  C   UNL     1     -44.200  57.228 -51.626  1.00  0.00     0.255 C 
HETATM    3  O   UNL     1     -44.797  56.783 -50.652  1.00  0.00    -0.268 OA
HETATM    4  H   UNL     1     -43.017  56.829 -53.275  1.00  0.00     0.162 HD
ENDROOT
BRANCH   2   5
HETATM    5  C   UNL     1     -44.284  58.624 -52.038  1.00  0.00     0.080 A 
HETATM    6  C   UNL     1     -43.239  59.605 -52.132  1.00  0.00     0.104 A 
HETATM    7  N   UNL     1     -43.718  60.771 -52.605  1.00  0.00    -0.174 NA
HETATM    8  N   UNL     1     -45.020  60.554 -52.797  1.00  0.00    -0.288 N 
HETATM    9  H   UNL     1     -45.582  61.317 -53.161  1.00  0.00     0.188 HD
HETATM   10  C   UNL     1     -45.416  59.294 -52.475  1.00  0.00     0.128 A 
BRANCH   6  11
HETATM   11  C   UNL     1     -41.816  59.504 -51.788  1.00  0.00    -0.004 A 
HETATM   12  C   UNL     1     -41.393  59.797 -50.480  1.00  0.00     0.017 A 
HETATM   13  C   UNL     1     -40.047  59.687 -50.125  1.00  0.00     0.043 A 
HETATM   14  C   UNL     1     -39.120  59.279 -51.076  1.00  0.00     0.116 A 
HETATM   15  F   UNL     1     -37.829  59.174 -50.737  1.00  0.00    -0.206 F 
HETATM   16  C   UNL     1     -39.516  58.972 -52.371  1.00  0.00     0.043 A 
HETATM   17  C   UNL     1     -40.864  59.076 -52.726  1.00  0.00     0.017 A 
ENDBRANCH   6  11
ENDBRANCH   2   5
BRANCH   1  18
HETATM   18  C   UNL     1     -43.223  55.015 -52.185  1.00  0.00     0.165 C 
BRANCH  18  19
HETATM   19  C   UNL     1     -41.867  54.646 -51.514  1.00  0.00     0.097 C 
HETATM   20  C   UNL     1     -42.100  54.373 -50.018  1.00  0.00     0.053 C 
BRANCH  19  21
HETATM   21  O   UNL     1     -41.042  55.828 -51.547  1.00  0.00    -0.384 OA
HETATM   22  H   UNL     1     -40.611  55.907 -50.678  1.00  0.00     0.211 HD
ENDBRANCH  19  21
BRANCH  19  23
HETATM   23  C   UNL     1     -41.118  53.535 -52.255  1.00  0.00    -0.023 A 
HETATM   24  C   UNL     1     -41.297  53.269 -53.624  1.00  0.00     0.013 A 
HETATM   25  C   UNL     1     -40.600  52.233 -54.253  1.00  0.00     0.043 A 
HETATM   26  C   UNL     1     -39.715  51.454 -53.522  1.00  0.00     0.116 A 
HETATM   27  F   UNL     1     -39.052  50.460 -54.129  1.00  0.00    -0.206 F 
HETATM   28  C   UNL     1     -39.513  51.689 -52.171  1.00  0.00     0.043 A 
HETATM   29  C   UNL     1     -40.212  52.721 -51.542  1.00  0.00     0.013 A 
ENDBRANCH  19  23
ENDBRANCH  18  19
ENDBRANCH   1  18
TORSDOF 6
ENDMDL
MODEL 5
REMARK VINA RESULT:      -7.8      3.073      4.334
REMARK  6 active torsions:
REMARK  status: ('A' for Active; 'I' for Inactive)
REMARK    1  A    between atoms: C_2  and  O_3 
REMARK    2  A    between atoms: C_2  and  C_4 
REMARK    3  A    between atoms: C_2  and  C_11 
REMARK    4  A    between atoms: C_11  and  N_12 
REMARK       I    between atoms: N_12  and  C_13 
REMARK    5  A    between atoms: C_13  and  C_14 
REMARK    6  A    between atoms: C_15  and  C_16 
ROOT
HETATM    1  N   UNL     1     -41.901  57.059 -50.665  1.00  0.00    -0.354 N 
HETATM    2  C   UNL     1     -41.278  58.220 -51.074  1.00  0.00     0.255 C 
HETATM    3  O   UNL     1     -40.107  58.466 -50.804  1.00  0.00    -0.268 OA
HETATM    4  H   UNL     1     -42.889  56.945 -50.835  1.00  0.00     0.162 HD
ENDROOT
BRANCH   2   5
HETATM    5  C   UNL     1     -42.127  59.135 -51.826  1.00  0.00     0.080 A 
HETATM    6  C   UNL     1     -42.882  58.892 -53.024  1.00  0.00     0.104 A 
HETATM    7  N   UNL     1     -43.583  59.986 -53.377  1.00  0.00    -0.174 NA
HETATM    8  N   UNL     1     -43.284  60.899 -52.452  1.00  0.00    -0.288 N 
HETATM    9  H   UNL     1     -43.716  61.814 -52.528  1.00  0.00     0.188 HD
HETATM   10  C   UNL     1     -42.419  60.451 -51.504  1.00  0.00     0.128 A 
BRANCH   6  11
HETATM   11  C   UNL     1     -42.968  57.688 -53.857  1.00  0.00    -0.004 A 
HETATM   12  C   UNL     1     -42.048  57.498 -54.903  1.00  0.00     0.017 A 
HETATM   13  C   UNL     1     -42.097  56.350 -55.697  1.00  0.00     0.043 A 
HETATM   14  C   UNL     1     -43.064  55.385 -55.443  1.00  0.00     0.116 A 
HETATM   15  F   UNL     1     -43.114  54.284 -56.203  1.00  0.00    -0.206 F 
HETATM   16  C   UNL     1     -43.976  55.545 -54.408  1.00  0.00     0.043 A 
HETATM   17  C   UNL     1     -43.924  56.692 -53.610  1.00  0.00     0.017 A 
ENDBRANCH   6  11
ENDBRANCH   2   5
BRANCH   1  18
HETATM   18  C   UNL     1     -41.212  56.036 -49.894  1.00  0.00     0.165 C 
BRANCH  18  19
HETATM   19  C   UNL     1     -41.809  54.604 -50.030  1.00  0.00     0.097 C 
HETATM   20  C   UNL     1     -43.336  54.705 -50.189  1.00  0.00     0.053 C 
BRANCH  19  21
HETATM   21  O   UNL     1     -41.615  53.943 -48.763  1.00  0.00    -0.384 OA
HETATM   22  H   UNL     1     -42.347  54.210 -48.180  1.00  0.00     0.211 HD
ENDBRANCH  19  21
BRANCH  19  23
HETATM   23  C   UNL     1     -41.111  53.766 -51.105  1.00  0.00    -0.023 A 
HETATM   24  C   UNL     1     -41.239  54.022 -52.481  1.00  0.00     0.013 A 
HETATM   25  C   UNL     1     -40.592  53.220 -53.425  1.00  0.00     0.043 A 
HETATM   26  C   UNL     1     -39.808  52.154 -53.005  1.00  0.00     0.116 A 
HETATM   27  F   UNL     1     -39.194  51.386 -53.914  1.00  0.00    -0.206 F 
HETATM   28  C   UNL     1     -39.659  51.874 -51.656  1.00  0.00     0.043 A 
HETATM   29  C   UNL     1     -40.309  52.673 -50.713  1.00  0.00     0.013 A 
ENDBRANCH  19  23
ENDBRANCH  18  19
ENDBRANCH   1  18
TORSDOF 6
ENDMDL
MODEL 6
REMARK VINA RESULT:      -7.7      1.767      1.891
REMARK  6 active torsions:
REMARK  status: ('A' for Active; 'I' for Inactive)
REMARK    1  A    between atoms: C_2  and  O_3 
REMARK    2  A    between atoms: C_2  and  C_4 
REMARK    3  A    between atoms: C_2  and  C_11 
REMARK    4  A    between atoms: C_11  and  N_12 
REMARK       I    between atoms: N_12  and  C_13 
REMARK    5  A    between atoms: C_13  and  C_14 
REMARK    6  A    between atoms: C_15  and  C_16 
ROOT
HETATM    1  N   UNL     1     -41.706  55.871 -55.503  1.00  0.00    -0.354 N 
HETATM    2  C   UNL     1     -42.758  56.761 -55.575  1.00  0.00     0.255 C 
HETATM    3  O   UNL     1     -43.910  56.438 -55.308  1.00  0.00    -0.268 OA
HETATM    4  H   UNL     1     -40.794  56.162 -55.820  1.00  0.00     0.162 HD
ENDROOT
BRANCH   2   5
HETATM    5  C   UNL     1     -42.392  58.101 -56.018  1.00  0.00     0.080 A 
HETATM    6  C   UNL     1     -41.896  59.206 -55.246  1.00  0.00     0.104 A 
HETATM    7  N   UNL     1     -41.627  60.261 -56.038  1.00  0.00    -0.174 NA
HETATM    8  N   UNL     1     -41.948  59.857 -57.268  1.00  0.00    -0.288 N 
HETATM    9  H   UNL     1     -41.816  60.510 -58.034  1.00  0.00     0.188 HD
HETATM   10  C   UNL     1     -42.412  58.580 -57.319  1.00  0.00     0.128 A 
BRANCH   6  11
HETATM   11  C   UNL     1     -41.672  59.322 -53.801  1.00  0.00    -0.004 A 
HETATM   12  C   UNL     1     -40.507  58.780 -53.230  1.00  0.00     0.017 A 
HETATM   13  C   UNL     1     -40.264  58.897 -51.860  1.00  0.00     0.043 A 
HETATM   14  C   UNL     1     -41.182  59.560 -51.056  1.00  0.00     0.116 A 
HETATM   15  F   UNL     1     -40.951  59.672 -49.742  1.00  0.00    -0.206 F 
HETATM   16  C   UNL     1     -42.334  60.114 -51.599  1.00  0.00     0.043 A 
HETATM   17  C   UNL     1     -42.577  60.003 -52.971  1.00  0.00     0.017 A 
ENDBRANCH   6  11
ENDBRANCH   2   5
BRANCH   1  18
HETATM   18  C   UNL     1     -41.885  54.488 -55.093  1.00  0.00     0.165 C 
BRANCH  18  19
HETATM   19  C   UNL     1     -41.527  54.197 -53.605  1.00  0.00     0.097 C 
HETATM   20  C   UNL     1     -42.775  54.415 -52.732  1.00  0.00     0.053 C 
BRANCH  19  21
HETATM   21  O   UNL     1     -40.601  55.219 -53.184  1.00  0.00    -0.384 OA
HETATM   22  H   UNL     1     -40.692  55.967 -53.802  1.00  0.00     0.211 HD
ENDBRANCH  19  21
BRANCH  19  23
HETATM   23  C   UNL     1     -40.843  52.841 -53.411  1.00  0.00    -0.023 A 
HETATM   24  C   UNL     1     -40.127  52.502 -52.249  1.00  0.00     0.013 A 
HETATM   25  C   UNL     1     -39.507  51.254 -52.124  1.00  0.00     0.043 A 
HETATM   26  C   UNL     1     -39.598  50.332 -53.157  1.00  0.00     0.116 A 
HETATM   27  F   UNL     1     -39.000  49.140 -53.033  1.00  0.00    -0.206 F 
HETATM   28  C   UNL     1     -40.298  50.633 -54.315  1.00  0.00     0.043 A 
HETATM   29  C   UNL     1     -40.913  51.880 -54.442  1.00  0.00     0.013 A 
ENDBRANCH  19  23
ENDBRANCH  18  19
ENDBRANCH   1  18
TORSDOF 6
ENDMDL
MODEL 7
REMARK VINA RESULT:      -7.6      3.828      6.999
REMARK  6 active torsions:
REMARK  status: ('A' for Active; 'I' for Inactive)
REMARK    1  A    between atoms: C_2  and  O_3 
REMARK    2  A    between atoms: C_2  and  C_4 
REMARK    3  A    between atoms: C_2  and  C_11 
REMARK    4  A    between atoms: C_11  and  N_12 
REMARK       I    between atoms: N_12  and  C_13 
REMARK    5  A    between atoms: C_13  and  C_14 
REMARK    6  A    between atoms: C_15  and  C_16 
ROOT
HETATM    1  N   UNL     1     -40.881  55.794 -50.741  1.00  0.00    -0.354 N 
HETATM    2  C   UNL     1     -41.489  54.559 -50.658  1.00  0.00     0.255 C 
HETATM    3  O   UNL     1     -42.500  54.369 -49.992  1.00  0.00    -0.268 OA
HETATM    4  H   UNL     1     -40.001  55.878 -51.228  1.00  0.00     0.162 HD
ENDROOT
BRANCH   2   5
HETATM    5  C   UNL     1     -40.819  53.499 -51.402  1.00  0.00     0.080 A 
HETATM    6  C   UNL     1     -40.734  53.305 -52.823  1.00  0.00     0.104 A 
HETATM    7  N   UNL     1     -39.976  52.230 -53.114  1.00  0.00    -0.174 NA
HETATM    8  N   UNL     1     -39.599  51.746 -51.930  1.00  0.00    -0.288 N 
HETATM    9  H   UNL     1     -39.006  50.922 -51.920  1.00  0.00     0.188 HD
HETATM   10  C   UNL     1     -40.072  52.458 -50.874  1.00  0.00     0.128 A 
BRANCH   6  11
HETATM   11  C   UNL     1     -41.337  54.072 -53.918  1.00  0.00    -0.004 A 
HETATM   12  C   UNL     1     -42.483  53.577 -54.567  1.00  0.00     0.017 A 
HETATM   13  C   UNL     1     -43.087  54.299 -55.598  1.00  0.00     0.043 A 
HETATM   14  C   UNL     1     -42.550  55.522 -55.981  1.00  0.00     0.116 A 
HETATM   15  F   UNL     1     -43.128  56.216 -56.970  1.00  0.00    -0.206 F 
HETATM   16  C   UNL     1     -41.427  56.037 -55.347  1.00  0.00     0.043 A 
HETATM   17  C   UNL     1     -40.825  55.317 -54.311  1.00  0.00     0.017 A 
ENDBRANCH   6  11
ENDBRANCH   2   5
BRANCH   1  18
HETATM   18  C   UNL     1     -41.402  56.965 -50.054  1.00  0.00     0.165 C 
BRANCH  18  19
HETATM   19  C   UNL     1     -41.490  58.250 -50.929  1.00  0.00     0.097 C 
HETATM   20  C   UNL     1     -40.077  58.645 -51.392  1.00  0.00     0.053 C 
BRANCH  19  21
HETATM   21  O   UNL     1     -41.907  59.325 -50.063  1.00  0.00    -0.384 OA
HETATM   22  H   UNL     1     -41.818  60.155 -50.565  1.00  0.00     0.211 HD
ENDBRANCH  19  21
BRANCH  19  23
HETATM   23  C   UNL     1     -42.520  58.135 -52.057  1.00  0.00    -0.023 A 
HETATM   24  C   UNL     1     -43.591  57.224 -52.028  1.00  0.00     0.013 A 
HETATM   25  C   UNL     1     -44.498  57.147 -53.089  1.00  0.00     0.043 A 
HETATM   26  C   UNL     1     -44.346  57.980 -54.189  1.00  0.00     0.116 A 
HETATM   27  F   UNL     1     -45.215  57.899 -55.205  1.00  0.00    -0.206 F 
HETATM   28  C   UNL     1     -43.302  58.890 -54.249  1.00  0.00     0.043 A 
HETATM   29  C   UNL     1     -42.394  58.964 -53.192  1.00  0.00     0.013 A 
ENDBRANCH  19  23
ENDBRANCH  18  19
ENDBRANCH   1  18
TORSDOF 6
ENDMDL
MODEL 8
REMARK VINA RESULT:      -7.6      3.680      6.839
REMARK  6 active torsions:
REMARK  status: ('A' for Active; 'I' for Inactive)
REMARK    1  A    between atoms: C_2  and  O_3 
REMARK    2  A    between atoms: C_2  and  C_4 
REMARK    3  A    between atoms: C_2  and  C_11 
REMARK    4  A    between atoms: C_11  and  N_12 
REMARK       I    between atoms: N_12  and  C_13 
REMARK    5  A    between atoms: C_13  and  C_14 
REMARK    6  A    between atoms: C_15  and  C_16 
ROOT
HETATM    1  N   UNL     1     -43.462  56.870 -54.970  1.00  0.00    -0.354 N 
HETATM    2  C   UNL     1     -42.531  56.708 -53.966  1.00  0.00     0.255 C 
HETATM    3  O   UNL     1     -41.352  57.015 -54.108  1.00  0.00    -0.268 OA
HETATM    4  H   UNL     1     -44.398  56.519 -54.835  1.00  0.00     0.162 HD
ENDROOT
BRANCH   2   5
HETATM    5  C   UNL     1     -43.054  56.121 -52.739  1.00  0.00     0.080 A 
HETATM    6  C   UNL     1     -42.692  54.887 -52.099  1.00  0.00     0.104 A 
HETATM    7  N   UNL     1     -43.374  54.726 -50.949  1.00  0.00    -0.174 NA
HETATM    8  N   UNL     1     -44.151  55.806 -50.857  1.00  0.00    -0.288 N 
HETATM    9  H   UNL     1     -44.756  55.890 -50.047  1.00  0.00     0.188 HD
HETATM   10  C   UNL     1     -44.007  56.671 -51.895  1.00  0.00     0.128 A 
BRANCH   6  11
HETATM   11  C   UNL     1     -41.746  53.848 -52.520  1.00  0.00    -0.004 A 
HETATM   12  C   UNL     1     -41.764  53.387 -53.849  1.00  0.00     0.017 A 
HETATM   13  C   UNL     1     -40.860  52.413 -54.278  1.00  0.00     0.043 A 
HETATM   14  C   UNL     1     -39.931  51.901 -53.382  1.00  0.00     0.116 A 
HETATM   15  F   UNL     1     -39.063  50.967 -53.792  1.00  0.00    -0.206 F 
HETATM   16  C   UNL     1     -39.885  52.349 -52.068  1.00  0.00     0.043 A 
HETATM   17  C   UNL     1     -40.787  53.328 -51.638  1.00  0.00     0.017 A 
ENDBRANCH   6  11
ENDBRANCH   2   5
BRANCH   1  18
HETATM   18  C   UNL     1     -43.117  57.429 -56.268  1.00  0.00     0.165 C 
BRANCH  18  19
HETATM   19  C   UNL     1     -44.334  57.883 -57.128  1.00  0.00     0.097 C 
HETATM   20  C   UNL     1     -44.233  59.397 -57.388  1.00  0.00     0.053 C 
BRANCH  19  21
HETATM   21  O   UNL     1     -45.512  57.728 -56.311  1.00  0.00    -0.384 OA
HETATM   22  H   UNL     1     -45.232  57.790 -55.380  1.00  0.00     0.211 HD
ENDBRANCH  19  21
BRANCH  19  23
HETATM   23  C   UNL     1     -44.525  57.033 -58.386  1.00  0.00    -0.023 A 
HETATM   24  C   UNL     1     -45.635  57.163 -59.240  1.00  0.00     0.013 A 
HETATM   25  C   UNL     1     -45.771  56.353 -60.371  1.00  0.00     0.043 A 
HETATM   26  C   UNL     1     -44.800  55.406 -60.663  1.00  0.00     0.116 A 
HETATM   27  F   UNL     1     -44.938  54.630 -61.746  1.00  0.00    -0.206 F 
HETATM   28  C   UNL     1     -43.692  55.252 -59.844  1.00  0.00     0.043 A 
HETATM   29  C   UNL     1     -43.558  56.057 -58.712  1.00  0.00     0.013 A 
ENDBRANCH  19  23
ENDBRANCH  18  19
ENDBRANCH   1  18
TORSDOF 6
ENDMDL
MODEL 9
REMARK VINA RESULT:      -7.5      3.680      7.015
REMARK  6 active torsions:
REMARK  status: ('A' for Active; 'I' for Inactive)
REMARK    1  A    between atoms: C_2  and  O_3 
REMARK    2  A    between atoms: C_2  and  C_4 
REMARK    3  A    between atoms: C_2  and  C_11 
REMARK    4  A    between atoms: C_11  and  N_12 
REMARK       I    between atoms: N_12  and  C_13 
REMARK    5  A    between atoms: C_13  and  C_14 
REMARK    6  A    between atoms: C_15  and  C_16 
ROOT
HETATM    1  N   UNL     1     -42.632  56.973 -50.808  1.00  0.00    -0.354 N 
HETATM    2  C   UNL     1     -41.280  56.751 -50.648  1.00  0.00     0.255 C 
HETATM    3  O   UNL     1     -40.464  57.665 -50.621  1.00  0.00    -0.268 OA
HETATM    4  H   UNL     1     -43.251  56.183 -50.915  1.00  0.00     0.162 HD
ENDROOT
BRANCH   2   5
HETATM    5  C   UNL     1     -40.902  55.347 -50.542  1.00  0.00     0.080 A 
HETATM    6  C   UNL     1     -40.983  54.309 -51.532  1.00  0.00     0.104 A 
HETATM    7  N   UNL     1     -40.483  53.154 -51.056  1.00  0.00    -0.174 NA
HETATM    8  N   UNL     1     -40.106  53.432 -49.807  1.00  0.00    -0.288 N 
HETATM    9  H   UNL     1     -39.690  52.686 -49.258  1.00  0.00     0.188 HD
HETATM   10  C   UNL     1     -40.333  54.721 -49.443  1.00  0.00     0.128 A 
BRANCH   6  11
HETATM   11  C   UNL     1     -41.516  54.349 -52.898  1.00  0.00    -0.004 A 
HETATM   12  C   UNL     1     -42.907  54.384 -53.102  1.00  0.00     0.017 A 
HETATM   13  C   UNL     1     -43.438  54.442 -54.393  1.00  0.00     0.043 A 
HETATM   14  C   UNL     1     -42.578  54.470 -55.484  1.00  0.00     0.116 A 
HETATM   15  F   UNL     1     -43.085  54.526 -56.722  1.00  0.00    -0.206 F 
HETATM   16  C   UNL     1     -41.201  54.449 -55.307  1.00  0.00     0.043 A 
HETATM   17  C   UNL     1     -40.669  54.396 -54.015  1.00  0.00     0.017 A 
ENDBRANCH   6  11
ENDBRANCH   2   5
BRANCH   1  18
HETATM   18  C   UNL     1     -43.190  58.309 -50.943  1.00  0.00     0.165 C 
BRANCH  18  19
HETATM   19  C   UNL     1     -44.390  58.418 -51.931  1.00  0.00     0.097 C 
HETATM   20  C   UNL     1     -45.162  59.719 -51.646  1.00  0.00     0.053 C 
BRANCH  19  21
HETATM   21  O   UNL     1     -45.313  57.363 -51.595  1.00  0.00    -0.384 OA
HETATM   22  H   UNL     1     -46.210  57.738 -51.630  1.00  0.00     0.211 HD
ENDBRANCH  19  21
BRANCH  19  23
HETATM   23  C   UNL     1     -43.978  58.230 -53.393  1.00  0.00    -0.023 A 
HETATM   24  C   UNL     1     -44.893  57.914 -54.414  1.00  0.00     0.013 A 
HETATM   25  C   UNL     1     -44.465  57.738 -55.733  1.00  0.00     0.043 A 
HETATM   26  C   UNL     1     -43.121  57.878 -56.048  1.00  0.00     0.116 A 
HETATM   27  F   UNL     1     -42.717  57.705 -57.313  1.00  0.00    -0.206 F 
HETATM   28  C   UNL     1     -42.193  58.190 -55.067  1.00  0.00     0.043 A 
HETATM   29  C   UNL     1     -42.618  58.362 -53.749  1.00  0.00     0.013 A 
ENDBRANCH  19  23
ENDBRANCH  18  19
ENDBRANCH   1  18
TORSDOF 6
ENDMDL
MODEL 10
REMARK VINA RESULT:      -7.4      3.597      5.116
REMARK  6 active torsions:
REMARK  status: ('A' for Active; 'I' for Inactive)
REMARK    1  A    between atoms: C_2  and  O_3 
REMARK    2  A    between atoms: C_2  and  C_4 
REMARK    3  A    between atoms: C_2  and  C_11 
REMARK    4  A    between atoms: C_11  and  N_12 
REMARK       I    between atoms: N_12  and  C_13 
REMARK    5  A    between atoms: C_13  and  C_14 
REMARK    6  A    between atoms: C_15  and  C_16 
ROOT
HETATM    1  N   UNL     1     -43.050  56.091 -54.025  1.00  0.00    -0.354 N 
HETATM    2  C   UNL     1     -42.807  56.119 -55.382  1.00  0.00     0.255 C 
HETATM    3  O   UNL     1     -42.687  55.097 -56.048  1.00  0.00    -0.268 OA
HETATM    4  H   UNL     1     -43.049  56.957 -53.507  1.00  0.00     0.162 HD
ENDROOT
BRANCH   2   5
HETATM    5  C   UNL     1     -42.678  57.455 -55.950  1.00  0.00     0.080 A 
HETATM    6  C   UNL     1     -43.166  57.957 -57.205  1.00  0.00     0.104 A 
HETATM    7  N   UNL     1     -42.884  59.267 -57.339  1.00  0.00    -0.174 NA
HETATM    8  N   UNL     1     -42.232  59.593 -56.222  1.00  0.00    -0.288 N 
HETATM    9  H   UNL     1     -41.925  60.555 -56.113  1.00  0.00     0.188 HD
HETATM   10  C   UNL     1     -42.077  58.555 -55.359  1.00  0.00     0.128 A 
BRANCH   6  11
HETATM   11  C   UNL     1     -43.873  57.264 -58.287  1.00  0.00    -0.004 A 
HETATM   12  C   UNL     1     -45.233  57.537 -58.518  1.00  0.00     0.017 A 
HETATM   13  C   UNL     1     -45.921  56.904 -59.556  1.00  0.00     0.043 A 
HETATM   14  C   UNL     1     -45.251  55.999 -60.369  1.00  0.00     0.116 A 
HETATM   15  F   UNL     1     -45.909  55.391 -61.364  1.00  0.00    -0.206 F 
HETATM   16  C   UNL     1     -43.905  55.723 -60.168  1.00  0.00     0.043 A 
HETATM   17  C   UNL     1     -43.213  56.360 -59.133  1.00  0.00     0.017 A 
ENDBRANCH   6  11
ENDBRANCH   2   5
BRANCH   1  18
HETATM   18  C   UNL     1     -43.195  54.847 -53.287  1.00  0.00     0.165 C 
BRANCH  18  19
HETATM   19  C   UNL     1     -42.044  54.546 -52.280  1.00  0.00     0.097 C 
HETATM   20  C   UNL     1     -42.627  54.450 -50.859  1.00  0.00     0.053 C 
BRANCH  19  21
HETATM   21  O   UNL     1     -41.193  55.710 -52.250  1.00  0.00    -0.384 OA
HETATM   22  H   UNL     1     -40.415  55.488 -51.708  1.00  0.00     0.211 HD
ENDBRANCH  19  21
BRANCH  19  23
HETATM   23  C   UNL     1     -41.184  53.350 -52.698  1.00  0.00    -0.023 A 
HETATM   24  C   UNL     1     -40.261  52.732 -51.836  1.00  0.00     0.013 A 
HETATM   25  C   UNL     1     -39.488  51.650 -52.269  1.00  0.00     0.043 A 
HETATM   26  C   UNL     1     -39.630  51.173 -53.564  1.00  0.00     0.116 A 
HETATM   27  F   UNL     1     -38.884  50.139 -53.974  1.00  0.00    -0.206 F 
HETATM   28  C   UNL     1     -40.532  51.759 -54.439  1.00  0.00     0.043 A 
HETATM   29  C   UNL     1     -41.301  52.842 -54.009  1.00  0.00     0.013 A 
ENDBRANCH  19  23
ENDBRANCH  18  19
ENDBRANCH   1  18
TORSDOF 6
ENDMDL
