MODEL 1
REMARK VINA RESULT:      -8.1      0.000      0.000
REMARK  6 active torsions:
REMARK  status: ('A' for Active; 'I' for Inactive)
REMARK    1  A    between atoms: C_6  and  C_7 
REMARK    2  A    between atoms: C_7  and  C_8 
REMARK       I    between atoms: C_8  and  N_9 
REMARK    3  A    between atoms: N_9  and  C_10 
REMARK    4  A    between atoms: C_12  and  C_13 
REMARK       I    between atoms: C_13  and  N_14 
REMARK    5  A    between atoms: N_14  and  C_15 
REMARK    6  A    between atoms: C_15  and  C_16 
ROOT
HETATM    1  C   UNL     1     -43.250  57.229 -53.708  1.00  0.00     0.035 A 
HETATM    2  C   UNL     1     -42.503  56.160 -53.197  1.00  0.00     0.046 A 
HETATM    3  C   UNL     1     -42.641  55.776 -51.854  1.00  0.00     0.034 A 
HETATM    4  C   UNL     1     -43.532  56.480 -51.030  1.00  0.00     0.017 A 
HETATM    5  C   UNL     1     -44.270  57.549 -51.530  1.00  0.00     0.003 A 
HETATM    6  C   UNL     1     -44.126  57.923 -52.863  1.00  0.00     0.029 A 
ENDROOT
BRANCH   1   7
HETATM    7  N   UNL     1     -43.171  57.683 -55.037  1.00  0.00    -0.327 N 
HETATM    8  C   UNL     1     -42.357  58.665 -55.569  1.00  0.00     0.227 C 
HETATM    9  O   UNL     1     -41.531  59.325 -54.939  1.00  0.00    -0.273 OA
HETATM   10  H   UNL     1     -43.730  57.177 -55.729  1.00  0.00     0.169 HD
BRANCH   8  11
HETATM   11  C   UNL     1     -42.628  58.972 -57.038  1.00  0.00     0.164 C 
BRANCH  11  12
HETATM   12  C   UNL     1     -43.396  57.914 -57.765  1.00  0.00     0.065 A 
HETATM   13  N   UNL     1     -44.740  57.906 -57.752  1.00  0.00    -0.179 NA
HETATM   14  N   UNL     1     -45.068  56.863 -58.536  1.00  0.00    -0.282 N 
HETATM   15  C   UNL     1     -43.988  56.206 -59.052  1.00  0.00     0.026 A 
HETATM   16  H   UNL     1     -46.052  56.661 -58.684  1.00  0.00     0.189 HD
HETATM   17  C   UNL     1     -44.120  55.038 -59.952  1.00  0.00     0.070 C 
HETATM   18  C   UNL     1     -42.882  56.863 -58.561  1.00  0.00     0.055 A 
ENDBRANCH  11  12
ENDBRANCH   8  11
ENDBRANCH   1   7
BRANCH   3  19
HETATM   19  C   UNL     1     -41.863  54.664 -51.223  1.00  0.00     0.252 C 
HETATM   20  N   UNL     1     -40.625  54.348 -51.742  1.00  0.00    -0.353 N 
HETATM   21  H   UNL     1     -40.331  54.704 -52.640  1.00  0.00     0.163 HD
HETATM   22  O   UNL     1     -42.341  54.062 -50.265  1.00  0.00    -0.268 OA
BRANCH  20  23
HETATM   23  C   UNL     1     -39.876  53.235 -51.195  1.00  0.00     0.161 C 
BRANCH  23  24
HETATM   24  C   UNL     1     -39.810  52.046 -52.120  1.00  0.00    -0.041 A 
HETATM   25  C   UNL     1     -39.546  50.754 -51.641  1.00  0.00     0.009 A 
HETATM   26  C   UNL     1     -39.562  49.658 -52.506  1.00  0.00     0.001 A 
HETATM   27  C   UNL     1     -39.860  49.835 -53.855  1.00  0.00     0.000 A 
HETATM   28  C   UNL     1     -40.143  51.108 -54.341  1.00  0.00     0.001 A 
HETATM   29  C   UNL     1     -40.122  52.207 -53.480  1.00  0.00     0.009 A 
ENDBRANCH  23  24
ENDBRANCH  20  23
ENDBRANCH   3  19
TORSDOF 6
ENDMDL
MODEL 2
REMARK VINA RESULT:      -8.0      1.461      1.822
REMARK  6 active torsions:
REMARK  status: ('A' for Active; 'I' for Inactive)
REMARK    1  A    between atoms: C_6  and  C_7 
REMARK    2  A    between atoms: C_7  and  C_8 
REMARK       I    between atoms: C_8  and  N_9 
REMARK    3  A    between atoms: N_9  and  C_10 
REMARK    4  A    between atoms: C_12  and  C_13 
REMARK       I    between atoms: C_13  and  N_14 
REMARK    5  A    between atoms: N_14  and  C_15 
REMARK    6  A    between atoms: C_15  and  C_16 
ROOT
HETATM    1  C   UNL     1     -43.131  57.622 -53.056  1.00  0.00     0.035 A 
HETATM    2  C   UNL     1     -42.275  56.594 -52.642  1.00  0.00     0.046 A 
HETATM    3  C   UNL     1     -42.548  55.872 -51.470  1.00  0.00     0.034 A 
HETATM    4  C   UNL     1     -43.686  56.197 -50.716  1.00  0.00     0.017 A 
HETATM    5  C   UNL     1     -44.536  57.225 -51.118  1.00  0.00     0.003 A 
HETATM    6  C   UNL     1     -44.256  57.934 -52.282  1.00  0.00     0.029 A 
ENDROOT
BRANCH   1   7
HETATM    7  N   UNL     1     -42.931  58.397 -54.213  1.00  0.00    -0.327 N 
HETATM    8  C   UNL     1     -41.907  59.280 -54.496  1.00  0.00     0.227 C 
HETATM    9  O   UNL     1     -40.960  59.536 -53.753  1.00  0.00    -0.273 OA
HETATM   10  H   UNL     1     -43.582  58.242 -54.987  1.00  0.00     0.169 HD
BRANCH   8  11
HETATM   11  C   UNL     1     -42.079  60.035 -55.810  1.00  0.00     0.164 C 
BRANCH  11  12
HETATM   12  C   UNL     1     -42.044  59.175 -57.033  1.00  0.00     0.065 A 
HETATM   13  N   UNL     1     -42.131  57.837 -56.938  1.00  0.00    -0.179 NA
HETATM   14  N   UNL     1     -42.116  57.417 -58.216  1.00  0.00    -0.282 N 
HETATM   15  C   UNL     1     -42.027  58.433 -59.124  1.00  0.00     0.026 A 
HETATM   16  H   UNL     1     -42.180  56.420 -58.397  1.00  0.00     0.189 HD
HETATM   17  C   UNL     1     -42.010  58.196 -60.586  1.00  0.00     0.070 C 
HETATM   18  C   UNL     1     -41.971  59.592 -58.384  1.00  0.00     0.055 A 
ENDBRANCH  11  12
ENDBRANCH   8  11
ENDBRANCH   1   7
BRANCH   3  19
HETATM   19  C   UNL     1     -41.673  54.778 -50.943  1.00  0.00     0.252 C 
HETATM   20  N   UNL     1     -40.634  54.328 -51.730  1.00  0.00    -0.353 N 
HETATM   21  H   UNL     1     -40.579  54.571 -52.709  1.00  0.00     0.163 HD
HETATM   22  O   UNL     1     -41.898  54.309 -49.830  1.00  0.00    -0.268 OA
BRANCH  20  23
HETATM   23  C   UNL     1     -39.810  53.227 -51.277  1.00  0.00     0.161 C 
BRANCH  23  24
HETATM   24  C   UNL     1     -39.878  52.018 -52.176  1.00  0.00    -0.041 A 
HETATM   25  C   UNL     1     -40.156  52.136 -53.547  1.00  0.00     0.009 A 
HETATM   26  C   UNL     1     -40.141  51.011 -54.374  1.00  0.00     0.001 A 
HETATM   27  C   UNL     1     -39.830  49.759 -53.848  1.00  0.00     0.000 A 
HETATM   28  C   UNL     1     -39.533  49.630 -52.494  1.00  0.00     0.001 A 
HETATM   29  C   UNL     1     -39.553  50.752 -51.663  1.00  0.00     0.009 A 
ENDBRANCH  23  24
ENDBRANCH  20  23
ENDBRANCH   3  19
TORSDOF 6
ENDMDL
MODEL 3
REMARK VINA RESULT:      -7.9      3.945      6.736
REMARK  6 active torsions:
REMARK  status: ('A' for Active; 'I' for Inactive)
REMARK    1  A    between atoms: C_6  and  C_7 
REMARK    2  A    between atoms: C_7  and  C_8 
REMARK       I    between atoms: C_8  and  N_9 
REMARK    3  A    between atoms: N_9  and  C_10 
REMARK    4  A    between atoms: C_12  and  C_13 
REMARK       I    between atoms: C_13  and  N_14 
REMARK    5  A    between atoms: N_14  and  C_15 
REMARK    6  A    between atoms: C_15  and  C_16 
ROOT
HETATM    1  C   UNL     1     -43.397  58.215 -51.549  1.00  0.00     0.035 A 
HETATM    2  C   UNL     1     -42.852  57.089 -50.919  1.00  0.00     0.046 A 
HETATM    3  C   UNL     1     -42.294  56.050 -51.681  1.00  0.00     0.034 A 
HETATM    4  C   UNL     1     -42.295  56.153 -53.080  1.00  0.00     0.017 A 
HETATM    5  C   UNL     1     -42.845  57.265 -53.712  1.00  0.00     0.003 A 
HETATM    6  C   UNL     1     -43.395  58.289 -52.947  1.00  0.00     0.029 A 
ENDROOT
BRANCH   1   7
HETATM    7  N   UNL     1     -43.979  59.297 -50.864  1.00  0.00    -0.327 N 
HETATM    8  C   UNL     1     -45.275  59.434 -50.404  1.00  0.00     0.227 C 
HETATM    9  O   UNL     1     -46.165  58.592 -50.519  1.00  0.00    -0.273 OA
HETATM   10  H   UNL     1     -43.353  60.061 -50.597  1.00  0.00     0.169 HD
BRANCH   8  11
HETATM   11  C   UNL     1     -45.583  60.802 -49.804  1.00  0.00     0.164 C 
BRANCH  11  12
HETATM   12  C   UNL     1     -45.556  60.848 -48.309  1.00  0.00     0.065 A 
HETATM   13  N   UNL     1     -46.223  59.937 -47.579  1.00  0.00    -0.179 NA
HETATM   14  N   UNL     1     -45.930  60.261 -46.306  1.00  0.00    -0.282 N 
HETATM   15  C   UNL     1     -45.100  61.339 -46.194  1.00  0.00     0.026 A 
HETATM   16  H   UNL     1     -46.325  59.696 -45.561  1.00  0.00     0.189 HD
HETATM   17  C   UNL     1     -44.639  61.858 -44.886  1.00  0.00     0.070 C 
HETATM   18  C   UNL     1     -44.844  61.749 -47.483  1.00  0.00     0.055 A 
ENDBRANCH  11  12
ENDBRANCH   8  11
ENDBRANCH   1   7
BRANCH   3  19
HETATM   19  C   UNL     1     -41.716  54.803 -51.090  1.00  0.00     0.252 C 
HETATM   20  N   UNL     1     -40.537  54.312 -51.610  1.00  0.00    -0.353 N 
HETATM   21  H   UNL     1     -40.175  54.651 -52.490  1.00  0.00     0.163 HD
HETATM   22  O   UNL     1     -42.300  54.248 -50.162  1.00  0.00    -0.268 OA
BRANCH  20  23
HETATM   23  C   UNL     1     -39.987  53.071 -51.104  1.00  0.00     0.161 C 
BRANCH  23  24
HETATM   24  C   UNL     1     -39.886  51.990 -52.151  1.00  0.00    -0.041 A 
HETATM   25  C   UNL     1     -39.571  50.665 -51.812  1.00  0.00     0.009 A 
HETATM   26  C   UNL     1     -39.555  49.667 -52.788  1.00  0.00     0.001 A 
HETATM   27  C   UNL     1     -39.872  49.974 -54.109  1.00  0.00     0.000 A 
HETATM   28  C   UNL     1     -40.205  51.281 -54.457  1.00  0.00     0.001 A 
HETATM   29  C   UNL     1     -40.216  52.283 -53.484  1.00  0.00     0.009 A 
ENDBRANCH  23  24
ENDBRANCH  20  23
ENDBRANCH   3  19
TORSDOF 6
ENDMDL
MODEL 4
REMARK VINA RESULT:      -7.8      1.767      2.275
REMARK  6 active torsions:
REMARK  status: ('A' for Active; 'I' for Inactive)
REMARK    1  A    between atoms: C_6  and  C_7 
REMARK    2  A    between atoms: C_7  and  C_8 
REMARK       I    between atoms: C_8  and  N_9 
REMARK    3  A    between atoms: N_9  and  C_10 
REMARK    4  A    between atoms: C_12  and  C_13 
REMARK       I    between atoms: C_13  and  N_14 
REMARK    5  A    between atoms: N_14  and  C_15 
REMARK    6  A    between atoms: C_15  and  C_16 
ROOT
HETATM    1  C   UNL     1     -43.391  56.558 -55.801  1.00  0.00     0.035 A 
HETATM    2  C   UNL     1     -42.466  55.968 -54.930  1.00  0.00     0.046 A 
HETATM    3  C   UNL     1     -42.620  56.092 -53.541  1.00  0.00     0.034 A 
HETATM    4  C   UNL     1     -43.709  56.819 -53.036  1.00  0.00     0.017 A 
HETATM    5  C   UNL     1     -44.626  57.416 -53.897  1.00  0.00     0.003 A 
HETATM    6  C   UNL     1     -44.464  57.287 -55.273  1.00  0.00     0.029 A 
ENDROOT
BRANCH   1   7
HETATM    7  N   UNL     1     -43.310  56.487 -57.203  1.00  0.00    -0.327 N 
HETATM    8  C   UNL     1     -42.563  57.265 -58.067  1.00  0.00     0.227 C 
HETATM    9  O   UNL     1     -41.810  58.180 -57.734  1.00  0.00    -0.273 OA
HETATM   10  H   UNL     1     -43.808  55.714 -57.653  1.00  0.00     0.169 HD
BRANCH   8  11
HETATM   11  C   UNL     1     -42.815  56.976 -59.543  1.00  0.00     0.164 C 
BRANCH  11  12
HETATM   12  C   UNL     1     -44.200  56.507 -59.860  1.00  0.00     0.065 A 
HETATM   13  N   UNL     1     -44.587  55.254 -59.564  1.00  0.00    -0.179 NA
HETATM   14  N   UNL     1     -45.878  55.214 -59.940  1.00  0.00    -0.282 N 
HETATM   15  C   UNL     1     -46.332  56.392 -60.461  1.00  0.00     0.026 A 
HETATM   16  H   UNL     1     -46.395  54.351 -59.803  1.00  0.00     0.189 HD
HETATM   17  C   UNL     1     -47.727  56.573 -60.925  1.00  0.00     0.070 C 
HETATM   18  C   UNL     1     -45.259  57.253 -60.429  1.00  0.00     0.055 A 
ENDBRANCH  11  12
ENDBRANCH   8  11
ENDBRANCH   1   7
BRANCH   3  19
HETATM   19  C   UNL     1     -41.665  55.516 -52.543  1.00  0.00     0.252 C 
HETATM   20  N   UNL     1     -41.332  54.182 -52.642  1.00  0.00    -0.353 N 
HETATM   21  H   UNL     1     -41.861  53.556 -53.231  1.00  0.00     0.163 HD
HETATM   22  O   UNL     1     -41.203  56.239 -51.664  1.00  0.00    -0.268 OA
BRANCH  20  23
HETATM   23  C   UNL     1     -40.462  53.580 -51.653  1.00  0.00     0.161 C 
BRANCH  23  24
HETATM   24  C   UNL     1     -40.062  52.165 -51.989  1.00  0.00    -0.041 A 
HETATM   25  C   UNL     1     -39.830  51.208 -50.989  1.00  0.00     0.009 A 
HETATM   26  C   UNL     1     -39.533  49.886 -51.325  1.00  0.00     0.001 A 
HETATM   27  C   UNL     1     -39.483  49.498 -52.662  1.00  0.00     0.000 A 
HETATM   28  C   UNL     1     -39.730  50.431 -53.665  1.00  0.00     0.001 A 
HETATM   29  C   UNL     1     -40.021  51.756 -53.332  1.00  0.00     0.009 A 
ENDBRANCH  23  24
ENDBRANCH  20  23
ENDBRANCH   3  19
TORSDOF 6
ENDMDL
MODEL 5
REMARK VINA RESULT:      -7.5      1.568      7.280
REMARK  6 active torsions:
REMARK  status: ('A' for Active; 'I' for Inactive)
REMARK    1  A    between atoms: C_6  and  C_7 
REMARK    2  A    between atoms: C_7  and  C_8 
REMARK       I    between atoms: C_8  and  N_9 
REMARK    3  A    between atoms: N_9  and  C_10 
REMARK    4  A    between atoms: C_12  and  C_13 
REMARK       I    between atoms: C_13  and  N_14 
REMARK    5  A    between atoms: N_14  and  C_15 
REMARK    6  A    between atoms: C_15  and  C_16 
ROOT
HETATM    1  C   UNL     1     -43.166  55.917 -52.138  1.00  0.00     0.035 A 
HETATM    2  C   UNL     1     -43.323  56.317 -53.471  1.00  0.00     0.046 A 
HETATM    3  C   UNL     1     -44.213  57.350 -53.803  1.00  0.00     0.034 A 
HETATM    4  C   UNL     1     -44.948  57.972 -52.782  1.00  0.00     0.017 A 
HETATM    5  C   UNL     1     -44.804  57.573 -51.456  1.00  0.00     0.003 A 
HETATM    6  C   UNL     1     -43.918  56.548 -51.138  1.00  0.00     0.029 A 
ENDROOT
BRANCH   1   7
HETATM    7  N   UNL     1     -42.301  54.890 -51.719  1.00  0.00    -0.327 N 
HETATM    8  C   UNL     1     -41.111  54.992 -51.025  1.00  0.00     0.227 C 
HETATM    9  O   UNL     1     -40.595  56.042 -50.641  1.00  0.00    -0.273 OA
HETATM   10  H   UNL     1     -42.620  53.930 -51.875  1.00  0.00     0.169 HD
BRANCH   8  11
HETATM   11  C   UNL     1     -40.380  53.665 -50.842  1.00  0.00     0.164 C 
BRANCH  11  12
HETATM   12  C   UNL     1     -40.214  52.866 -52.096  1.00  0.00     0.065 A 
HETATM   13  N   UNL     1     -40.354  53.441 -53.303  1.00  0.00    -0.179 NA
HETATM   14  N   UNL     1     -40.090  52.446 -54.170  1.00  0.00    -0.282 N 
HETATM   15  C   UNL     1     -39.784  51.261 -53.565  1.00  0.00     0.026 A 
HETATM   16  H   UNL     1     -40.127  52.650 -55.164  1.00  0.00     0.189 HD
HETATM   17  C   UNL     1     -39.446  50.039 -54.331  1.00  0.00     0.070 C 
HETATM   18  C   UNL     1     -39.864  51.500 -52.212  1.00  0.00     0.055 A 
ENDBRANCH  11  12
ENDBRANCH   8  11
ENDBRANCH   1   7
BRANCH   3  19
HETATM   19  C   UNL     1     -44.460  57.819 -55.202  1.00  0.00     0.252 C 
HETATM   20  N   UNL     1     -43.547  57.485 -56.180  1.00  0.00    -0.353 N 
HETATM   21  H   UNL     1     -42.638  57.117 -55.940  1.00  0.00     0.163 HD
HETATM   22  O   UNL     1     -45.462  58.487 -55.447  1.00  0.00    -0.268 OA
BRANCH  20  23
HETATM   23  C   UNL     1     -43.722  57.979 -57.531  1.00  0.00     0.161 C 
BRANCH  23  24
HETATM   24  C   UNL     1     -44.320  56.960 -58.468  1.00  0.00    -0.041 A 
HETATM   25  C   UNL     1     -45.541  57.188 -59.121  1.00  0.00     0.009 A 
HETATM   26  C   UNL     1     -46.039  56.262 -60.040  1.00  0.00     0.001 A 
HETATM   27  C   UNL     1     -45.315  55.109 -60.334  1.00  0.00     0.000 A 
HETATM   28  C   UNL     1     -44.093  54.879 -59.708  1.00  0.00     0.001 A 
HETATM   29  C   UNL     1     -43.596  55.800 -58.783  1.00  0.00     0.009 A 
ENDBRANCH  23  24
ENDBRANCH  20  23
ENDBRANCH   3  19
TORSDOF 6
ENDMDL
MODEL 6
REMARK VINA RESULT:      -7.4     15.216     18.998
REMARK  6 active torsions:
REMARK  status: ('A' for Active; 'I' for Inactive)
REMARK    1  A    between atoms: C_6  and  C_7 
REMARK    2  A    between atoms: C_7  and  C_8 
REMARK       I    between atoms: C_8  and  N_9 
REMARK    3  A    between atoms: N_9  and  C_10 
REMARK    4  A    between atoms: C_12  and  C_13 
REMARK       I    between atoms: C_13  and  N_14 
REMARK    5  A    between atoms: N_14  and  C_15 
REMARK    6  A    between atoms: C_15  and  C_16 
ROOT
HETATM    1  C   UNL     1     -34.181  40.204 -51.183  1.00  0.00     0.035 A 
HETATM    2  C   UNL     1     -35.070  39.788 -52.182  1.00  0.00     0.046 A 
HETATM    3  C   UNL     1     -35.779  40.732 -52.940  1.00  0.00     0.034 A 
HETATM    4  C   UNL     1     -35.590  42.098 -52.679  1.00  0.00     0.017 A 
HETATM    5  C   UNL     1     -34.715  42.518 -51.681  1.00  0.00     0.003 A 
HETATM    6  C   UNL     1     -34.017  41.573 -50.935  1.00  0.00     0.029 A 
ENDROOT
BRANCH   1   7
HETATM    7  N   UNL     1     -33.434  39.327 -50.376  1.00  0.00    -0.327 N 
HETATM    8  C   UNL     1     -33.837  38.632 -49.251  1.00  0.00     0.227 C 
HETATM    9  O   UNL     1     -34.964  38.666 -48.757  1.00  0.00    -0.273 OA
HETATM   10  H   UNL     1     -32.487  39.105 -50.694  1.00  0.00     0.169 HD
BRANCH   8  11
HETATM   11  C   UNL     1     -32.718  37.859 -48.561  1.00  0.00     0.164 C 
BRANCH  11  12
HETATM   12  C   UNL     1     -31.753  38.709 -47.795  1.00  0.00     0.065 A 
HETATM   13  N   UNL     1     -31.038  39.666 -48.411  1.00  0.00    -0.179 NA
HETATM   14  N   UNL     1     -30.336  40.239 -47.416  1.00  0.00    -0.282 N 
HETATM   15  C   UNL     1     -30.576  39.689 -46.190  1.00  0.00     0.026 A 
HETATM   16  H   UNL     1     -29.717  41.010 -47.645  1.00  0.00     0.189 HD
HETATM   17  C   UNL     1     -29.921  40.176 -44.955  1.00  0.00     0.070 C 
HETATM   18  C   UNL     1     -31.491  38.683 -46.405  1.00  0.00     0.055 A 
ENDBRANCH  11  12
ENDBRANCH   8  11
ENDBRANCH   1   7
BRANCH   3  19
HETATM   19  C   UNL     1     -36.766  40.373 -54.005  1.00  0.00     0.252 C 
HETATM   20  N   UNL     1     -37.559  41.370 -54.533  1.00  0.00    -0.353 N 
HETATM   21  H   UNL     1     -37.629  42.272 -54.085  1.00  0.00     0.163 HD
HETATM   22  O   UNL     1     -36.848  39.206 -54.383  1.00  0.00    -0.268 OA
BRANCH  20  23
HETATM   23  C   UNL     1     -38.569  41.042 -55.519  1.00  0.00     0.161 C 
BRANCH  23  24
HETATM   24  C   UNL     1     -38.048  41.045 -56.934  1.00  0.00    -0.041 A 
HETATM   25  C   UNL     1     -38.377  40.027 -57.842  1.00  0.00     0.009 A 
HETATM   26  C   UNL     1     -37.943  40.088 -59.167  1.00  0.00     0.001 A 
HETATM   27  C   UNL     1     -37.192  41.176 -59.608  1.00  0.00     0.000 A 
HETATM   28  C   UNL     1     -36.875  42.204 -58.724  1.00  0.00     0.001 A 
HETATM   29  C   UNL     1     -37.302  42.141 -57.396  1.00  0.00     0.009 A 
ENDBRANCH  23  24
ENDBRANCH  20  23
ENDBRANCH   3  19
TORSDOF 6
ENDMDL
MODEL 7
REMARK VINA RESULT:      -7.4     15.185     18.529
REMARK  6 active torsions:
REMARK  status: ('A' for Active; 'I' for Inactive)
REMARK    1  A    between atoms: C_6  and  C_7 
REMARK    2  A    between atoms: C_7  and  C_8 
REMARK       I    between atoms: C_8  and  N_9 
REMARK    3  A    between atoms: N_9  and  C_10 
REMARK    4  A    between atoms: C_12  and  C_13 
REMARK       I    between atoms: C_13  and  N_14 
REMARK    5  A    between atoms: N_14  and  C_15 
REMARK    6  A    between atoms: C_15  and  C_16 
ROOT
HETATM    1  C   UNL     1     -35.057  41.489 -55.813  1.00  0.00     0.035 A 
HETATM    2  C   UNL     1     -35.241  41.111 -57.149  1.00  0.00     0.046 A 
HETATM    3  C   UNL     1     -36.452  41.384 -57.804  1.00  0.00     0.034 A 
HETATM    4  C   UNL     1     -37.477  42.036 -57.101  1.00  0.00     0.017 A 
HETATM    5  C   UNL     1     -37.304  42.405 -55.769  1.00  0.00     0.003 A 
HETATM    6  C   UNL     1     -36.099  42.129 -55.129  1.00  0.00     0.029 A 
ENDROOT
BRANCH   1   7
HETATM    7  N   UNL     1     -33.880  41.251 -55.080  1.00  0.00    -0.327 N 
HETATM    8  C   UNL     1     -33.350  40.046 -54.663  1.00  0.00     0.227 C 
HETATM    9  O   UNL     1     -33.839  38.937 -54.880  1.00  0.00    -0.273 OA
HETATM   10  H   UNL     1     -33.288  42.063 -54.888  1.00  0.00     0.169 HD
BRANCH   8  11
HETATM   11  C   UNL     1     -32.110  40.179 -53.785  1.00  0.00     0.164 C 
BRANCH  11  12
HETATM   12  C   UNL     1     -32.392  40.279 -52.319  1.00  0.00     0.065 A 
HETATM   13  N   UNL     1     -33.499  40.896 -51.871  1.00  0.00    -0.179 NA
HETATM   14  N   UNL     1     -33.438  40.746 -50.535  1.00  0.00    -0.282 N 
HETATM   15  C   UNL     1     -32.338  40.055 -50.112  1.00  0.00     0.026 A 
HETATM   16  H   UNL     1     -34.188  41.133 -49.970  1.00  0.00     0.189 HD
HETATM   17  C   UNL     1     -32.080  39.763 -48.684  1.00  0.00     0.070 C 
HETATM   18  C   UNL     1     -31.632  39.743 -51.252  1.00  0.00     0.055 A 
ENDBRANCH  11  12
ENDBRANCH   8  11
ENDBRANCH   1   7
BRANCH   3  19
HETATM   19  C   UNL     1     -36.740  40.992 -59.219  1.00  0.00     0.252 C 
HETATM   20  N   UNL     1     -36.566  39.675 -59.586  1.00  0.00    -0.353 N 
HETATM   21  H   UNL     1     -36.067  39.029 -58.991  1.00  0.00     0.163 HD
HETATM   22  O   UNL     1     -37.121  41.846 -60.016  1.00  0.00    -0.268 OA
BRANCH  20  23
HETATM   23  C   UNL     1     -36.773  39.276 -60.963  1.00  0.00     0.161 C 
BRANCH  23  24
HETATM   24  C   UNL     1     -38.111  38.624 -61.203  1.00  0.00    -0.041 A 
HETATM   25  C   UNL     1     -39.049  38.467 -60.171  1.00  0.00     0.009 A 
HETATM   26  C   UNL     1     -40.310  37.927 -60.432  1.00  0.00     0.001 A 
HETATM   27  C   UNL     1     -40.657  37.556 -61.729  1.00  0.00     0.000 A 
HETATM   28  C   UNL     1     -39.745  37.724 -62.767  1.00  0.00     0.001 A 
HETATM   29  C   UNL     1     -38.480  38.258 -62.507  1.00  0.00     0.009 A 
ENDBRANCH  23  24
ENDBRANCH  20  23
ENDBRANCH   3  19
TORSDOF 6
ENDMDL
MODEL 8
REMARK VINA RESULT:      -7.4     15.026     17.808
REMARK  6 active torsions:
REMARK  status: ('A' for Active; 'I' for Inactive)
REMARK    1  A    between atoms: C_6  and  C_7 
REMARK    2  A    between atoms: C_7  and  C_8 
REMARK       I    between atoms: C_8  and  N_9 
REMARK    3  A    between atoms: N_9  and  C_10 
REMARK    4  A    between atoms: C_12  and  C_13 
REMARK       I    between atoms: C_13  and  N_14 
REMARK    5  A    between atoms: N_14  and  C_15 
REMARK    6  A    between atoms: C_15  and  C_16 
ROOT
HETATM    1  C   UNL     1     -34.247  40.290 -52.801  1.00  0.00     0.035 A 
HETATM    2  C   UNL     1     -34.387  39.810 -51.493  1.00  0.00     0.046 A 
HETATM    3  C   UNL     1     -33.254  39.560 -50.703  1.00  0.00     0.034 A 
HETATM    4  C   UNL     1     -31.980  39.791 -51.244  1.00  0.00     0.017 A 
HETATM    5  C   UNL     1     -31.834  40.259 -52.548  1.00  0.00     0.003 A 
HETATM    6  C   UNL     1     -32.965  40.504 -53.322  1.00  0.00     0.029 A 
ENDROOT
BRANCH   1   7
HETATM    7  N   UNL     1     -35.327  40.563 -53.661  1.00  0.00    -0.327 N 
HETATM    8  C   UNL     1     -36.065  41.724 -53.780  1.00  0.00     0.227 C 
HETATM    9  O   UNL     1     -35.887  42.754 -53.129  1.00  0.00    -0.273 OA
HETATM   10  H   UNL     1     -35.559  39.841 -54.348  1.00  0.00     0.169 HD
BRANCH   8  11
HETATM   11  C   UNL     1     -37.243  41.619 -54.743  1.00  0.00     0.164 C 
BRANCH  11  12
HETATM   12  C   UNL     1     -36.896  41.843 -56.181  1.00  0.00     0.065 A 
HETATM   13  N   UNL     1     -35.629  42.096 -56.552  1.00  0.00    -0.179 NA
HETATM   14  N   UNL     1     -35.694  42.189 -57.893  1.00  0.00    -0.282 N 
HETATM   15  C   UNL     1     -36.951  42.002 -58.393  1.00  0.00     0.026 A 
HETATM   16  H   UNL     1     -34.838  42.373 -58.406  1.00  0.00     0.189 HD
HETATM   17  C   UNL     1     -37.246  42.048 -59.843  1.00  0.00     0.070 C 
HETATM   18  C   UNL     1     -37.758  41.782 -57.301  1.00  0.00     0.055 A 
ENDBRANCH  11  12
ENDBRANCH   8  11
ENDBRANCH   1   7
BRANCH   3  19
HETATM   19  C   UNL     1     -33.314  39.022 -49.308  1.00  0.00     0.252 C 
HETATM   20  N   UNL     1     -32.137  38.891 -48.601  1.00  0.00    -0.353 N 
HETATM   21  H   UNL     1     -31.242  38.955 -49.064  1.00  0.00     0.163 HD
HETATM   22  O   UNL     1     -34.401  38.712 -48.828  1.00  0.00    -0.268 OA
BRANCH  20  23
HETATM   23  C   UNL     1     -32.154  38.312 -47.273  1.00  0.00     0.161 C 
BRANCH  23  24
HETATM   24  C   UNL     1     -31.290  39.055 -46.285  1.00  0.00    -0.041 A 
HETATM   25  C   UNL     1     -30.502  40.149 -46.674  1.00  0.00     0.009 A 
HETATM   26  C   UNL     1     -29.766  40.867 -45.729  1.00  0.00     0.001 A 
HETATM   27  C   UNL     1     -29.823  40.514 -44.383  1.00  0.00     0.000 A 
HETATM   28  C   UNL     1     -30.615  39.443 -43.979  1.00  0.00     0.001 A 
HETATM   29  C   UNL     1     -31.347  38.719 -44.924  1.00  0.00     0.009 A 
ENDBRANCH  23  24
ENDBRANCH  20  23
ENDBRANCH   3  19
TORSDOF 6
ENDMDL
MODEL 9
REMARK VINA RESULT:      -7.3      3.470      5.398
REMARK  6 active torsions:
REMARK  status: ('A' for Active; 'I' for Inactive)
REMARK    1  A    between atoms: C_6  and  C_7 
REMARK    2  A    between atoms: C_7  and  C_8 
REMARK       I    between atoms: C_8  and  N_9 
REMARK    3  A    between atoms: N_9  and  C_10 
REMARK    4  A    between atoms: C_12  and  C_13 
REMARK       I    between atoms: C_13  and  N_14 
REMARK    5  A    between atoms: N_14  and  C_15 
REMARK    6  A    between atoms: C_15  and  C_16 
ROOT
HETATM    1  C   UNL     1     -42.624  57.626 -58.971  1.00  0.00     0.035 A 
HETATM    2  C   UNL     1     -42.472  57.419 -57.595  1.00  0.00     0.046 A 
HETATM    3  C   UNL     1     -42.824  56.189 -57.018  1.00  0.00     0.034 A 
HETATM    4  C   UNL     1     -43.336  55.172 -57.838  1.00  0.00     0.017 A 
HETATM    5  C   UNL     1     -43.499  55.375 -59.206  1.00  0.00     0.003 A 
HETATM    6  C   UNL     1     -43.147  56.599 -59.767  1.00  0.00     0.029 A 
ENDROOT
BRANCH   1   7
HETATM    7  N   UNL     1     -42.301  58.826 -59.629  1.00  0.00    -0.327 N 
HETATM    8  C   UNL     1     -43.139  59.857 -60.010  1.00  0.00     0.227 C 
HETATM    9  O   UNL     1     -44.355  59.895 -59.821  1.00  0.00    -0.273 OA
HETATM   10  H   UNL     1     -41.307  59.010 -59.787  1.00  0.00     0.169 HD
BRANCH   8  11
HETATM   11  C   UNL     1     -42.451  60.957 -60.811  1.00  0.00     0.164 C 
BRANCH  11  12
HETATM   12  C   UNL     1     -41.421  61.732 -60.051  1.00  0.00     0.065 A 
HETATM   13  N   UNL     1     -41.250  61.540 -58.731  1.00  0.00    -0.179 NA
HETATM   14  N   UNL     1     -40.228  62.355 -58.413  1.00  0.00    -0.282 N 
HETATM   15  C   UNL     1     -39.737  63.057 -59.476  1.00  0.00     0.026 A 
HETATM   16  H   UNL     1     -39.909  62.375 -57.449  1.00  0.00     0.189 HD
HETATM   17  C   UNL     1     -38.604  64.002 -59.353  1.00  0.00     0.070 C 
HETATM   18  C   UNL     1     -40.500  62.678 -60.558  1.00  0.00     0.055 A 
ENDBRANCH  11  12
ENDBRANCH   8  11
ENDBRANCH   1   7
BRANCH   3  19
HETATM   19  C   UNL     1     -42.718  55.895 -55.555  1.00  0.00     0.252 C 
HETATM   20  N   UNL     1     -41.469  55.669 -55.016  1.00  0.00    -0.353 N 
HETATM   21  H   UNL     1     -40.669  55.500 -55.609  1.00  0.00     0.163 HD
HETATM   22  O   UNL     1     -43.739  55.860 -54.871  1.00  0.00    -0.268 OA
BRANCH  20  23
HETATM   23  C   UNL     1     -41.340  55.317 -53.617  1.00  0.00     0.161 C 
BRANCH  23  24
HETATM   24  C   UNL     1     -40.709  53.965 -53.396  1.00  0.00    -0.041 A 
HETATM   25  C   UNL     1     -40.421  53.489 -52.108  1.00  0.00     0.009 A 
HETATM   26  C   UNL     1     -39.904  52.205 -51.923  1.00  0.00     0.001 A 
HETATM   27  C   UNL     1     -39.688  51.373 -53.020  1.00  0.00     0.000 A 
HETATM   28  C   UNL     1     -39.987  51.825 -54.302  1.00  0.00     0.001 A 
HETATM   29  C   UNL     1     -40.497  53.111 -54.490  1.00  0.00     0.009 A 
ENDBRANCH  23  24
ENDBRANCH  20  23
ENDBRANCH   3  19
TORSDOF 6
ENDMDL
MODEL 10
REMARK VINA RESULT:      -7.2      1.699      7.653
REMARK  6 active torsions:
REMARK  status: ('A' for Active; 'I' for Inactive)
REMARK    1  A    between atoms: C_6  and  C_7 
REMARK    2  A    between atoms: C_7  and  C_8 
REMARK       I    between atoms: C_8  and  N_9 
REMARK    3  A    between atoms: N_9  and  C_10 
REMARK    4  A    between atoms: C_12  and  C_13 
REMARK       I    between atoms: C_13  and  N_14 
REMARK    5  A    between atoms: N_14  and  C_15 
REMARK    6  A    between atoms: C_15  and  C_16 
ROOT
HETATM    1  C   UNL     1     -42.614  56.444 -52.225  1.00  0.00     0.035 A 
HETATM    2  C   UNL     1     -42.945  56.881 -53.514  1.00  0.00     0.046 A 
HETATM    3  C   UNL     1     -44.018  57.764 -53.710  1.00  0.00     0.034 A 
HETATM    4  C   UNL     1     -44.757  58.199 -52.599  1.00  0.00     0.017 A 
HETATM    5  C   UNL     1     -44.439  57.760 -51.317  1.00  0.00     0.003 A 
HETATM    6  C   UNL     1     -43.373  56.884 -51.133  1.00  0.00     0.029 A 
ENDROOT
BRANCH   1   7
HETATM    7  N   UNL     1     -41.560  55.557 -51.939  1.00  0.00    -0.327 N 
HETATM    8  C   UNL     1     -41.621  54.211 -51.635  1.00  0.00     0.227 C 
HETATM    9  O   UNL     1     -42.650  53.540 -51.569  1.00  0.00    -0.273 OA
HETATM   10  H   UNL     1     -40.611  55.926 -52.039  1.00  0.00     0.169 HD
BRANCH   8  11
HETATM   11  C   UNL     1     -40.275  53.593 -51.267  1.00  0.00     0.164 C 
BRANCH  11  12
HETATM   12  C   UNL     1     -39.978  52.294 -51.947  1.00  0.00     0.065 A 
HETATM   13  N   UNL     1     -39.698  51.191 -51.232  1.00  0.00    -0.179 NA
HETATM   14  N   UNL     1     -39.539  50.231 -52.162  1.00  0.00    -0.282 N 
HETATM   15  C   UNL     1     -39.711  50.677 -53.442  1.00  0.00     0.026 A 
HETATM   16  H   UNL     1     -39.324  49.289 -51.852  1.00  0.00     0.189 HD
HETATM   17  C   UNL     1     -39.595  49.785 -54.618  1.00  0.00     0.070 C 
HETATM   18  C   UNL     1     -39.990  52.020 -53.335  1.00  0.00     0.055 A 
ENDBRANCH  11  12
ENDBRANCH   8  11
ENDBRANCH   1   7
BRANCH   3  19
HETATM   19  C   UNL     1     -44.454  58.258 -55.054  1.00  0.00     0.252 C 
HETATM   20  N   UNL     1     -44.642  57.340 -56.065  1.00  0.00    -0.353 N 
HETATM   21  H   UNL     1     -44.303  56.393 -55.978  1.00  0.00     0.163 HD
HETATM   22  O   UNL     1     -44.633  59.462 -55.225  1.00  0.00    -0.268 OA
BRANCH  20  23
HETATM   23  C   UNL     1     -45.000  57.793 -57.393  1.00  0.00     0.161 C 
BRANCH  23  24
HETATM   24  C   UNL     1     -43.851  57.752 -58.370  1.00  0.00    -0.041 A 
HETATM   25  C   UNL     1     -43.460  56.559 -58.997  1.00  0.00     0.009 A 
HETATM   26  C   UNL     1     -42.442  56.558 -59.952  1.00  0.00     0.001 A 
HETATM   27  C   UNL     1     -41.814  57.750 -60.307  1.00  0.00     0.000 A 
HETATM   28  C   UNL     1     -42.204  58.945 -59.707  1.00  0.00     0.001 A 
HETATM   29  C   UNL     1     -43.218  58.947 -58.746  1.00  0.00     0.009 A 
ENDBRANCH  23  24
ENDBRANCH  20  23
ENDBRANCH   3  19
TORSDOF 6
ENDMDL
