MODEL 1
REMARK VINA RESULT:     -10.4      0.000      0.000
REMARK  8 active torsions:
REMARK  status: ('A' for Active; 'I' for Inactive)
REMARK    1  A    between atoms: C_4  and  N_5 
REMARK       I    between atoms: N_5  and  C_6 
REMARK    2  A    between atoms: C_6  and  C_7 
REMARK    3  A    between atoms: C_7  and  N_8 
REMARK    4  A    between atoms: N_11  and  C_12 
REMARK    5  A    between atoms: C_12  and  C_13 
REMARK    6  A    between atoms: C_16  and  C_17 
REMARK       I    between atoms: C_17  and  N_18 
REMARK    7  A    between atoms: N_18  and  C_19 
REMARK    8  A    between atoms: C_19  and  C_20 
ROOT
HETATM    1  N   UNL     1     -43.367  57.078 -55.143  1.00  0.00    -0.290 N 
HETATM    2  C   UNL     1     -42.744  57.812 -54.127  1.00  0.00     0.332 C 
HETATM    3  O   UNL     1     -42.588  57.322 -53.008  1.00  0.00    -0.246 OA
HETATM    4  N   UNL     1     -42.332  59.101 -54.449  1.00  0.00    -0.261 N 
HETATM    5  C   UNL     1     -42.183  59.562 -55.744  1.00  0.00     0.264 C 
HETATM    6  O   UNL     1     -41.806  60.694 -56.037  1.00  0.00    -0.267 OA
HETATM    7  C   UNL     1     -42.442  58.594 -56.817  1.00  0.00     0.059 A 
HETATM    8  C   UNL     1     -43.040  57.371 -56.507  1.00  0.00     0.055 A 
HETATM    9  C   UNL     1     -42.024  58.901 -58.123  1.00  0.00     0.019 A 
HETATM   10  C   UNL     1     -42.191  57.973 -59.144  1.00  0.00     0.001 A 
HETATM   11  C   UNL     1     -42.791  56.753 -58.861  1.00  0.00     0.002 A 
HETATM   12  C   UNL     1     -43.220  56.458 -57.559  1.00  0.00     0.031 A 
ENDROOT
BRANCH   4  13
HETATM   13  C   UNL     1     -41.797  59.943 -53.380  1.00  0.00     0.175 C 
BRANCH  13  14
HETATM   14  C   UNL     1     -42.873  60.495 -52.473  1.00  0.00    -0.040 A 
HETATM   15  C   UNL     1     -43.761  61.462 -52.969  1.00  0.00     0.010 A 
HETATM   16  C   UNL     1     -44.628  62.125 -52.111  1.00  0.00     0.017 A 
HETATM   17  C   UNL     1     -44.614  61.825 -50.746  1.00  0.00     0.032 A 
HETATM   18  C   UNL     1     -43.808  60.792 -50.256  1.00  0.00     0.017 A 
HETATM   19  C   UNL     1     -42.937  60.128 -51.120  1.00  0.00     0.010 A 
BRANCH  17  20
HETATM   20  C   UNL     1     -45.360  62.675 -49.787  1.00  0.00     0.251 C 
HETATM   21  N   UNL     1     -45.810  61.996 -48.672  1.00  0.00    -0.353 N 
HETATM   22  H   UNL     1     -45.730  60.989 -48.669  1.00  0.00     0.163 HD
HETATM   23  O   UNL     1     -45.602  63.846 -50.043  1.00  0.00    -0.268 OA
BRANCH  21  24
HETATM   24  C   UNL     1     -46.825  62.554 -47.811  1.00  0.00     0.161 C 
BRANCH  24  25
HETATM   25  C   UNL     1     -46.255  62.995 -46.461  1.00  0.00    -0.038 A 
HETATM   26  C   UNL     1     -45.117  62.283 -45.927  1.00  0.00     0.048 A 
HETATM   27  C   UNL     1     -44.794  62.783 -44.693  1.00  0.00     0.105 A 
HETATM   28  C   UNL     1     -45.718  64.150 -43.988  1.00  0.00     0.105 A 
HETATM   29  O   UNL     1     -43.473  62.232 -43.274  1.00  0.00    -0.323 OA
HETATM   30  O   UNL     1     -45.171  64.538 -42.325  1.00  0.00    -0.323 OA
HETATM   31  C   UNL     1     -46.753  64.782 -44.572  1.00  0.00     0.040 A 
HETATM   32  C   UNL     1     -43.760  63.409 -41.754  1.00  0.00     0.352 A 
HETATM   33  C   UNL     1     -46.990  64.168 -45.821  1.00  0.00     0.012 A 
ENDBRANCH  24  25
ENDBRANCH  21  24
ENDBRANCH  17  20
ENDBRANCH  13  14
ENDBRANCH   4  13
BRANCH   1  34
HETATM   34  C   UNL     1     -43.811  55.732 -54.761  1.00  0.00     0.237 C 
BRANCH  34  35
HETATM   35  C   UNL     1     -42.789  54.575 -54.685  1.00  0.00     0.240 C 
HETATM   36  N   UNL     1     -41.810  54.711 -53.715  1.00  0.00    -0.326 N 
HETATM   37  H   UNL     1     -41.666  55.631 -53.321  1.00  0.00     0.169 HD
HETATM   38  O   UNL     1     -43.022  53.546 -55.320  1.00  0.00    -0.271 OA
BRANCH  36  39
HETATM   39  C   UNL     1     -41.050  53.656 -53.129  1.00  0.00     0.035 A 
HETATM   40  C   UNL     1     -40.492  52.331 -54.092  1.00  0.00     0.036 A 
HETATM   41  C   UNL     1     -39.754  50.920 -53.498  1.00  0.00    -0.060 A 
HETATM   42  C   UNL     1     -39.392  49.791 -54.398  1.00  0.00     0.048 C 
HETATM   43  C   UNL     1     -39.553  50.789 -51.783  1.00  0.00     0.007 A 
HETATM   44  C   UNL     1     -40.186  52.371 -50.619  1.00  0.00     0.003 A 
HETATM   45  C   UNL     1     -40.900  53.736 -51.435  1.00  0.00     0.029 A 
ENDBRANCH  36  39
ENDBRANCH  34  35
ENDBRANCH   1  34
TORSDOF 8
ENDMDL
MODEL 2
REMARK VINA RESULT:     -10.2      4.738      9.604
REMARK  8 active torsions:
REMARK  status: ('A' for Active; 'I' for Inactive)
REMARK    1  A    between atoms: C_4  and  N_5 
REMARK       I    between atoms: N_5  and  C_6 
REMARK    2  A    between atoms: C_6  and  C_7 
REMARK    3  A    between atoms: C_7  and  N_8 
REMARK    4  A    between atoms: N_11  and  C_12 
REMARK    5  A    between atoms: C_12  and  C_13 
REMARK    6  A    between atoms: C_16  and  C_17 
REMARK       I    between atoms: C_17  and  N_18 
REMARK    7  A    between atoms: N_18  and  C_19 
REMARK    8  A    between atoms: C_19  and  C_20 
ROOT
HETATM    1  N   UNL     1     -43.075  60.328 -55.631  1.00  0.00    -0.290 N 
HETATM    2  C   UNL     1     -42.528  60.280 -54.344  1.00  0.00     0.332 C 
HETATM    3  O   UNL     1     -41.313  60.162 -54.185  1.00  0.00    -0.246 OA
HETATM    4  N   UNL     1     -43.422  60.360 -53.282  1.00  0.00    -0.261 N 
HETATM    5  C   UNL     1     -44.722  60.818 -53.400  1.00  0.00     0.264 C 
HETATM    6  O   UNL     1     -45.514  60.905 -52.465  1.00  0.00    -0.267 OA
HETATM    7  C   UNL     1     -45.134  61.279 -54.732  1.00  0.00     0.059 A 
HETATM    8  C   UNL     1     -44.314  61.019 -55.831  1.00  0.00     0.055 A 
HETATM    9  C   UNL     1     -46.319  62.026 -54.854  1.00  0.00     0.019 A 
HETATM   10  C   UNL     1     -46.695  62.537 -56.090  1.00  0.00     0.001 A 
HETATM   11  C   UNL     1     -45.899  62.284 -57.200  1.00  0.00     0.002 A 
HETATM   12  C   UNL     1     -44.726  61.525 -57.075  1.00  0.00     0.031 A 
ENDROOT
BRANCH   4  13
HETATM   13  C   UNL     1     -42.904  60.181 -51.926  1.00  0.00     0.175 C 
BRANCH  13  14
HETATM   14  C   UNL     1     -42.652  58.732 -51.580  1.00  0.00    -0.040 A 
HETATM   15  C   UNL     1     -43.713  57.815 -51.648  1.00  0.00     0.010 A 
HETATM   16  C   UNL     1     -43.560  56.527 -51.151  1.00  0.00     0.017 A 
HETATM   17  C   UNL     1     -42.342  56.145 -50.583  1.00  0.00     0.032 A 
HETATM   18  C   UNL     1     -41.248  57.015 -50.603  1.00  0.00     0.017 A 
HETATM   19  C   UNL     1     -41.403  58.309 -51.101  1.00  0.00     0.010 A 
BRANCH  17  20
HETATM   20  C   UNL     1     -42.232  54.862 -49.845  1.00  0.00     0.251 C 
HETATM   21  N   UNL     1     -40.969  54.612 -49.346  1.00  0.00    -0.353 N 
HETATM   22  H   UNL     1     -40.218  55.222 -49.636  1.00  0.00     0.163 HD
HETATM   23  O   UNL     1     -43.179  54.090 -49.784  1.00  0.00    -0.268 OA
BRANCH  21  24
HETATM   24  C   UNL     1     -40.582  53.293 -48.908  1.00  0.00     0.161 C 
BRANCH  24  25
HETATM   25  C   UNL     1     -40.260  52.368 -50.083  1.00  0.00    -0.038 A 
HETATM   26  C   UNL     1     -40.094  52.950 -51.395  1.00  0.00     0.048 A 
HETATM   27  C   UNL     1     -39.871  51.963 -52.318  1.00  0.00     0.105 A 
HETATM   28  C   UNL     1     -39.788  50.242 -51.815  1.00  0.00     0.105 A 
HETATM   29  O   UNL     1     -39.711  51.949 -54.326  1.00  0.00    -0.323 OA
HETATM   30  O   UNL     1     -39.603  49.145 -53.220  1.00  0.00    -0.323 OA
HETATM   31  C   UNL     1     -39.924  49.784 -50.556  1.00  0.00     0.040 A 
HETATM   32  C   UNL     1     -39.536  50.089 -54.861  1.00  0.00     0.352 A 
HETATM   33  C   UNL     1     -40.159  50.892 -49.712  1.00  0.00     0.012 A 
ENDBRANCH  24  25
ENDBRANCH  21  24
ENDBRANCH  17  20
ENDBRANCH  13  14
ENDBRANCH   4  13
BRANCH   1  34
HETATM   34  C   UNL     1     -42.106  60.215 -56.728  1.00  0.00     0.237 C 
BRANCH  34  35
HETATM   35  C   UNL     1     -42.287  59.124 -57.809  1.00  0.00     0.240 C 
HETATM   36  N   UNL     1     -43.258  58.175 -57.536  1.00  0.00    -0.326 N 
HETATM   37  H   UNL     1     -43.581  58.096 -56.581  1.00  0.00     0.169 HD
HETATM   38  O   UNL     1     -41.731  59.281 -58.897  1.00  0.00    -0.271 OA
BRANCH  36  39
HETATM   39  C   UNL     1     -43.935  57.362 -58.492  1.00  0.00     0.035 A 
HETATM   40  C   UNL     1     -45.301  57.973 -59.361  1.00  0.00     0.036 A 
HETATM   41  C   UNL     1     -46.316  57.061 -60.374  1.00  0.00    -0.060 A 
HETATM   42  C   UNL     1     -47.525  57.655 -61.006  1.00  0.00     0.048 C 
HETATM   43  C   UNL     1     -45.963  55.374 -60.543  1.00  0.00     0.007 A 
HETATM   44  C   UNL     1     -44.321  54.631 -59.538  1.00  0.00     0.003 A 
HETATM   45  C   UNL     1     -43.399  55.747 -58.566  1.00  0.00     0.029 A 
ENDBRANCH  36  39
ENDBRANCH  34  35
ENDBRANCH   1  34
TORSDOF 8
ENDMDL
MODEL 3
REMARK VINA RESULT:      -9.5      3.639     11.960
REMARK  8 active torsions:
REMARK  status: ('A' for Active; 'I' for Inactive)
REMARK    1  A    between atoms: C_4  and  N_5 
REMARK       I    between atoms: N_5  and  C_6 
REMARK    2  A    between atoms: C_6  and  C_7 
REMARK    3  A    between atoms: C_7  and  N_8 
REMARK    4  A    between atoms: N_11  and  C_12 
REMARK    5  A    between atoms: C_12  and  C_13 
REMARK    6  A    between atoms: C_16  and  C_17 
REMARK       I    between atoms: C_17  and  N_18 
REMARK    7  A    between atoms: N_18  and  C_19 
REMARK    8  A    between atoms: C_19  and  C_20 
ROOT
HETATM    1  N   UNL     1     -46.576  63.617 -50.072  1.00  0.00    -0.290 N 
HETATM    2  C   UNL     1     -45.268  63.378 -50.510  1.00  0.00     0.332 C 
HETATM    3  O   UNL     1     -44.832  63.943 -51.514  1.00  0.00    -0.246 OA
HETATM    4  N   UNL     1     -44.514  62.477 -49.766  1.00  0.00    -0.261 N 
HETATM    5  C   UNL     1     -44.831  62.085 -48.477  1.00  0.00     0.264 C 
HETATM    6  O   UNL     1     -44.164  61.301 -47.808  1.00  0.00    -0.267 OA
HETATM    7  C   UNL     1     -46.017  62.710 -47.877  1.00  0.00     0.059 A 
HETATM    8  C   UNL     1     -46.880  63.456 -48.681  1.00  0.00     0.055 A 
HETATM    9  C   UNL     1     -46.218  62.589 -46.491  1.00  0.00     0.019 A 
HETATM   10  C   UNL     1     -47.292  63.230 -45.885  1.00  0.00     0.001 A 
HETATM   11  C   UNL     1     -48.168  63.973 -46.667  1.00  0.00     0.002 A 
HETATM   12  C   UNL     1     -47.971  64.077 -48.051  1.00  0.00     0.031 A 
ENDROOT
BRANCH   4  13
HETATM   13  C   UNL     1     -43.192  62.103 -50.265  1.00  0.00     0.175 C 
BRANCH  13  14
HETATM   14  C   UNL     1     -43.119  60.661 -50.712  1.00  0.00    -0.040 A 
HETATM   15  C   UNL     1     -41.870  60.022 -50.771  1.00  0.00     0.010 A 
HETATM   16  C   UNL     1     -41.750  58.770 -51.360  1.00  0.00     0.017 A 
HETATM   17  C   UNL     1     -42.880  58.145 -51.894  1.00  0.00     0.032 A 
HETATM   18  C   UNL     1     -44.144  58.725 -51.749  1.00  0.00     0.017 A 
HETATM   19  C   UNL     1     -44.264  59.983 -51.159  1.00  0.00     0.010 A 
BRANCH  17  20
HETATM   20  C   UNL     1     -42.737  56.924 -52.724  1.00  0.00     0.251 C 
HETATM   21  N   UNL     1     -41.445  56.686 -53.149  1.00  0.00    -0.353 N 
HETATM   22  H   UNL     1     -40.757  57.410 -52.993  1.00  0.00     0.163 HD
HETATM   23  O   UNL     1     -43.716  56.266 -53.047  1.00  0.00    -0.268 OA
BRANCH  21  24
HETATM   24  C   UNL     1     -41.165  55.764 -54.222  1.00  0.00     0.161 C 
BRANCH  24  25
HETATM   25  C   UNL     1     -40.695  54.404 -53.703  1.00  0.00    -0.038 A 
HETATM   26  C   UNL     1     -40.428  53.354 -54.660  1.00  0.00     0.048 A 
HETATM   27  C   UNL     1     -40.078  52.204 -54.003  1.00  0.00     0.105 A 
HETATM   28  C   UNL     1     -39.973  52.168 -52.212  1.00  0.00     0.105 A 
HETATM   29  O   UNL     1     -39.727  50.313 -54.606  1.00  0.00    -0.323 OA
HETATM   30  O   UNL     1     -39.610  50.524 -51.598  1.00  0.00    -0.323 OA
HETATM   31  C   UNL     1     -40.209  53.208 -51.391  1.00  0.00     0.040 A 
HETATM   32  C   UNL     1     -39.427  49.261 -53.000  1.00  0.00     0.352 A 
HETATM   33  C   UNL     1     -40.569  54.319 -52.185  1.00  0.00     0.012 A 
ENDBRANCH  24  25
ENDBRANCH  21  24
ENDBRANCH  17  20
ENDBRANCH  13  14
ENDBRANCH   4  13
BRANCH   1  34
HETATM   34  C   UNL     1     -47.351  64.553 -50.896  1.00  0.00     0.237 C 
BRANCH  34  35
HETATM   35  C   UNL     1     -48.205  64.022 -52.071  1.00  0.00     0.240 C 
HETATM   36  N   UNL     1     -49.172  63.092 -51.728  1.00  0.00    -0.326 N 
HETATM   37  H   UNL     1     -49.087  62.637 -50.829  1.00  0.00     0.169 HD
HETATM   38  O   UNL     1     -48.120  64.592 -53.159  1.00  0.00    -0.271 OA
BRANCH  36  39
HETATM   39  C   UNL     1     -50.348  62.785 -52.473  1.00  0.00     0.035 A 
HETATM   40  C   UNL     1     -50.235  62.161 -54.083  1.00  0.00     0.036 A 
HETATM   41  C   UNL     1     -51.539  61.939 -55.151  1.00  0.00    -0.060 A 
HETATM   42  C   UNL     1     -51.331  61.484 -56.553  1.00  0.00     0.048 C 
HETATM   43  C   UNL     1     -53.114  62.386 -54.586  1.00  0.00     0.007 A 
HETATM   44  C   UNL     1     -53.274  63.105 -52.659  1.00  0.00     0.003 A 
HETATM   45  C   UNL     1     -51.810  63.234 -51.723  1.00  0.00     0.029 A 
ENDBRANCH  36  39
ENDBRANCH  34  35
ENDBRANCH   1  34
TORSDOF 8
ENDMDL
MODEL 4
REMARK VINA RESULT:      -9.3      4.278      6.297
REMARK  8 active torsions:
REMARK  status: ('A' for Active; 'I' for Inactive)
REMARK    1  A    between atoms: C_4  and  N_5 
REMARK       I    between atoms: N_5  and  C_6 
REMARK    2  A    between atoms: C_6  and  C_7 
REMARK    3  A    between atoms: C_7  and  N_8 
REMARK    4  A    between atoms: N_11  and  C_12 
REMARK    5  A    between atoms: C_12  and  C_13 
REMARK    6  A    between atoms: C_16  and  C_17 
REMARK       I    between atoms: C_17  and  N_18 
REMARK    7  A    between atoms: N_18  and  C_19 
REMARK    8  A    between atoms: C_19  and  C_20 
ROOT
HETATM    1  N   UNL     1     -43.426  57.095 -55.326  1.00  0.00    -0.290 N 
HETATM    2  C   UNL     1     -42.889  57.950 -54.357  1.00  0.00     0.332 C 
HETATM    3  O   UNL     1     -42.794  57.586 -53.185  1.00  0.00    -0.246 OA
HETATM    4  N   UNL     1     -42.489  59.210 -54.789  1.00  0.00    -0.261 N 
HETATM    5  C   UNL     1     -42.268  59.538 -56.114  1.00  0.00     0.264 C 
HETATM    6  O   UNL     1     -41.902  60.644 -56.503  1.00  0.00    -0.267 OA
HETATM    7  C   UNL     1     -42.433  58.454 -57.092  1.00  0.00     0.059 A 
HETATM    8  C   UNL     1     -43.019  57.253 -56.691  1.00  0.00     0.055 A 
HETATM    9  C   UNL     1     -41.938  58.636 -58.395  1.00  0.00     0.019 A 
HETATM   10  C   UNL     1     -42.015  57.602 -59.319  1.00  0.00     0.001 A 
HETATM   11  C   UNL     1     -42.602  56.399 -58.945  1.00  0.00     0.002 A 
HETATM   12  C   UNL     1     -43.107  56.229 -57.648  1.00  0.00     0.031 A 
ENDROOT
BRANCH   4  13
HETATM   13  C   UNL     1     -42.046  60.177 -53.785  1.00  0.00     0.175 C 
BRANCH  13  14
HETATM   14  C   UNL     1     -43.155  61.095 -53.324  1.00  0.00    -0.040 A 
HETATM   15  C   UNL     1     -44.345  60.539 -52.827  1.00  0.00     0.010 A 
HETATM   16  C   UNL     1     -45.448  61.347 -52.581  1.00  0.00     0.017 A 
HETATM   17  C   UNL     1     -45.368  62.720 -52.829  1.00  0.00     0.032 A 
HETATM   18  C   UNL     1     -44.158  63.299 -53.225  1.00  0.00     0.017 A 
HETATM   19  C   UNL     1     -43.052  62.486 -53.473  1.00  0.00     0.010 A 
BRANCH  17  20
HETATM   20  C   UNL     1     -46.591  63.558 -52.793  1.00  0.00     0.251 C 
HETATM   21  N   UNL     1     -47.749  62.846 -52.549  1.00  0.00    -0.353 N 
HETATM   22  H   UNL     1     -47.693  61.838 -52.562  1.00  0.00     0.163 HD
HETATM   23  O   UNL     1     -46.541  64.754 -53.047  1.00  0.00    -0.268 OA
BRANCH  21  24
HETATM   24  C   UNL     1     -49.049  63.413 -52.811  1.00  0.00     0.161 C 
BRANCH  24  25
HETATM   25  C   UNL     1     -49.786  62.671 -53.928  1.00  0.00    -0.038 A 
HETATM   26  C   UNL     1     -51.032  62.012 -53.613  1.00  0.00     0.048 A 
HETATM   27  C   UNL     1     -51.505  61.358 -54.721  1.00  0.00     0.105 A 
HETATM   28  C   UNL     1     -50.615  61.432 -56.277  1.00  0.00     0.105 A 
HETATM   29  O   UNL     1     -53.054  60.109 -55.040  1.00  0.00    -0.323 OA
HETATM   30  O   UNL     1     -51.378  60.405 -57.532  1.00  0.00    -0.323 OA
HETATM   31  C   UNL     1     -49.467  62.101 -56.494  1.00  0.00     0.040 A 
HETATM   32  C   UNL     1     -52.925  59.519 -56.888  1.00  0.00     0.352 A 
HETATM   33  C   UNL     1     -49.084  62.715 -55.281  1.00  0.00     0.012 A 
ENDBRANCH  24  25
ENDBRANCH  21  24
ENDBRANCH  17  20
ENDBRANCH  13  14
ENDBRANCH   4  13
BRANCH   1  34
HETATM   34  C   UNL     1     -43.861  55.783 -54.831  1.00  0.00     0.237 C 
BRANCH  34  35
HETATM   35  C   UNL     1     -42.851  54.613 -54.756  1.00  0.00     0.240 C 
HETATM   36  N   UNL     1     -41.835  54.766 -53.827  1.00  0.00    -0.326 N 
HETATM   37  H   UNL     1     -41.664  55.696 -53.469  1.00  0.00     0.169 HD
HETATM   38  O   UNL     1     -43.122  53.568 -55.348  1.00  0.00    -0.271 OA
BRANCH  36  39
HETATM   39  C   UNL     1     -41.068  53.720 -53.237  1.00  0.00     0.035 A 
HETATM   40  C   UNL     1     -40.517  52.384 -54.190  1.00  0.00     0.036 A 
HETATM   41  C   UNL     1     -39.771  50.981 -53.586  1.00  0.00    -0.060 A 
HETATM   42  C   UNL     1     -39.416  49.841 -54.476  1.00  0.00     0.048 C 
HETATM   43  C   UNL     1     -39.552  50.871 -51.872  1.00  0.00     0.007 A 
HETATM   44  C   UNL     1     -40.176  52.466 -50.721  1.00  0.00     0.003 A 
HETATM   45  C   UNL     1     -40.900  53.820 -51.545  1.00  0.00     0.029 A 
ENDBRANCH  36  39
ENDBRANCH  34  35
ENDBRANCH   1  34
TORSDOF 8
ENDMDL
MODEL 5
REMARK VINA RESULT:      -9.3      4.217     11.614
REMARK  8 active torsions:
REMARK  status: ('A' for Active; 'I' for Inactive)
REMARK    1  A    between atoms: C_4  and  N_5 
REMARK       I    between atoms: N_5  and  C_6 
REMARK    2  A    between atoms: C_6  and  C_7 
REMARK    3  A    between atoms: C_7  and  N_8 
REMARK    4  A    between atoms: N_11  and  C_12 
REMARK    5  A    between atoms: C_12  and  C_13 
REMARK    6  A    between atoms: C_16  and  C_17 
REMARK       I    between atoms: C_17  and  N_18 
REMARK    7  A    between atoms: N_18  and  C_19 
REMARK    8  A    between atoms: C_19  and  C_20 
ROOT
HETATM    1  N   UNL     1     -46.718  63.000 -51.533  1.00  0.00    -0.290 N 
HETATM    2  C   UNL     1     -45.477  62.956 -52.177  1.00  0.00     0.332 C 
HETATM    3  O   UNL     1     -45.310  63.530 -53.254  1.00  0.00    -0.246 OA
HETATM    4  N   UNL     1     -44.470  62.234 -51.545  1.00  0.00    -0.261 N 
HETATM    5  C   UNL     1     -44.504  61.866 -50.212  1.00  0.00     0.264 C 
HETATM    6  O   UNL     1     -43.613  61.241 -49.643  1.00  0.00    -0.267 OA
HETATM    7  C   UNL     1     -45.668  62.319 -49.439  1.00  0.00     0.059 A 
HETATM    8  C   UNL     1     -46.763  62.868 -50.107  1.00  0.00     0.055 A 
HETATM    9  C   UNL     1     -45.621  62.242 -48.036  1.00  0.00     0.019 A 
HETATM   10  C   UNL     1     -46.677  62.730 -47.277  1.00  0.00     0.001 A 
HETATM   11  C   UNL     1     -47.782  63.274 -47.920  1.00  0.00     0.002 A 
HETATM   12  C   UNL     1     -47.830  63.334 -49.320  1.00  0.00     0.031 A 
ENDROOT
BRANCH   4  13
HETATM   13  C   UNL     1     -43.200  62.057 -52.249  1.00  0.00     0.175 C 
BRANCH  13  14
HETATM   14  C   UNL     1     -43.191  60.841 -53.146  1.00  0.00    -0.040 A 
HETATM   15  C   UNL     1     -43.407  59.572 -52.586  1.00  0.00     0.010 A 
HETATM   16  C   UNL     1     -43.211  58.426 -53.347  1.00  0.00     0.017 A 
HETATM   17  C   UNL     1     -42.799  58.542 -54.678  1.00  0.00     0.032 A 
HETATM   18  C   UNL     1     -42.682  59.801 -55.276  1.00  0.00     0.017 A 
HETATM   19  C   UNL     1     -42.877  60.950 -54.509  1.00  0.00     0.010 A 
BRANCH  17  20
HETATM   20  C   UNL     1     -42.366  57.341 -55.433  1.00  0.00     0.251 C 
HETATM   21  N   UNL     1     -41.965  56.292 -54.631  1.00  0.00    -0.353 N 
HETATM   22  H   UNL     1     -41.860  56.468 -53.641  1.00  0.00     0.163 HD
HETATM   23  O   UNL     1     -42.307  57.356 -56.655  1.00  0.00    -0.268 OA
BRANCH  21  24
HETATM   24  C   UNL     1     -41.203  55.188 -55.162  1.00  0.00     0.161 C 
BRANCH  24  25
HETATM   25  C   UNL     1     -40.817  54.181 -54.077  1.00  0.00    -0.038 A 
HETATM   26  C   UNL     1     -40.337  52.880 -54.482  1.00  0.00     0.048 A 
HETATM   27  C   UNL     1     -40.102  52.105 -53.376  1.00  0.00     0.105 A 
HETATM   28  C   UNL     1     -40.363  52.762 -51.726  1.00  0.00     0.105 A 
HETATM   29  O   UNL     1     -39.592  50.173 -53.116  1.00  0.00    -0.323 OA
HETATM   30  O   UNL     1     -40.095  51.519 -50.463  1.00  0.00    -0.323 OA
HETATM   31  C   UNL     1     -40.786  54.006 -51.434  1.00  0.00     0.040 A 
HETATM   32  C   UNL     1     -39.601  49.845 -51.201  1.00  0.00     0.352 A 
HETATM   33  C   UNL     1     -41.001  54.690 -52.651  1.00  0.00     0.012 A 
ENDBRANCH  24  25
ENDBRANCH  21  24
ENDBRANCH  17  20
ENDBRANCH  13  14
ENDBRANCH   4  13
BRANCH   1  34
HETATM   34  C   UNL     1     -47.764  63.749 -52.240  1.00  0.00     0.237 C 
BRANCH  34  35
HETATM   35  C   UNL     1     -48.776  63.000 -53.139  1.00  0.00     0.240 C 
HETATM   36  N   UNL     1     -50.061  62.902 -52.632  1.00  0.00    -0.326 N 
HETATM   37  H   UNL     1     -50.189  63.074 -51.644  1.00  0.00     0.169 HD
HETATM   38  O   UNL     1     -48.445  62.735 -54.295  1.00  0.00    -0.271 OA
BRANCH  36  39
HETATM   39  C   UNL     1     -51.251  62.688 -53.387  1.00  0.00     0.035 A 
HETATM   40  C   UNL     1     -51.531  61.177 -54.184  1.00  0.00     0.036 A 
HETATM   41  C   UNL     1     -52.797  60.852 -55.270  1.00  0.00    -0.060 A 
HETATM   42  C   UNL     1     -52.902  59.548 -55.980  1.00  0.00     0.048 C 
HETATM   43  C   UNL     1     -53.896  62.145 -55.620  1.00  0.00     0.007 A 
HETATM   44  C   UNL     1     -53.596  63.946 -54.658  1.00  0.00     0.003 A 
HETATM   45  C   UNL     1     -52.244  64.059 -53.563  1.00  0.00     0.029 A 
ENDBRANCH  36  39
ENDBRANCH  34  35
ENDBRANCH   1  34
TORSDOF 8
ENDMDL
MODEL 6
REMARK VINA RESULT:      -9.2      5.441     10.194
REMARK  8 active torsions:
REMARK  status: ('A' for Active; 'I' for Inactive)
REMARK    1  A    between atoms: C_4  and  N_5 
REMARK       I    between atoms: N_5  and  C_6 
REMARK    2  A    between atoms: C_6  and  C_7 
REMARK    3  A    between atoms: C_7  and  N_8 
REMARK    4  A    between atoms: N_11  and  C_12 
REMARK    5  A    between atoms: C_12  and  C_13 
REMARK    6  A    between atoms: C_16  and  C_17 
REMARK       I    between atoms: C_17  and  N_18 
REMARK    7  A    between atoms: N_18  and  C_19 
REMARK    8  A    between atoms: C_19  and  C_20 
ROOT
HETATM    1  N   UNL     1     -44.532  59.062 -57.822  1.00  0.00    -0.290 N 
HETATM    2  C   UNL     1     -43.623  59.259 -56.777  1.00  0.00     0.332 C 
HETATM    3  O   UNL     1     -42.442  58.934 -56.905  1.00  0.00    -0.246 OA
HETATM    4  N   UNL     1     -44.127  59.820 -55.608  1.00  0.00    -0.261 N 
HETATM    5  C   UNL     1     -45.333  60.493 -55.533  1.00  0.00     0.264 C 
HETATM    6  O   UNL     1     -45.778  61.003 -54.508  1.00  0.00    -0.267 OA
HETATM    7  C   UNL     1     -46.078  60.642 -56.789  1.00  0.00     0.059 A 
HETATM    8  C   UNL     1     -45.678  59.918 -57.913  1.00  0.00     0.055 A 
HETATM    9  C   UNL     1     -47.142  61.559 -56.842  1.00  0.00     0.019 A 
HETATM   10  C   UNL     1     -47.818  61.774 -58.036  1.00  0.00     0.001 A 
HETATM   11  C   UNL     1     -47.442  61.058 -59.167  1.00  0.00     0.002 A 
HETATM   12  C   UNL     1     -46.390  60.133 -59.105  1.00  0.00     0.031 A 
ENDROOT
BRANCH   4  13
HETATM   13  C   UNL     1     -43.239  59.920 -54.450  1.00  0.00     0.175 C 
BRANCH  13  14
HETATM   14  C   UNL     1     -43.172  58.639 -53.649  1.00  0.00    -0.040 A 
HETATM   15  C   UNL     1     -44.262  58.275 -52.844  1.00  0.00     0.010 A 
HETATM   16  C   UNL     1     -44.153  57.215 -51.953  1.00  0.00     0.017 A 
HETATM   17  C   UNL     1     -42.950  56.509 -51.862  1.00  0.00     0.032 A 
HETATM   18  C   UNL     1     -41.893  56.797 -52.731  1.00  0.00     0.017 A 
HETATM   19  C   UNL     1     -42.004  57.863 -53.624  1.00  0.00     0.010 A 
BRANCH  17  20
HETATM   20  C   UNL     1     -42.739  55.533 -50.766  1.00  0.00     0.251 C 
HETATM   21  N   UNL     1     -41.410  55.252 -50.516  1.00  0.00    -0.353 N 
HETATM   22  H   UNL     1     -40.724  55.603 -51.169  1.00  0.00     0.163 HD
HETATM   23  O   UNL     1     -43.688  54.989 -50.218  1.00  0.00    -0.268 OA
BRANCH  21  24
HETATM   24  C   UNL     1     -41.018  54.100 -49.742  1.00  0.00     0.161 C 
BRANCH  24  25
HETATM   25  C   UNL     1     -40.565  52.938 -50.629  1.00  0.00    -0.038 A 
HETATM   26  C   UNL     1     -40.404  53.172 -52.046  1.00  0.00     0.048 A 
HETATM   27  C   UNL     1     -40.054  52.006 -52.674  1.00  0.00     0.105 A 
HETATM   28  C   UNL     1     -39.830  50.493 -51.735  1.00  0.00     0.105 A 
HETATM   29  O   UNL     1     -39.817  51.487 -54.606  1.00  0.00    -0.323 OA
HETATM   30  O   UNL     1     -39.488  49.092 -52.800  1.00  0.00    -0.323 OA
HETATM   31  C   UNL     1     -39.970  50.367 -50.403  1.00  0.00     0.040 A 
HETATM   32  C   UNL     1     -39.447  49.579 -54.631  1.00  0.00     0.352 A 
HETATM   33  C   UNL     1     -40.340  51.627 -49.882  1.00  0.00     0.012 A 
ENDBRANCH  24  25
ENDBRANCH  21  24
ENDBRANCH  17  20
ENDBRANCH  13  14
ENDBRANCH   4  13
BRANCH   1  34
HETATM   34  C   UNL     1     -43.972  58.445 -59.031  1.00  0.00     0.237 C 
BRANCH  34  35
HETATM   35  C   UNL     1     -42.865  59.174 -59.828  1.00  0.00     0.240 C 
HETATM   36  N   UNL     1     -42.969  60.554 -59.861  1.00  0.00    -0.326 N 
HETATM   37  H   UNL     1     -43.860  60.963 -59.610  1.00  0.00     0.169 HD
HETATM   38  O   UNL     1     -41.882  58.526 -60.189  1.00  0.00    -0.271 OA
BRANCH  36  39
HETATM   39  C   UNL     1     -41.909  61.474 -60.110  1.00  0.00     0.035 A 
HETATM   40  C   UNL     1     -41.532  61.970 -61.724  1.00  0.00     0.036 A 
HETATM   41  C   UNL     1     -40.183  62.896 -62.184  1.00  0.00    -0.060 A 
HETATM   42  C   UNL     1     -39.891  63.193 -63.613  1.00  0.00     0.048 C 
HETATM   43  C   UNL     1     -39.085  63.377 -60.934  1.00  0.00     0.007 A 
HETATM   44  C   UNL     1     -39.532  62.820 -58.998  1.00  0.00     0.003 A 
HETATM   45  C   UNL     1     -40.981  61.886 -58.742  1.00  0.00     0.029 A 
ENDBRANCH  36  39
ENDBRANCH  34  35
ENDBRANCH   1  34
TORSDOF 8
ENDMDL
MODEL 7
REMARK VINA RESULT:      -9.2      2.974     10.651
REMARK  8 active torsions:
REMARK  status: ('A' for Active; 'I' for Inactive)
REMARK    1  A    between atoms: C_4  and  N_5 
REMARK       I    between atoms: N_5  and  C_6 
REMARK    2  A    between atoms: C_6  and  C_7 
REMARK    3  A    between atoms: C_7  and  N_8 
REMARK    4  A    between atoms: N_11  and  C_12 
REMARK    5  A    between atoms: C_12  and  C_13 
REMARK    6  A    between atoms: C_16  and  C_17 
REMARK       I    between atoms: C_17  and  N_18 
REMARK    7  A    between atoms: N_18  and  C_19 
REMARK    8  A    between atoms: C_19  and  C_20 
ROOT
HETATM    1  N   UNL     1     -46.121  62.859 -51.697  1.00  0.00    -0.290 N 
HETATM    2  C   UNL     1     -44.784  62.492 -51.504  1.00  0.00     0.332 C 
HETATM    3  O   UNL     1     -43.935  62.750 -52.357  1.00  0.00    -0.246 OA
HETATM    4  N   UNL     1     -44.484  61.824 -50.321  1.00  0.00    -0.261 N 
HETATM    5  C   UNL     1     -45.310  61.810 -49.212  1.00  0.00     0.264 C 
HETATM    6  O   UNL     1     -45.046  61.235 -48.159  1.00  0.00    -0.267 OA
HETATM    7  C   UNL     1     -46.550  62.592 -49.309  1.00  0.00     0.059 A 
HETATM    8  C   UNL     1     -46.946  63.095 -50.549  1.00  0.00     0.055 A 
HETATM    9  C   UNL     1     -47.274  62.863 -48.136  1.00  0.00     0.019 A 
HETATM   10  C   UNL     1     -48.410  63.661 -48.188  1.00  0.00     0.001 A 
HETATM   11  C   UNL     1     -48.829  64.167 -49.413  1.00  0.00     0.002 A 
HETATM   12  C   UNL     1     -48.110  63.880 -50.583  1.00  0.00     0.031 A 
ENDROOT
BRANCH   4  13
HETATM   13  C   UNL     1     -43.126  61.310 -50.142  1.00  0.00     0.175 C 
BRANCH  13  14
HETATM   14  C   UNL     1     -42.829  60.119 -51.024  1.00  0.00    -0.040 A 
HETATM   15  C   UNL     1     -41.634  60.091 -51.761  1.00  0.00     0.010 A 
HETATM   16  C   UNL     1     -41.425  59.111 -52.723  1.00  0.00     0.017 A 
HETATM   17  C   UNL     1     -42.411  58.148 -52.954  1.00  0.00     0.032 A 
HETATM   18  C   UNL     1     -43.559  58.104 -52.156  1.00  0.00     0.017 A 
HETATM   19  C   UNL     1     -43.768  59.090 -51.192  1.00  0.00     0.010 A 
BRANCH  17  20
HETATM   20  C   UNL     1     -42.309  57.241 -54.123  1.00  0.00     0.251 C 
HETATM   21  N   UNL     1     -42.553  55.915 -53.824  1.00  0.00    -0.353 N 
HETATM   22  H   UNL     1     -42.630  55.658 -52.850  1.00  0.00     0.163 HD
HETATM   23  O   UNL     1     -41.956  57.662 -55.215  1.00  0.00    -0.268 OA
BRANCH  21  24
HETATM   24  C   UNL     1     -42.175  54.858 -54.730  1.00  0.00     0.161 C 
BRANCH  24  25
HETATM   25  C   UNL     1     -41.407  53.740 -54.021  1.00  0.00    -0.038 A 
HETATM   26  C   UNL     1     -41.175  52.504 -54.732  1.00  0.00     0.048 A 
HETATM   27  C   UNL     1     -40.529  51.613 -53.917  1.00  0.00     0.105 A 
HETATM   28  C   UNL     1     -40.069  52.070 -52.243  1.00  0.00     0.105 A 
HETATM   29  O   UNL     1     -40.016  49.674 -54.110  1.00  0.00    -0.323 OA
HETATM   30  O   UNL     1     -39.342  50.695 -51.352  1.00  0.00    -0.323 OA
HETATM   31  C   UNL     1     -40.297  53.264 -51.665  1.00  0.00     0.040 A 
HETATM   32  C   UNL     1     -39.245  49.127 -52.412  1.00  0.00     0.352 A 
HETATM   33  C   UNL     1     -40.973  54.079 -52.599  1.00  0.00     0.012 A 
ENDBRANCH  24  25
ENDBRANCH  21  24
ENDBRANCH  17  20
ENDBRANCH  13  14
ENDBRANCH   4  13
BRANCH   1  34
HETATM   34  C   UNL     1     -46.406  63.538 -52.966  1.00  0.00     0.237 C 
BRANCH  34  35
HETATM   35  C   UNL     1     -46.826  62.714 -54.205  1.00  0.00     0.240 C 
HETATM   36  N   UNL     1     -45.786  62.129 -54.909  1.00  0.00    -0.326 N 
HETATM   37  H   UNL     1     -44.852  62.480 -54.743  1.00  0.00     0.169 HD
HETATM   38  O   UNL     1     -48.021  62.460 -54.361  1.00  0.00    -0.271 OA
BRANCH  36  39
HETATM   39  C   UNL     1     -45.882  61.000 -55.773  1.00  0.00     0.035 A 
HETATM   40  C   UNL     1     -46.800  61.084 -57.238  1.00  0.00     0.036 A 
HETATM   41  C   UNL     1     -47.163  59.771 -58.254  1.00  0.00    -0.060 A 
HETATM   42  C   UNL     1     -48.041  59.926 -59.446  1.00  0.00     0.048 C 
HETATM   43  C   UNL     1     -46.575  58.212 -57.780  1.00  0.00     0.007 A 
HETATM   44  C   UNL     1     -45.454  58.095 -56.051  1.00  0.00     0.003 A 
HETATM   45  C   UNL     1     -45.182  59.571 -55.166  1.00  0.00     0.029 A 
ENDBRANCH  36  39
ENDBRANCH  34  35
ENDBRANCH   1  34
TORSDOF 8
ENDMDL
MODEL 8
REMARK VINA RESULT:      -9.2      4.627     10.148
REMARK  8 active torsions:
REMARK  status: ('A' for Active; 'I' for Inactive)
REMARK    1  A    between atoms: C_4  and  N_5 
REMARK       I    between atoms: N_5  and  C_6 
REMARK    2  A    between atoms: C_6  and  C_7 
REMARK    3  A    between atoms: C_7  and  N_8 
REMARK    4  A    between atoms: N_11  and  C_12 
REMARK    5  A    between atoms: C_12  and  C_13 
REMARK    6  A    between atoms: C_16  and  C_17 
REMARK       I    between atoms: C_17  and  N_18 
REMARK    7  A    between atoms: N_18  and  C_19 
REMARK    8  A    between atoms: C_19  and  C_20 
ROOT
HETATM    1  N   UNL     1     -48.967  62.957 -55.078  1.00  0.00    -0.290 N 
HETATM    2  C   UNL     1     -48.060  62.568 -56.070  1.00  0.00     0.332 C 
HETATM    3  O   UNL     1     -46.856  62.782 -55.936  1.00  0.00    -0.246 OA
HETATM    4  N   UNL     1     -48.594  61.949 -57.196  1.00  0.00    -0.261 N 
HETATM    5  C   UNL     1     -49.862  61.398 -57.246  1.00  0.00     0.264 C 
HETATM    6  O   UNL     1     -50.335  60.838 -58.231  1.00  0.00    -0.267 OA
HETATM    7  C   UNL     1     -50.646  61.449 -56.005  1.00  0.00     0.059 A 
HETATM    8  C   UNL     1     -50.197  62.235 -54.943  1.00  0.00     0.055 A 
HETATM    9  C   UNL     1     -51.800  60.654 -55.900  1.00  0.00     0.019 A 
HETATM   10  C   UNL     1     -52.521  60.627 -54.712  1.00  0.00     0.001 A 
HETATM   11  C   UNL     1     -52.098  61.408 -53.643  1.00  0.00     0.002 A 
HETATM   12  C   UNL     1     -50.954  62.211 -53.760  1.00  0.00     0.031 A 
ENDROOT
BRANCH   4  13
HETATM   13  C   UNL     1     -47.696  61.648 -58.310  1.00  0.00     0.175 C 
BRANCH  13  14
HETATM   14  C   UNL     1     -46.843  60.425 -58.063  1.00  0.00    -0.040 A 
HETATM   15  C   UNL     1     -45.446  60.557 -58.030  1.00  0.00     0.010 A 
HETATM   16  C   UNL     1     -44.635  59.430 -58.000  1.00  0.00     0.017 A 
HETATM   17  C   UNL     1     -45.217  58.159 -58.002  1.00  0.00     0.032 A 
HETATM   18  C   UNL     1     -46.606  58.016 -57.930  1.00  0.00     0.017 A 
HETATM   19  C   UNL     1     -47.419  59.149 -57.962  1.00  0.00     0.010 A 
BRANCH  17  20
HETATM   20  C   UNL     1     -44.377  56.953 -58.202  1.00  0.00     0.251 C 
HETATM   21  N   UNL     1     -43.942  56.374 -57.026  1.00  0.00    -0.353 N 
HETATM   22  H   UNL     1     -44.098  56.880 -56.166  1.00  0.00     0.163 HD
HETATM   23  O   UNL     1     -44.055  56.592 -59.325  1.00  0.00    -0.268 OA
BRANCH  21  24
HETATM   24  C   UNL     1     -42.860  55.421 -57.014  1.00  0.00     0.161 C 
BRANCH  24  25
HETATM   25  C   UNL     1     -42.489  54.990 -55.593  1.00  0.00    -0.038 A 
HETATM   26  C   UNL     1     -43.453  55.194 -54.536  1.00  0.00     0.048 A 
HETATM   27  C   UNL     1     -42.918  54.803 -53.337  1.00  0.00     0.105 A 
HETATM   28  C   UNL     1     -41.260  54.121 -53.252  1.00  0.00     0.105 A 
HETATM   29  O   UNL     1     -43.553  54.923 -51.428  1.00  0.00    -0.323 OA
HETATM   30  O   UNL     1     -40.758  53.797 -51.563  1.00  0.00    -0.323 OA
HETATM   31  C   UNL     1     -40.434  53.934 -54.298  1.00  0.00     0.040 A 
HETATM   32  C   UNL     1     -42.109  54.252 -50.314  1.00  0.00     0.352 A 
HETATM   33  C   UNL     1     -41.095  54.385 -55.462  1.00  0.00     0.012 A 
ENDBRANCH  24  25
ENDBRANCH  21  24
ENDBRANCH  17  20
ENDBRANCH  13  14
ENDBRANCH   4  13
BRANCH   1  34
HETATM   34  C   UNL     1     -48.372  63.629 -53.916  1.00  0.00     0.237 C 
BRANCH  34  35
HETATM   35  C   UNL     1     -47.374  62.869 -53.012  1.00  0.00     0.240 C 
HETATM   36  N   UNL     1     -47.295  61.504 -53.232  1.00  0.00    -0.326 N 
HETATM   37  H   UNL     1     -48.048  61.069 -53.748  1.00  0.00     0.169 HD
HETATM   38  O   UNL     1     -46.587  63.526 -52.329  1.00  0.00    -0.271 OA
BRANCH  36  39
HETATM   39  C   UNL     1     -46.199  60.657 -52.895  1.00  0.00     0.035 A 
HETATM   40  C   UNL     1     -44.961  60.314 -54.053  1.00  0.00     0.036 A 
HETATM   41  C   UNL     1     -43.714  59.175 -53.859  1.00  0.00    -0.060 A 
HETATM   42  C   UNL     1     -42.747  58.882 -54.952  1.00  0.00     0.048 C 
HETATM   43  C   UNL     1     -43.684  58.273 -52.380  1.00  0.00     0.007 A 
HETATM   44  C   UNL     1     -45.135  58.689 -50.974  1.00  0.00     0.003 A 
HETATM   45  C   UNL     1     -46.312  59.912 -51.368  1.00  0.00     0.029 A 
ENDBRANCH  36  39
ENDBRANCH  34  35
ENDBRANCH   1  34
TORSDOF 8
ENDMDL
MODEL 9
REMARK VINA RESULT:      -9.1      5.427     10.238
REMARK  8 active torsions:
REMARK  status: ('A' for Active; 'I' for Inactive)
REMARK    1  A    between atoms: C_4  and  N_5 
REMARK       I    between atoms: N_5  and  C_6 
REMARK    2  A    between atoms: C_6  and  C_7 
REMARK    3  A    between atoms: C_7  and  N_8 
REMARK    4  A    between atoms: N_11  and  C_12 
REMARK    5  A    between atoms: C_12  and  C_13 
REMARK    6  A    between atoms: C_16  and  C_17 
REMARK       I    between atoms: C_17  and  N_18 
REMARK    7  A    between atoms: N_18  and  C_19 
REMARK    8  A    between atoms: C_19  and  C_20 
ROOT
HETATM    1  N   UNL     1     -45.000  58.980 -59.600  1.00  0.00    -0.290 N 
HETATM    2  C   UNL     1     -44.416  59.704 -58.554  1.00  0.00     0.332 C 
HETATM    3  O   UNL     1     -44.929  60.750 -58.155  1.00  0.00    -0.246 OA
HETATM    4  N   UNL     1     -43.244  59.186 -58.013  1.00  0.00    -0.261 N 
HETATM    5  C   UNL     1     -42.823  57.880 -58.191  1.00  0.00     0.264 C 
HETATM    6  O   UNL     1     -41.796  57.411 -57.706  1.00  0.00    -0.267 OA
HETATM    7  C   UNL     1     -43.713  57.006 -58.965  1.00  0.00     0.059 A 
HETATM    8  C   UNL     1     -44.781  57.565 -59.668  1.00  0.00     0.055 A 
HETATM    9  C   UNL     1     -43.500  55.617 -58.927  1.00  0.00     0.019 A 
HETATM   10  C   UNL     1     -44.371  54.761 -59.590  1.00  0.00     0.001 A 
HETATM   11  C   UNL     1     -45.436  55.295 -60.304  1.00  0.00     0.002 A 
HETATM   12  C   UNL     1     -45.635  56.683 -60.351  1.00  0.00     0.031 A 
ENDROOT
BRANCH   4  13
HETATM   13  C   UNL     1     -42.535  59.980 -57.011  1.00  0.00     0.175 C 
BRANCH  13  14
HETATM   14  C   UNL     1     -42.803  59.516 -55.597  1.00  0.00    -0.040 A 
HETATM   15  C   UNL     1     -41.726  59.356 -54.711  1.00  0.00     0.010 A 
HETATM   16  C   UNL     1     -41.918  58.748 -53.477  1.00  0.00     0.017 A 
HETATM   17  C   UNL     1     -43.191  58.297 -53.118  1.00  0.00     0.032 A 
HETATM   18  C   UNL     1     -44.289  58.544 -53.948  1.00  0.00     0.017 A 
HETATM   19  C   UNL     1     -44.095  59.153 -55.188  1.00  0.00     0.010 A 
BRANCH  17  20
HETATM   20  C   UNL     1     -43.371  57.448 -51.916  1.00  0.00     0.251 C 
HETATM   21  N   UNL     1     -42.216  56.818 -51.498  1.00  0.00    -0.353 N 
HETATM   22  H   UNL     1     -41.409  56.864 -52.104  1.00  0.00     0.163 HD
HETATM   23  O   UNL     1     -44.479  57.284 -51.423  1.00  0.00    -0.268 OA
BRANCH  21  24
HETATM   24  C   UNL     1     -42.255  55.708 -50.578  1.00  0.00     0.161 C 
BRANCH  24  25
HETATM   25  C   UNL     1     -41.521  54.482 -51.125  1.00  0.00    -0.038 A 
HETATM   26  C   UNL     1     -41.478  54.284 -52.555  1.00  0.00     0.048 A 
HETATM   27  C   UNL     1     -40.833  53.110 -52.843  1.00  0.00     0.105 A 
HETATM   28  C   UNL     1     -40.161  52.088 -51.529  1.00  0.00     0.105 A 
HETATM   29  O   UNL     1     -40.520  52.079 -54.546  1.00  0.00    -0.323 OA
HETATM   30  O   UNL     1     -39.472  50.559 -52.160  1.00  0.00    -0.323 OA
HETATM   31  C   UNL     1     -40.218  52.364 -50.213  1.00  0.00     0.040 A 
HETATM   32  C   UNL     1     -39.629  50.427 -54.044  1.00  0.00     0.352 A 
HETATM   33  C   UNL     1     -40.912  53.584 -50.053  1.00  0.00     0.012 A 
ENDBRANCH  24  25
ENDBRANCH  21  24
ENDBRANCH  17  20
ENDBRANCH  13  14
ENDBRANCH   4  13
BRANCH   1  34
HETATM   34  C   UNL     1     -46.221  59.568 -60.163  1.00  0.00     0.237 C 
BRANCH  34  35
HETATM   35  C   UNL     1     -47.508  59.640 -59.308  1.00  0.00     0.240 C 
HETATM   36  N   UNL     1     -48.406  60.629 -59.671  1.00  0.00    -0.326 N 
HETATM   37  H   UNL     1     -48.067  61.378 -60.260  1.00  0.00     0.169 HD
HETATM   38  O   UNL     1     -47.744  58.716 -58.528  1.00  0.00    -0.271 OA
BRANCH  36  39
HETATM   39  C   UNL     1     -49.803  60.647 -59.385  1.00  0.00     0.035 A 
HETATM   40  C   UNL     1     -50.369  60.642 -57.749  1.00  0.00     0.036 A 
HETATM   41  C   UNL     1     -51.988  60.462 -57.265  1.00  0.00    -0.060 A 
HETATM   42  C   UNL     1     -52.368  60.376 -55.828  1.00  0.00     0.048 C 
HETATM   43  C   UNL     1     -53.173  60.256 -58.511  1.00  0.00     0.007 A 
HETATM   44  C   UNL     1     -52.522  60.288 -60.469  1.00  0.00     0.003 A 
HETATM   45  C   UNL     1     -50.815  60.505 -60.747  1.00  0.00     0.029 A 
ENDBRANCH  36  39
ENDBRANCH  34  35
ENDBRANCH   1  34
TORSDOF 8
ENDMDL
MODEL 10
REMARK VINA RESULT:      -9.0      4.557      8.764
REMARK  8 active torsions:
REMARK  status: ('A' for Active; 'I' for Inactive)
REMARK    1  A    between atoms: C_4  and  N_5 
REMARK       I    between atoms: N_5  and  C_6 
REMARK    2  A    between atoms: C_6  and  C_7 
REMARK    3  A    between atoms: C_7  and  N_8 
REMARK    4  A    between atoms: N_11  and  C_12 
REMARK    5  A    between atoms: C_12  and  C_13 
REMARK    6  A    between atoms: C_16  and  C_17 
REMARK       I    between atoms: C_17  and  N_18 
REMARK    7  A    between atoms: N_18  and  C_19 
REMARK    8  A    between atoms: C_19  and  C_20 
ROOT
HETATM    1  N   UNL     1     -41.738  57.758 -54.333  1.00  0.00    -0.290 N 
HETATM    2  C   UNL     1     -42.025  58.394 -55.547  1.00  0.00     0.332 C 
HETATM    3  O   UNL     1     -41.719  59.573 -55.722  1.00  0.00    -0.246 OA
HETATM    4  N   UNL     1     -42.670  57.631 -56.515  1.00  0.00    -0.261 N 
HETATM    5  C   UNL     1     -42.730  56.249 -56.495  1.00  0.00     0.264 C 
HETATM    6  O   UNL     1     -43.286  55.568 -57.353  1.00  0.00    -0.267 OA
HETATM    7  C   UNL     1     -42.024  55.580 -55.395  1.00  0.00     0.059 A 
HETATM    8  C   UNL     1     -41.548  56.338 -54.324  1.00  0.00     0.055 A 
HETATM    9  C   UNL     1     -41.793  54.196 -55.481  1.00  0.00     0.019 A 
HETATM   10  C   UNL     1     -41.064  53.549 -54.491  1.00  0.00     0.001 A 
HETATM   11  C   UNL     1     -40.587  54.282 -53.411  1.00  0.00     0.002 A 
HETATM   12  C   UNL     1     -40.833  55.660 -53.323  1.00  0.00     0.031 A 
ENDROOT
BRANCH   4  13
HETATM   13  C   UNL     1     -43.103  58.296 -57.744  1.00  0.00     0.175 C 
BRANCH  13  14
HETATM   14  C   UNL     1     -44.519  58.817 -57.662  1.00  0.00    -0.040 A 
HETATM   15  C   UNL     1     -45.585  57.959 -57.975  1.00  0.00     0.010 A 
HETATM   16  C   UNL     1     -46.875  58.460 -58.098  1.00  0.00     0.017 A 
HETATM   17  C   UNL     1     -47.109  59.824 -57.908  1.00  0.00     0.032 A 
HETATM   18  C   UNL     1     -46.073  60.669 -57.496  1.00  0.00     0.017 A 
HETATM   19  C   UNL     1     -44.778  60.165 -57.374  1.00  0.00     0.010 A 
BRANCH  17  20
HETATM   20  C   UNL     1     -48.424  60.413 -58.258  1.00  0.00     0.251 C 
HETATM   21  N   UNL     1     -49.222  60.688 -57.165  1.00  0.00    -0.353 N 
HETATM   22  H   UNL     1     -48.921  60.345 -56.264  1.00  0.00     0.163 HD
HETATM   23  O   UNL     1     -48.762  60.545 -59.427  1.00  0.00    -0.268 OA
BRANCH  21  24
HETATM   24  C   UNL     1     -50.635  60.937 -57.310  1.00  0.00     0.161 C 
BRANCH  24  25
HETATM   25  C   UNL     1     -51.248  61.526 -56.037  1.00  0.00    -0.038 A 
HETATM   26  C   UNL     1     -50.372  61.855 -54.937  1.00  0.00     0.048 A 
HETATM   27  C   UNL     1     -51.109  62.309 -53.875  1.00  0.00     0.105 A 
HETATM   28  C   UNL     1     -52.894  62.456 -53.995  1.00  0.00     0.105 A 
HETATM   29  O   UNL     1     -50.651  62.798 -51.974  1.00  0.00    -0.323 OA
HETATM   30  O   UNL     1     -53.627  62.963 -52.440  1.00  0.00    -0.323 OA
HETATM   31  C   UNL     1     -53.635  62.155 -55.078  1.00  0.00     0.040 A 
HETATM   32  C   UNL     1     -52.328  63.217 -51.085  1.00  0.00     0.352 A 
HETATM   33  C   UNL     1     -52.764  61.691 -56.088  1.00  0.00     0.012 A 
ENDBRANCH  24  25
ENDBRANCH  21  24
ENDBRANCH  17  20
ENDBRANCH  13  14
ENDBRANCH   4  13
BRANCH   1  34
HETATM   34  C   UNL     1     -41.080  58.599 -53.326  1.00  0.00     0.237 C 
BRANCH  34  35
HETATM   35  C   UNL     1     -41.927  59.322 -52.253  1.00  0.00     0.240 C 
HETATM   36  N   UNL     1     -42.564  60.476 -52.678  1.00  0.00    -0.326 N 
HETATM   37  H   UNL     1     -42.238  60.902 -53.536  1.00  0.00     0.169 HD
HETATM   38  O   UNL     1     -42.146  58.739 -51.191  1.00  0.00    -0.271 OA
BRANCH  36  39
HETATM   39  C   UNL     1     -43.715  61.072 -52.084  1.00  0.00     0.035 A 
HETATM   40  C   UNL     1     -43.583  61.965 -50.608  1.00  0.00     0.036 A 
HETATM   41  C   UNL     1     -44.887  62.555 -49.691  1.00  0.00    -0.060 A 
HETATM   42  C   UNL     1     -44.677  63.233 -48.382  1.00  0.00     0.048 C 
HETATM   43  C   UNL     1     -46.484  62.226 -50.275  1.00  0.00     0.007 A 
HETATM   44  C   UNL     1     -46.662  61.187 -52.049  1.00  0.00     0.003 A 
HETATM   45  C   UNL     1     -45.191  60.690 -52.842  1.00  0.00     0.029 A 
ENDBRANCH  36  39
ENDBRANCH  34  35
ENDBRANCH   1  34
TORSDOF 8
ENDMDL
