MODEL 1
REMARK VINA RESULT:      -7.0      0.000      0.000
REMARK  10 active torsions:
REMARK  status: ('A' for Active; 'I' for Inactive)
REMARK    1  A    between atoms: C_3  and  C_4 
REMARK    2  A    between atoms: C_4  and  C_5 
REMARK       I    between atoms: C_5  and  N_6 
REMARK    3  A    between atoms: N_6  and  C_7 
REMARK    4  A    between atoms: C_7  and  C_8 
REMARK    5  A    between atoms: C_8  and  O_9 
REMARK    6  A    between atoms: C_15  and  N_16 
REMARK       I    between atoms: N_16  and  C_17 
REMARK    7  A    between atoms: C_17  and  C_18 
REMARK    8  A    between atoms: C_26  and  C_27 
REMARK    9  A    between atoms: C_27  and  O_28 
REMARK   10  A    between atoms: C_30  and  O_31 
ROOT
HETATM    1  C   UNL     1     -40.221  58.419 -53.228  1.00  0.00     0.016 C 
HETATM    2  C   UNL     1     -41.436  57.666 -52.595  1.00  0.00    -0.030 C 
HETATM    3  C   UNL     1     -42.776  58.171 -53.281  1.00  0.00     0.056 C 
HETATM    4  C   UNL     1     -42.946  57.554 -54.649  1.00  0.00     0.056 A 
HETATM    5  C   UNL     1     -42.282  56.413 -55.055  1.00  0.00     0.012 A 
HETATM    6  S   UNL     1     -42.836  55.915 -56.583  1.00  0.00    -0.055 SA
HETATM    7  C   UNL     1     -43.816  57.312 -56.646  1.00  0.00     0.173 A 
HETATM    8  N   UNL     1     -43.802  58.095 -55.596  1.00  0.00    -0.227 NA
HETATM    9  C   UNL     1     -41.214  55.702 -54.310  1.00  0.00     0.055 C 
HETATM   10  C   UNL     1     -41.196  56.106 -52.812  1.00  0.00     0.012 C 
HETATM   11  C   UNL     1     -41.970  55.091 -51.862  1.00  0.00     0.008 C 
HETATM   12  C   UNL     1     -40.995  53.897 -51.610  1.00  0.00     0.020 C 
HETATM   13  C   UNL     1     -42.272  55.733 -50.475  1.00  0.00     0.128 C 
HETATM   14  C   UNL     1     -41.287  56.845 -50.133  1.00  0.00     0.033 C 
HETATM   15  C   UNL     1     -41.448  58.032 -51.078  1.00  0.00     0.013 C 
ENDROOT
BRANCH   3  16
HETATM   16  C   UNL     1     -42.902  59.706 -53.325  1.00  0.00     0.114 C 
BRANCH  16  17
HETATM   17  C   UNL     1     -44.154  60.169 -52.614  1.00  0.00     0.218 C 
HETATM   18  N   UNL     1     -44.588  59.341 -51.609  1.00  0.00    -0.359 N 
HETATM   19  H   UNL     1     -43.887  58.726 -51.186  1.00  0.00     0.162 HD
HETATM   20  O   UNL     1     -44.722  61.211 -52.941  1.00  0.00    -0.274 OA
BRANCH  18  21
HETATM   21  C   UNL     1     -45.764  59.682 -50.829  1.00  0.00     0.148 C 
BRANCH  21  22
HETATM   22  C   UNL     1     -45.471  60.548 -49.601  1.00  0.00     0.186 C 
BRANCH  22  23
HETATM   23  O   UNL     1     -45.993  59.980 -48.396  1.00  0.00    -0.394 OA
HETATM   24  C   UNL     1     -45.697  60.764 -47.247  1.00  0.00     0.201 C 
ENDBRANCH  22  23
ENDBRANCH  21  22
ENDBRANCH  18  21
ENDBRANCH  16  17
ENDBRANCH   3  16
BRANCH  11  25
HETATM   25  C   UNL     1     -43.249  54.444 -52.459  1.00  0.00     0.176 C 
BRANCH  25  26
HETATM   26  O   UNL     1     -44.058  53.798 -51.495  1.00  0.00    -0.400 OA
HETATM   27  H   UNL     1     -43.735  54.128 -50.627  1.00  0.00     0.209 HD
ENDBRANCH  25  26
ENDBRANCH  11  25
BRANCH   7  28
HETATM   28  N   UNL     1     -44.475  57.439 -57.834  1.00  0.00    -0.305 N 
HETATM   29  C   UNL     1     -45.771  57.892 -57.919  1.00  0.00     0.231 C 
HETATM   30  O   UNL     1     -46.486  58.159 -56.957  1.00  0.00    -0.272 OA
HETATM   31  H   UNL     1     -43.903  57.333 -58.657  1.00  0.00     0.171 HD
BRANCH  29  32
HETATM   32  C   UNL     1     -46.284  58.030 -59.373  1.00  0.00     0.030 C 
HETATM   33  C   UNL     1     -45.106  58.384 -60.293  1.00  0.00     0.025 C 
HETATM   34  C   UNL     1     -46.893  56.693 -59.832  1.00  0.00     0.025 C 
HETATM   35  C   UNL     1     -47.372  59.113 -59.477  1.00  0.00     0.025 C 
ENDBRANCH  29  32
ENDBRANCH   7  28
BRANCH  13  36
HETATM   36  O   UNL     1     -43.601  56.262 -50.433  1.00  0.00    -0.395 OA
HETATM   37  H   UNL     1     -43.613  56.988 -49.782  1.00  0.00     0.210 HD
ENDBRANCH  13  36
TORSDOF 10
ENDMDL
MODEL 2
REMARK VINA RESULT:      -6.8      3.019      7.470
REMARK  10 active torsions:
REMARK  status: ('A' for Active; 'I' for Inactive)
REMARK    1  A    between atoms: C_3  and  C_4 
REMARK    2  A    between atoms: C_4  and  C_5 
REMARK       I    between atoms: C_5  and  N_6 
REMARK    3  A    between atoms: N_6  and  C_7 
REMARK    4  A    between atoms: C_7  and  C_8 
REMARK    5  A    between atoms: C_8  and  O_9 
REMARK    6  A    between atoms: C_15  and  N_16 
REMARK       I    between atoms: N_16  and  C_17 
REMARK    7  A    between atoms: C_17  and  C_18 
REMARK    8  A    between atoms: C_26  and  C_27 
REMARK    9  A    between atoms: C_27  and  O_28 
REMARK   10  A    between atoms: C_30  and  O_31 
ROOT
HETATM    1  C   UNL     1     -39.963  58.428 -53.212  1.00  0.00     0.016 C 
HETATM    2  C   UNL     1     -41.331  57.681 -53.319  1.00  0.00    -0.030 C 
HETATM    3  C   UNL     1     -42.059  57.721 -51.908  1.00  0.00     0.056 C 
HETATM    4  C   UNL     1     -42.677  59.076 -51.660  1.00  0.00     0.056 A 
HETATM    5  C   UNL     1     -42.944  59.985 -52.665  1.00  0.00     0.012 A 
HETATM    6  S   UNL     1     -43.785  61.326 -52.046  1.00  0.00    -0.055 SA
HETATM    7  C   UNL     1     -43.619  60.665 -50.480  1.00  0.00     0.173 A 
HETATM    8  N   UNL     1     -43.032  59.498 -50.387  1.00  0.00    -0.227 NA
HETATM    9  C   UNL     1     -42.553  59.862 -54.091  1.00  0.00     0.055 C 
HETATM   10  C   UNL     1     -42.180  58.401 -54.458  1.00  0.00     0.012 C 
HETATM   11  C   UNL     1     -43.366  57.586 -55.136  1.00  0.00     0.008 C 
HETATM   12  C   UNL     1     -43.392  58.016 -56.638  1.00  0.00     0.020 C 
HETATM   13  C   UNL     1     -43.088  56.053 -55.106  1.00  0.00     0.128 C 
HETATM   14  C   UNL     1     -41.597  55.744 -55.033  1.00  0.00     0.033 C 
HETATM   15  C   UNL     1     -41.005  56.204 -53.704  1.00  0.00     0.013 C 
ENDROOT
BRANCH   3  16
HETATM   16  C   UNL     1     -41.157  57.280 -50.740  1.00  0.00     0.114 C 
BRANCH  16  17
HETATM   17  C   UNL     1     -41.501  55.878 -50.287  1.00  0.00     0.218 C 
HETATM   18  N   UNL     1     -40.433  55.132 -49.856  1.00  0.00    -0.359 N 
HETATM   19  H   UNL     1     -39.611  55.650 -49.532  1.00  0.00     0.162 HD
HETATM   20  O   UNL     1     -42.659  55.465 -50.322  1.00  0.00    -0.274 OA
BRANCH  18  21
HETATM   21  C   UNL     1     -40.628  53.777 -49.371  1.00  0.00     0.148 C 
BRANCH  21  22
HETATM   22  C   UNL     1     -40.393  52.694 -50.427  1.00  0.00     0.186 C 
BRANCH  22  23
HETATM   23  O   UNL     1     -39.846  53.224 -51.639  1.00  0.00    -0.394 OA
HETATM   24  C   UNL     1     -40.233  52.479 -52.786  1.00  0.00     0.201 C 
ENDBRANCH  22  23
ENDBRANCH  21  22
ENDBRANCH  18  21
ENDBRANCH  16  17
ENDBRANCH   3  16
BRANCH  11  25
HETATM   25  C   UNL     1     -44.793  57.896 -54.607  1.00  0.00     0.176 C 
BRANCH  25  26
HETATM   26  O   UNL     1     -45.820  57.283 -55.361  1.00  0.00    -0.400 OA
HETATM   27  H   UNL     1     -45.356  56.688 -55.991  1.00  0.00     0.209 HD
ENDBRANCH  25  26
ENDBRANCH  11  25
BRANCH   7  28
HETATM   28  N   UNL     1     -44.110  61.487 -49.508  1.00  0.00    -0.305 N 
HETATM   29  C   UNL     1     -45.191  61.149 -48.727  1.00  0.00     0.231 C 
HETATM   30  O   UNL     1     -45.860  60.128 -48.859  1.00  0.00    -0.272 OA
HETATM   31  H   UNL     1     -43.537  62.286 -49.290  1.00  0.00     0.171 HD
BRANCH  29  32
HETATM   32  C   UNL     1     -45.519  62.199 -47.637  1.00  0.00     0.030 C 
HETATM   33  C   UNL     1     -45.098  61.653 -46.266  1.00  0.00     0.025 C 
HETATM   34  C   UNL     1     -44.738  63.495 -47.922  1.00  0.00     0.025 C 
HETATM   35  C   UNL     1     -47.020  62.537 -47.627  1.00  0.00     0.025 C 
ENDBRANCH  29  32
ENDBRANCH   7  28
BRANCH  13  36
HETATM   36  O   UNL     1     -43.744  55.434 -53.997  1.00  0.00    -0.395 OA
HETATM   37  H   UNL     1     -44.101  54.578 -54.300  1.00  0.00     0.210 HD
ENDBRANCH  13  36
TORSDOF 10
ENDMDL
MODEL 3
REMARK VINA RESULT:      -6.7      2.762      5.742
REMARK  10 active torsions:
REMARK  status: ('A' for Active; 'I' for Inactive)
REMARK    1  A    between atoms: C_3  and  C_4 
REMARK    2  A    between atoms: C_4  and  C_5 
REMARK       I    between atoms: C_5  and  N_6 
REMARK    3  A    between atoms: N_6  and  C_7 
REMARK    4  A    between atoms: C_7  and  C_8 
REMARK    5  A    between atoms: C_8  and  O_9 
REMARK    6  A    between atoms: C_15  and  N_16 
REMARK       I    between atoms: N_16  and  C_17 
REMARK    7  A    between atoms: C_17  and  C_18 
REMARK    8  A    between atoms: C_26  and  C_27 
REMARK    9  A    between atoms: C_27  and  O_28 
REMARK   10  A    between atoms: C_30  and  O_31 
ROOT
HETATM    1  C   UNL     1     -44.276  56.394 -51.013  1.00  0.00     0.016 C 
HETATM    2  C   UNL     1     -42.999  57.093 -51.582  1.00  0.00    -0.030 C 
HETATM    3  C   UNL     1     -42.749  56.592 -53.068  1.00  0.00     0.056 C 
HETATM    4  C   UNL     1     -43.698  57.267 -54.030  1.00  0.00     0.056 A 
HETATM    5  C   UNL     1     -44.371  58.437 -53.738  1.00  0.00     0.012 A 
HETATM    6  S   UNL     1     -45.219  58.992 -55.103  1.00  0.00    -0.055 SA
HETATM    7  C   UNL     1     -44.737  57.579 -55.934  1.00  0.00     0.173 A 
HETATM    8  N   UNL     1     -43.952  56.751 -55.292  1.00  0.00    -0.227 NA
HETATM    9  C   UNL     1     -44.398  59.136 -52.430  1.00  0.00     0.055 C 
HETATM   10  C   UNL     1     -43.243  58.665 -51.507  1.00  0.00     0.012 C 
HETATM   11  C   UNL     1     -41.971  59.621 -51.529  1.00  0.00     0.008 C 
HETATM   12  C   UNL     1     -42.308  60.823 -50.589  1.00  0.00     0.020 C 
HETATM   13  C   UNL     1     -40.720  58.912 -50.931  1.00  0.00     0.128 C 
HETATM   14  C   UNL     1     -41.102  57.807 -49.954  1.00  0.00     0.033 C 
HETATM   15  C   UNL     1     -41.808  56.660 -50.671  1.00  0.00     0.013 C 
ENDROOT
BRANCH   3  16
HETATM   16  C   UNL     1     -42.780  55.059 -53.213  1.00  0.00     0.114 C 
BRANCH  16  17
HETATM   17  C   UNL     1     -41.424  54.523 -53.615  1.00  0.00     0.218 C 
HETATM   18  N   UNL     1     -41.294  53.160 -53.535  1.00  0.00    -0.359 N 
HETATM   19  H   UNL     1     -42.159  52.613 -53.579  1.00  0.00     0.162 HD
HETATM   20  O   UNL     1     -40.523  55.281 -53.975  1.00  0.00    -0.274 OA
BRANCH  18  21
HETATM   21  C   UNL     1     -40.052  52.513 -53.917  1.00  0.00     0.148 C 
BRANCH  21  22
HETATM   22  C   UNL     1     -39.487  51.567 -52.854  1.00  0.00     0.186 C 
BRANCH  22  23
HETATM   23  O   UNL     1     -39.772  50.194 -53.139  1.00  0.00    -0.394 OA
HETATM   24  C   UNL     1     -39.795  49.918 -54.534  1.00  0.00     0.201 C 
ENDBRANCH  22  23
ENDBRANCH  21  22
ENDBRANCH  18  21
ENDBRANCH  16  17
ENDBRANCH   3  16
BRANCH  11  25
HETATM   25  C   UNL     1     -41.633  60.269 -52.900  1.00  0.00     0.176 C 
BRANCH  25  26
HETATM   26  O   UNL     1     -40.920  59.410 -53.769  1.00  0.00    -0.400 OA
HETATM   27  H   UNL     1     -40.025  59.328 -53.370  1.00  0.00     0.209 HD
ENDBRANCH  25  26
ENDBRANCH  11  25
BRANCH   7  28
HETATM   28  N   UNL     1     -45.283  57.493 -57.182  1.00  0.00    -0.305 N 
HETATM   29  C   UNL     1     -44.548  57.690 -58.328  1.00  0.00     0.231 C 
HETATM   30  O   UNL     1     -43.366  58.027 -58.355  1.00  0.00    -0.272 OA
HETATM   31  H   UNL     1     -46.217  57.119 -57.219  1.00  0.00     0.171 HD
BRANCH  29  32
HETATM   32  C   UNL     1     -45.356  57.462 -59.628  1.00  0.00     0.030 C 
HETATM   33  C   UNL     1     -46.809  57.121 -59.267  1.00  0.00     0.025 C 
HETATM   34  C   UNL     1     -45.339  58.748 -60.475  1.00  0.00     0.025 C 
HETATM   35  C   UNL     1     -44.746  56.327 -60.469  1.00  0.00     0.025 C 
ENDBRANCH  29  32
ENDBRANCH   7  28
BRANCH  13  36
HETATM   36  O   UNL     1     -39.902  58.355 -51.964  1.00  0.00    -0.395 OA
HETATM   37  H   UNL     1     -40.155  57.420 -52.074  1.00  0.00     0.210 HD
ENDBRANCH  13  36
TORSDOF 10
ENDMDL
MODEL 4
REMARK VINA RESULT:      -6.6      1.372      1.631
REMARK  10 active torsions:
REMARK  status: ('A' for Active; 'I' for Inactive)
REMARK    1  A    between atoms: C_3  and  C_4 
REMARK    2  A    between atoms: C_4  and  C_5 
REMARK       I    between atoms: C_5  and  N_6 
REMARK    3  A    between atoms: N_6  and  C_7 
REMARK    4  A    between atoms: C_7  and  C_8 
REMARK    5  A    between atoms: C_8  and  O_9 
REMARK    6  A    between atoms: C_15  and  N_16 
REMARK       I    between atoms: N_16  and  C_17 
REMARK    7  A    between atoms: C_17  and  C_18 
REMARK    8  A    between atoms: C_26  and  C_27 
REMARK    9  A    between atoms: C_27  and  O_28 
REMARK   10  A    between atoms: C_30  and  O_31 
ROOT
HETATM    1  C   UNL     1     -40.269  58.420 -53.207  1.00  0.00     0.016 C 
HETATM    2  C   UNL     1     -41.420  57.622 -52.514  1.00  0.00    -0.030 C 
HETATM    3  C   UNL     1     -42.817  58.157 -53.045  1.00  0.00     0.056 C 
HETATM    4  C   UNL     1     -43.109  57.619 -54.426  1.00  0.00     0.056 A 
HETATM    5  C   UNL     1     -42.481  56.510 -54.957  1.00  0.00     0.012 A 
HETATM    6  S   UNL     1     -43.169  56.098 -56.456  1.00  0.00    -0.055 SA
HETATM    7  C   UNL     1     -44.155  57.489 -56.348  1.00  0.00     0.173 A 
HETATM    8  N   UNL     1     -44.048  58.209 -55.259  1.00  0.00    -0.227 NA
HETATM    9  C   UNL     1     -41.349  55.764 -54.354  1.00  0.00     0.055 C 
HETATM   10  C   UNL     1     -41.197  56.080 -52.843  1.00  0.00     0.012 C 
HETATM   11  C   UNL     1     -41.879  55.005 -51.889  1.00  0.00     0.008 C 
HETATM   12  C   UNL     1     -40.883  53.805 -51.796  1.00  0.00     0.020 C 
HETATM   13  C   UNL     1     -42.057  55.562 -50.445  1.00  0.00     0.128 C 
HETATM   14  C   UNL     1     -41.048  56.659 -50.127  1.00  0.00     0.033 C 
HETATM   15  C   UNL     1     -41.296  57.899 -50.982  1.00  0.00     0.013 C 
ENDROOT
BRANCH   3  16
HETATM   16  C   UNL     1     -42.951  59.690 -52.987  1.00  0.00     0.114 C 
BRANCH  16  17
HETATM   17  C   UNL     1     -44.138  60.101 -52.144  1.00  0.00     0.218 C 
HETATM   18  N   UNL     1     -45.324  60.205 -52.827  1.00  0.00    -0.359 N 
HETATM   19  H   UNL     1     -45.400  59.671 -53.698  1.00  0.00     0.162 HD
HETATM   20  O   UNL     1     -44.015  60.326 -50.941  1.00  0.00    -0.274 OA
BRANCH  18  21
HETATM   21  C   UNL     1     -46.546  60.566 -52.133  1.00  0.00     0.148 C 
BRANCH  21  22
HETATM   22  C   UNL     1     -47.108  61.935 -52.527  1.00  0.00     0.186 C 
BRANCH  22  23
HETATM   23  O   UNL     1     -47.538  62.695 -51.394  1.00  0.00    -0.394 OA
HETATM   24  C   UNL     1     -46.663  62.562 -50.281  1.00  0.00     0.201 C 
ENDBRANCH  22  23
ENDBRANCH  21  22
ENDBRANCH  18  21
ENDBRANCH  16  17
ENDBRANCH   3  16
BRANCH  11  25
HETATM   25  C   UNL     1     -43.206  54.384 -52.406  1.00  0.00     0.176 C 
BRANCH  25  26
HETATM   26  O   UNL     1     -43.937  53.701 -51.406  1.00  0.00    -0.400 OA
HETATM   27  H   UNL     1     -44.789  53.460 -51.831  1.00  0.00     0.209 HD
ENDBRANCH  25  26
ENDBRANCH  11  25
BRANCH   7  28
HETATM   28  N   UNL     1     -44.918  57.680 -57.463  1.00  0.00    -0.305 N 
HETATM   29  C   UNL     1     -44.500  58.449 -58.524  1.00  0.00     0.231 C 
HETATM   30  O   UNL     1     -43.452  59.089 -58.558  1.00  0.00    -0.272 OA
HETATM   31  H   UNL     1     -45.736  57.097 -57.530  1.00  0.00     0.171 HD
BRANCH  29  32
HETATM   32  C   UNL     1     -45.494  58.457 -59.711  1.00  0.00     0.030 C 
HETATM   33  C   UNL     1     -45.506  57.071 -60.371  1.00  0.00     0.025 C 
HETATM   34  C   UNL     1     -46.909  58.777 -59.193  1.00  0.00     0.025 C 
HETATM   35  C   UNL     1     -45.111  59.527 -60.748  1.00  0.00     0.025 C 
ENDBRANCH  29  32
ENDBRANCH   7  28
BRANCH  13  36
HETATM   36  O   UNL     1     -43.378  56.078 -50.253  1.00  0.00    -0.395 OA
HETATM   37  H   UNL     1     -43.992  55.321 -50.226  1.00  0.00     0.210 HD
ENDBRANCH  13  36
TORSDOF 10
ENDMDL
MODEL 5
REMARK VINA RESULT:      -6.3      2.969      7.336
REMARK  10 active torsions:
REMARK  status: ('A' for Active; 'I' for Inactive)
REMARK    1  A    between atoms: C_3  and  C_4 
REMARK    2  A    between atoms: C_4  and  C_5 
REMARK       I    between atoms: C_5  and  N_6 
REMARK    3  A    between atoms: N_6  and  C_7 
REMARK    4  A    between atoms: C_7  and  C_8 
REMARK    5  A    between atoms: C_8  and  O_9 
REMARK    6  A    between atoms: C_15  and  N_16 
REMARK       I    between atoms: N_16  and  C_17 
REMARK    7  A    between atoms: C_17  and  C_18 
REMARK    8  A    between atoms: C_26  and  C_27 
REMARK    9  A    between atoms: C_27  and  O_28 
REMARK   10  A    between atoms: C_30  and  O_31 
ROOT
HETATM    1  C   UNL     1     -40.763  59.384 -53.586  1.00  0.00     0.016 C 
HETATM    2  C   UNL     1     -42.282  59.016 -53.612  1.00  0.00    -0.030 C 
HETATM    3  C   UNL     1     -42.472  57.643 -54.388  1.00  0.00     0.056 C 
HETATM    4  C   UNL     1     -42.076  56.474 -53.517  1.00  0.00     0.056 A 
HETATM    5  C   UNL     1     -41.983  56.550 -52.142  1.00  0.00     0.012 A 
HETATM    6  S   UNL     1     -41.675  55.014 -51.482  1.00  0.00    -0.055 SA
HETATM    7  C   UNL     1     -41.563  54.392 -53.069  1.00  0.00     0.173 A 
HETATM    8  N   UNL     1     -41.787  55.228 -54.052  1.00  0.00    -0.227 NA
HETATM    9  C   UNL     1     -42.103  57.776 -51.316  1.00  0.00     0.055 C 
HETATM   10  C   UNL     1     -42.778  58.931 -52.101  1.00  0.00     0.012 C 
HETATM   11  C   UNL     1     -44.336  59.078 -51.816  1.00  0.00     0.008 C 
HETATM   12  C   UNL     1     -44.464  59.849 -50.463  1.00  0.00     0.020 C 
HETATM   13  C   UNL     1     -45.031  59.950 -52.905  1.00  0.00     0.128 C 
HETATM   14  C   UNL     1     -44.057  60.916 -53.570  1.00  0.00     0.033 C 
HETATM   15  C   UNL     1     -43.007  60.163 -54.383  1.00  0.00     0.013 C 
ENDROOT
BRANCH   3  16
HETATM   16  C   UNL     1     -41.762  57.607 -55.754  1.00  0.00     0.114 C 
BRANCH  16  17
HETATM   17  C   UNL     1     -42.727  57.237 -56.859  1.00  0.00     0.218 C 
HETATM   18  N   UNL     1     -42.548  55.984 -57.388  1.00  0.00    -0.359 N 
HETATM   19  H   UNL     1     -42.072  55.298 -56.794  1.00  0.00     0.162 HD
HETATM   20  O   UNL     1     -43.591  58.027 -57.238  1.00  0.00    -0.274 OA
BRANCH  18  21
HETATM   21  C   UNL     1     -43.422  55.494 -58.438  1.00  0.00     0.148 C 
BRANCH  21  22
HETATM   22  C   UNL     1     -43.010  55.927 -59.847  1.00  0.00     0.186 C 
BRANCH  22  23
HETATM   23  O   UNL     1     -44.020  55.644 -60.821  1.00  0.00    -0.394 OA
HETATM   24  C   UNL     1     -45.123  54.931 -60.276  1.00  0.00     0.201 C 
ENDBRANCH  22  23
ENDBRANCH  21  22
ENDBRANCH  18  21
ENDBRANCH  16  17
ENDBRANCH   3  16
BRANCH  11  25
HETATM   25  C   UNL     1     -45.114  57.752 -51.596  1.00  0.00     0.176 C 
BRANCH  25  26
HETATM   26  O   UNL     1     -45.079  57.292 -50.259  1.00  0.00    -0.400 OA
HETATM   27  H   UNL     1     -46.010  57.338 -49.948  1.00  0.00     0.209 HD
ENDBRANCH  25  26
ENDBRANCH  11  25
BRANCH   7  28
HETATM   28  N   UNL     1     -41.211  53.073 -53.093  1.00  0.00    -0.305 N 
HETATM   29  C   UNL     1     -40.374  52.546 -54.048  1.00  0.00     0.231 C 
HETATM   30  O   UNL     1     -39.916  53.171 -55.002  1.00  0.00    -0.272 OA
HETATM   31  H   UNL     1     -41.474  52.543 -52.278  1.00  0.00     0.171 HD
BRANCH  29  32
HETATM   32  C   UNL     1     -40.051  51.048 -53.830  1.00  0.00     0.030 C 
HETATM   33  C   UNL     1     -41.242  50.201 -54.302  1.00  0.00     0.025 C 
HETATM   34  C   UNL     1     -38.808  50.665 -54.653  1.00  0.00     0.025 C 
HETATM   35  C   UNL     1     -39.754  50.754 -52.349  1.00  0.00     0.025 C 
ENDBRANCH  29  32
ENDBRANCH   7  28
BRANCH  13  36
HETATM   36  O   UNL     1     -45.633  59.132 -53.911  1.00  0.00    -0.395 OA
HETATM   37  H   UNL     1     -46.409  58.694 -53.515  1.00  0.00     0.210 HD
ENDBRANCH  13  36
TORSDOF 10
ENDMDL
MODEL 6
REMARK VINA RESULT:      -6.3      4.018      8.815
REMARK  10 active torsions:
REMARK  status: ('A' for Active; 'I' for Inactive)
REMARK    1  A    between atoms: C_3  and  C_4 
REMARK    2  A    between atoms: C_4  and  C_5 
REMARK       I    between atoms: C_5  and  N_6 
REMARK    3  A    between atoms: N_6  and  C_7 
REMARK    4  A    between atoms: C_7  and  C_8 
REMARK    5  A    between atoms: C_8  and  O_9 
REMARK    6  A    between atoms: C_15  and  N_16 
REMARK       I    between atoms: N_16  and  C_17 
REMARK    7  A    between atoms: C_17  and  C_18 
REMARK    8  A    between atoms: C_26  and  C_27 
REMARK    9  A    between atoms: C_27  and  O_28 
REMARK   10  A    between atoms: C_30  and  O_31 
ROOT
HETATM    1  C   UNL     1     -45.345  60.689 -57.723  1.00  0.00     0.016 C 
HETATM    2  C   UNL     1     -44.075  60.208 -58.496  1.00  0.00    -0.030 C 
HETATM    3  C   UNL     1     -42.780  60.599 -57.665  1.00  0.00     0.056 C 
HETATM    4  C   UNL     1     -42.582  59.656 -56.502  1.00  0.00     0.056 A 
HETATM    5  C   UNL     1     -43.171  58.409 -56.427  1.00  0.00     0.012 A 
HETATM    6  S   UNL     1     -42.600  57.563 -55.067  1.00  0.00    -0.055 SA
HETATM    7  C   UNL     1     -41.718  58.954 -54.614  1.00  0.00     0.173 A 
HETATM    8  N   UNL     1     -41.775  59.983 -55.423  1.00  0.00    -0.227 NA
HETATM    9  C   UNL     1     -44.179  57.853 -57.361  1.00  0.00     0.055 C 
HETATM   10  C   UNL     1     -44.210  58.634 -58.701  1.00  0.00     0.012 C 
HETATM   11  C   UNL     1     -43.358  57.955 -59.861  1.00  0.00     0.008 C 
HETATM   12  C   UNL     1     -44.246  56.809 -60.444  1.00  0.00     0.020 C 
HETATM   13  C   UNL     1     -43.086  58.957 -61.023  1.00  0.00     0.128 C 
HETATM   14  C   UNL     1     -44.141  60.054 -61.091  1.00  0.00     0.033 C 
HETATM   15  C   UNL     1     -44.072  60.959 -59.864  1.00  0.00     0.013 C 
ENDROOT
BRANCH   3  16
HETATM   16  C   UNL     1     -42.759  62.073 -57.218  1.00  0.00     0.114 C 
BRANCH  16  17
HETATM   17  C   UNL     1     -41.663  62.840 -57.924  1.00  0.00     0.218 C 
HETATM   18  N   UNL     1     -40.847  62.079 -58.722  1.00  0.00    -0.359 N 
HETATM   19  H   UNL     1     -41.233  61.194 -59.063  1.00  0.00     0.162 HD
HETATM   20  O   UNL     1     -41.534  64.054 -57.766  1.00  0.00    -0.274 OA
BRANCH  18  21
HETATM   21  C   UNL     1     -39.770  62.695 -59.476  1.00  0.00     0.148 C 
BRANCH  21  22
HETATM   22  C   UNL     1     -40.169  63.143 -60.884  1.00  0.00     0.186 C 
BRANCH  22  23
HETATM   23  O   UNL     1     -41.281  62.402 -61.398  1.00  0.00    -0.394 OA
HETATM   24  C   UNL     1     -41.410  62.517 -62.809  1.00  0.00     0.201 C 
ENDBRANCH  22  23
ENDBRANCH  21  22
ENDBRANCH  18  21
ENDBRANCH  16  17
ENDBRANCH   3  16
BRANCH  11  25
HETATM   25  C   UNL     1     -42.044  57.256 -59.419  1.00  0.00     0.176 C 
BRANCH  25  26
HETATM   26  O   UNL     1     -41.369  56.601 -60.475  1.00  0.00    -0.400 OA
HETATM   27  H   UNL     1     -41.034  57.323 -61.052  1.00  0.00     0.209 HD
ENDBRANCH  25  26
ENDBRANCH  11  25
BRANCH   7  28
HETATM   28  N   UNL     1     -41.083  58.806 -53.415  1.00  0.00    -0.305 N 
HETATM   29  C   UNL     1     -41.630  59.234 -52.228  1.00  0.00     0.231 C 
HETATM   30  O   UNL     1     -42.692  59.843 -52.123  1.00  0.00    -0.272 OA
HETATM   31  H   UNL     1     -40.262  58.223 -53.433  1.00  0.00     0.171 HD
BRANCH  29  32
HETATM   32  C   UNL     1     -40.767  58.888 -50.989  1.00  0.00     0.030 C 
HETATM   33  C   UNL     1     -39.298  59.218 -51.289  1.00  0.00     0.025 C 
HETATM   34  C   UNL     1     -41.235  59.730 -49.788  1.00  0.00     0.025 C 
HETATM   35  C   UNL     1     -40.904  57.402 -50.615  1.00  0.00     0.025 C 
ENDBRANCH  29  32
ENDBRANCH   7  28
BRANCH  13  36
HETATM   36  O   UNL     1     -41.796  59.561 -60.888  1.00  0.00    -0.395 OA
HETATM   37  H   UNL     1     -41.846  60.458 -61.268  1.00  0.00     0.210 HD
ENDBRANCH  13  36
TORSDOF 10
ENDMDL
MODEL 7
REMARK VINA RESULT:      -6.3      2.987      8.063
REMARK  10 active torsions:
REMARK  status: ('A' for Active; 'I' for Inactive)
REMARK    1  A    between atoms: C_3  and  C_4 
REMARK    2  A    between atoms: C_4  and  C_5 
REMARK       I    between atoms: C_5  and  N_6 
REMARK    3  A    between atoms: N_6  and  C_7 
REMARK    4  A    between atoms: C_7  and  C_8 
REMARK    5  A    between atoms: C_8  and  O_9 
REMARK    6  A    between atoms: C_15  and  N_16 
REMARK       I    between atoms: N_16  and  C_17 
REMARK    7  A    between atoms: C_17  and  C_18 
REMARK    8  A    between atoms: C_26  and  C_27 
REMARK    9  A    between atoms: C_27  and  O_28 
REMARK   10  A    between atoms: C_30  and  O_31 
ROOT
HETATM    1  C   UNL     1     -42.180  58.210 -59.257  1.00  0.00     0.016 C 
HETATM    2  C   UNL     1     -43.608  57.789 -58.782  1.00  0.00    -0.030 C 
HETATM    3  C   UNL     1     -43.489  57.002 -57.408  1.00  0.00     0.056 C 
HETATM    4  C   UNL     1     -43.252  57.955 -56.261  1.00  0.00     0.056 A 
HETATM    5  C   UNL     1     -43.528  59.306 -56.328  1.00  0.00     0.012 A 
HETATM    6  S   UNL     1     -43.295  60.036 -54.810  1.00  0.00    -0.055 SA
HETATM    7  C   UNL     1     -42.726  58.539 -54.215  1.00  0.00     0.173 A 
HETATM    8  N   UNL     1     -42.744  57.525 -55.044  1.00  0.00    -0.227 NA
HETATM    9  C   UNL     1     -43.949  60.062 -57.532  1.00  0.00     0.055 C 
HETATM   10  C   UNL     1     -44.476  59.118 -58.645  1.00  0.00     0.012 C 
HETATM   11  C   UNL     1     -46.060  58.983 -58.677  1.00  0.00     0.008 C 
HETATM   12  C   UNL     1     -46.594  60.248 -59.422  1.00  0.00     0.020 C 
HETATM   13  C   UNL     1     -46.506  57.743 -59.510  1.00  0.00     0.128 C 
HETATM   14  C   UNL     1     -45.464  57.349 -60.550  1.00  0.00     0.033 C 
HETATM   15  C   UNL     1     -44.186  56.846 -59.883  1.00  0.00     0.013 C 
ENDROOT
BRANCH   3  16
HETATM   16  C   UNL     1     -42.444  55.870 -57.438  1.00  0.00     0.114 C 
BRANCH  16  17
HETATM   17  C   UNL     1     -42.543  55.006 -56.200  1.00  0.00     0.218 C 
HETATM   18  N   UNL     1     -41.386  54.910 -55.468  1.00  0.00    -0.359 N 
HETATM   19  H   UNL     1     -40.706  55.668 -55.582  1.00  0.00     0.162 HD
HETATM   20  O   UNL     1     -43.594  54.440 -55.903  1.00  0.00    -0.274 OA
BRANCH  18  21
HETATM   21  C   UNL     1     -41.350  54.133 -54.243  1.00  0.00     0.148 C 
BRANCH  21  22
HETATM   22  C   UNL     1     -40.905  52.681 -54.437  1.00  0.00     0.186 C 
BRANCH  22  23
HETATM   23  O   UNL     1     -39.930  52.276 -53.470  1.00  0.00    -0.394 OA
HETATM   24  C   UNL     1     -40.225  52.751 -52.163  1.00  0.00     0.201 C 
ENDBRANCH  22  23
ENDBRANCH  21  22
ENDBRANCH  18  21
ENDBRANCH  16  17
ENDBRANCH   3  16
BRANCH  11  25
HETATM   25  C   UNL     1     -46.772  59.002 -57.297  1.00  0.00     0.176 C 
BRANCH  25  26
HETATM   26  O   UNL     1     -46.618  57.800 -56.566  1.00  0.00    -0.400 OA
HETATM   27  H   UNL     1     -47.533  57.480 -56.405  1.00  0.00     0.209 HD
ENDBRANCH  25  26
ENDBRANCH  11  25
BRANCH   7  28
HETATM   28  N   UNL     1     -42.287  58.619 -52.926  1.00  0.00    -0.305 N 
HETATM   29  C   UNL     1     -40.985  58.924 -52.603  1.00  0.00     0.231 C 
HETATM   30  O   UNL     1     -40.080  59.086 -53.417  1.00  0.00    -0.272 OA
HETATM   31  H   UNL     1     -43.008  58.598 -52.223  1.00  0.00     0.171 HD
BRANCH  29  32
HETATM   32  C   UNL     1     -40.736  59.038 -51.079  1.00  0.00     0.030 C 
HETATM   33  C   UNL     1     -41.015  57.680 -50.418  1.00  0.00     0.025 C 
HETATM   34  C   UNL     1     -39.267  59.424 -50.828  1.00  0.00     0.025 C 
HETATM   35  C   UNL     1     -41.630  60.120 -50.450  1.00  0.00     0.025 C 
ENDBRANCH  29  32
ENDBRANCH   7  28
BRANCH  13  36
HETATM   36  O   UNL     1     -46.763  56.620 -58.662  1.00  0.00    -0.395 OA
HETATM   37  H   UNL     1     -47.400  56.901 -57.979  1.00  0.00     0.210 HD
ENDBRANCH  13  36
TORSDOF 10
ENDMDL
MODEL 8
REMARK VINA RESULT:      -6.2      3.191      5.241
REMARK  10 active torsions:
REMARK  status: ('A' for Active; 'I' for Inactive)
REMARK    1  A    between atoms: C_3  and  C_4 
REMARK    2  A    between atoms: C_4  and  C_5 
REMARK       I    between atoms: C_5  and  N_6 
REMARK    3  A    between atoms: N_6  and  C_7 
REMARK    4  A    between atoms: C_7  and  C_8 
REMARK    5  A    between atoms: C_8  and  O_9 
REMARK    6  A    between atoms: C_15  and  N_16 
REMARK       I    between atoms: N_16  and  C_17 
REMARK    7  A    between atoms: C_17  and  C_18 
REMARK    8  A    between atoms: C_26  and  C_27 
REMARK    9  A    between atoms: C_27  and  O_28 
REMARK   10  A    between atoms: C_30  and  O_31 
ROOT
HETATM    1  C   UNL     1     -44.871  57.758 -52.540  1.00  0.00     0.016 C 
HETATM    2  C   UNL     1     -43.351  57.401 -52.464  1.00  0.00    -0.030 C 
HETATM    3  C   UNL     1     -42.859  56.911 -53.892  1.00  0.00     0.056 C 
HETATM    4  C   UNL     1     -42.664  58.083 -54.825  1.00  0.00     0.056 A 
HETATM    5  C   UNL     1     -42.516  59.384 -54.388  1.00  0.00     0.012 A 
HETATM    6  S   UNL     1     -42.156  60.412 -55.694  1.00  0.00    -0.055 SA
HETATM    7  C   UNL     1     -42.349  59.082 -56.750  1.00  0.00     0.173 A 
HETATM    8  N   UNL     1     -42.611  57.922 -56.202  1.00  0.00    -0.227 NA
HETATM    9  C   UNL     1     -42.663  59.869 -52.995  1.00  0.00     0.055 C 
HETATM   10  C   UNL     1     -42.579  58.705 -51.972  1.00  0.00     0.012 C 
HETATM   11  C   UNL     1     -41.139  58.521 -51.323  1.00  0.00     0.008 C 
HETATM   12  C   UNL     1     -41.026  59.595 -50.194  1.00  0.00     0.020 C 
HETATM   13  C   UNL     1     -40.999  57.127 -50.642  1.00  0.00     0.128 C 
HETATM   14  C   UNL     1     -42.349  56.561 -50.217  1.00  0.00     0.033 C 
HETATM   15  C   UNL     1     -43.216  56.239 -51.431  1.00  0.00     0.013 C 
ENDROOT
BRANCH   3  16
HETATM   16  C   UNL     1     -43.759  55.827 -54.513  1.00  0.00     0.114 C 
BRANCH  16  17
HETATM   17  C   UNL     1     -42.940  54.652 -54.998  1.00  0.00     0.218 C 
HETATM   18  N   UNL     1     -42.301  53.945 -54.011  1.00  0.00    -0.359 N 
HETATM   19  H   UNL     1     -42.695  54.015 -53.068  1.00  0.00     0.162 HD
HETATM   20  O   UNL     1     -42.866  54.380 -56.196  1.00  0.00    -0.274 OA
BRANCH  18  21
HETATM   21  C   UNL     1     -41.501  52.779 -54.337  1.00  0.00     0.148 C 
BRANCH  21  22
HETATM   22  C   UNL     1     -40.268  52.597 -53.449  1.00  0.00     0.186 C 
BRANCH  22  23
HETATM   23  O   UNL     1     -40.326  53.397 -52.264  1.00  0.00    -0.394 OA
HETATM   24  C   UNL     1     -40.076  52.646 -51.083  1.00  0.00     0.201 C 
ENDBRANCH  22  23
ENDBRANCH  21  22
ENDBRANCH  18  21
ENDBRANCH  16  17
ENDBRANCH   3  16
BRANCH  11  25
HETATM   25  C   UNL     1     -39.932  58.798 -52.261  1.00  0.00     0.176 C 
BRANCH  25  26
HETATM   26  O   UNL     1     -38.905  59.556 -51.651  1.00  0.00    -0.400 OA
HETATM   27  H   UNL     1     -39.117  59.548 -50.691  1.00  0.00     0.209 HD
ENDBRANCH  25  26
ENDBRANCH  11  25
BRANCH   7  28
HETATM   28  N   UNL     1     -42.232  59.433 -58.063  1.00  0.00    -0.305 N 
HETATM   29  C   UNL     1     -43.321  59.698 -58.860  1.00  0.00     0.231 C 
HETATM   30  O   UNL     1     -44.493  59.586 -58.508  1.00  0.00    -0.272 OA
HETATM   31  H   UNL     1     -41.296  59.640 -58.372  1.00  0.00     0.171 HD
BRANCH  29  32
HETATM   32  C   UNL     1     -42.945  60.154 -60.291  1.00  0.00     0.030 C 
HETATM   33  C   UNL     1     -42.263  61.528 -60.221  1.00  0.00     0.025 C 
HETATM   34  C   UNL     1     -41.967  59.140 -60.912  1.00  0.00     0.025 C 
HETATM   35  C   UNL     1     -44.190  60.234 -61.193  1.00  0.00     0.025 C 
ENDBRANCH  29  32
ENDBRANCH   7  28
BRANCH  13  36
HETATM   36  O   UNL     1     -40.357  56.192 -51.513  1.00  0.00    -0.395 OA
HETATM   37  H   UNL     1     -39.519  55.920 -51.094  1.00  0.00     0.210 HD
ENDBRANCH  13  36
TORSDOF 10
ENDMDL
MODEL 9
REMARK VINA RESULT:      -6.2      3.631      6.163
REMARK  10 active torsions:
REMARK  status: ('A' for Active; 'I' for Inactive)
REMARK    1  A    between atoms: C_3  and  C_4 
REMARK    2  A    between atoms: C_4  and  C_5 
REMARK       I    between atoms: C_5  and  N_6 
REMARK    3  A    between atoms: N_6  and  C_7 
REMARK    4  A    between atoms: C_7  and  C_8 
REMARK    5  A    between atoms: C_8  and  O_9 
REMARK    6  A    between atoms: C_15  and  N_16 
REMARK       I    between atoms: N_16  and  C_17 
REMARK    7  A    between atoms: C_17  and  C_18 
REMARK    8  A    between atoms: C_26  and  C_27 
REMARK    9  A    between atoms: C_27  and  O_28 
REMARK   10  A    between atoms: C_30  and  O_31 
ROOT
HETATM    1  C   UNL     1     -45.426  57.259 -54.754  1.00  0.00     0.016 C 
HETATM    2  C   UNL     1     -43.973  57.452 -54.210  1.00  0.00    -0.030 C 
HETATM    3  C   UNL     1     -42.971  57.577 -55.435  1.00  0.00     0.056 C 
HETATM    4  C   UNL     1     -43.052  58.949 -56.060  1.00  0.00     0.056 A 
HETATM    5  C   UNL     1     -43.583  60.048 -55.412  1.00  0.00     0.012 A 
HETATM    6  S   UNL     1     -43.364  61.451 -56.346  1.00  0.00    -0.055 SA
HETATM    7  C   UNL     1     -42.702  60.482 -57.587  1.00  0.00     0.173 A 
HETATM    8  N   UNL     1     -42.583  59.201 -57.340  1.00  0.00    -0.227 NA
HETATM    9  C   UNL     1     -44.275  60.049 -54.100  1.00  0.00     0.055 C 
HETATM   10  C   UNL     1     -43.976  58.756 -53.295  1.00  0.00     0.012 C 
HETATM   11  C   UNL     1     -42.813  58.920 -52.222  1.00  0.00     0.008 C 
HETATM   12  C   UNL     1     -43.457  59.613 -50.979  1.00  0.00     0.020 C 
HETATM   13  C   UNL     1     -42.282  57.534 -51.748  1.00  0.00     0.128 C 
HETATM   14  C   UNL     1     -43.328  56.437 -51.905  1.00  0.00     0.033 C 
HETATM   15  C   UNL     1     -43.634  56.176 -53.377  1.00  0.00     0.013 C 
ENDROOT
BRANCH   3  16
HETATM   16  C   UNL     1     -43.138  56.460 -56.482  1.00  0.00     0.114 C 
BRANCH  16  17
HETATM   17  C   UNL     1     -42.486  55.176 -56.017  1.00  0.00     0.218 C 
HETATM   18  N   UNL     1     -41.169  55.297 -55.652  1.00  0.00    -0.359 N 
HETATM   19  H   UNL     1     -40.853  56.230 -55.373  1.00  0.00     0.162 HD
HETATM   20  O   UNL     1     -43.115  54.119 -55.987  1.00  0.00    -0.274 OA
BRANCH  18  21
HETATM   21  C   UNL     1     -40.431  54.146 -55.163  1.00  0.00     0.148 C 
BRANCH  21  22
HETATM   22  C   UNL     1     -40.469  53.979 -53.641  1.00  0.00     0.186 C 
BRANCH  22  23
HETATM   23  O   UNL     1     -40.629  52.614 -53.246  1.00  0.00    -0.394 OA
HETATM   24  C   UNL     1     -40.287  51.700 -54.281  1.00  0.00     0.201 C 
ENDBRANCH  22  23
ENDBRANCH  21  22
ENDBRANCH  18  21
ENDBRANCH  16  17
ENDBRANCH   3  16
BRANCH  11  25
HETATM   25  C   UNL     1     -41.637  59.848 -52.633  1.00  0.00     0.176 C 
BRANCH  25  26
HETATM   26  O   UNL     1     -40.518  59.755 -51.773  1.00  0.00    -0.400 OA
HETATM   27  H   UNL     1     -40.735  59.028 -51.147  1.00  0.00     0.209 HD
ENDBRANCH  25  26
ENDBRANCH  11  25
BRANCH   7  28
HETATM   28  N   UNL     1     -42.408  61.196 -58.712  1.00  0.00    -0.305 N 
HETATM   29  C   UNL     1     -41.164  61.736 -58.943  1.00  0.00     0.231 C 
HETATM   30  O   UNL     1     -40.223  61.696 -58.155  1.00  0.00    -0.272 OA
HETATM   31  H   UNL     1     -43.109  61.169 -59.434  1.00  0.00     0.171 HD
BRANCH  29  32
HETATM   32  C   UNL     1     -41.040  62.435 -60.319  1.00  0.00     0.030 C 
HETATM   33  C   UNL     1     -41.344  61.420 -61.431  1.00  0.00     0.025 C 
HETATM   34  C   UNL     1     -42.056  63.588 -60.403  1.00  0.00     0.025 C 
HETATM   35  C   UNL     1     -39.631  63.022 -60.518  1.00  0.00     0.025 C 
ENDBRANCH  29  32
ENDBRANCH   7  28
BRANCH  13  36
HETATM   36  O   UNL     1     -41.106  57.160 -52.471  1.00  0.00    -0.395 OA
HETATM   37  H   UNL     1     -40.851  56.264 -52.184  1.00  0.00     0.210 HD
ENDBRANCH  13  36
TORSDOF 10
ENDMDL
MODEL 10
REMARK VINA RESULT:      -6.0      1.650      2.099
REMARK  10 active torsions:
REMARK  status: ('A' for Active; 'I' for Inactive)
REMARK    1  A    between atoms: C_3  and  C_4 
REMARK    2  A    between atoms: C_4  and  C_5 
REMARK       I    between atoms: C_5  and  N_6 
REMARK    3  A    between atoms: N_6  and  C_7 
REMARK    4  A    between atoms: C_7  and  C_8 
REMARK    5  A    between atoms: C_8  and  O_9 
REMARK    6  A    between atoms: C_15  and  N_16 
REMARK       I    between atoms: N_16  and  C_17 
REMARK    7  A    between atoms: C_17  and  C_18 
REMARK    8  A    between atoms: C_26  and  C_27 
REMARK    9  A    between atoms: C_27  and  O_28 
REMARK   10  A    between atoms: C_30  and  O_31 
ROOT
HETATM    1  C   UNL     1     -39.696  58.524 -53.008  1.00  0.00     0.016 C 
HETATM    2  C   UNL     1     -41.059  57.957 -52.495  1.00  0.00    -0.030 C 
HETATM    3  C   UNL     1     -42.247  58.795 -53.135  1.00  0.00     0.056 C 
HETATM    4  C   UNL     1     -42.477  58.389 -54.571  1.00  0.00     0.056 A 
HETATM    5  C   UNL     1     -42.031  57.196 -55.104  1.00  0.00     0.012 A 
HETATM    6  S   UNL     1     -42.608  57.001 -56.692  1.00  0.00    -0.055 SA
HETATM    7  C   UNL     1     -43.295  58.563 -56.597  1.00  0.00     0.173 A 
HETATM    8  N   UNL     1     -43.173  59.198 -55.458  1.00  0.00    -0.227 NA
HETATM    9  C   UNL     1     -41.153  56.205 -54.435  1.00  0.00     0.055 C 
HETATM   10  C   UNL     1     -41.118  56.418 -52.899  1.00  0.00     0.012 C 
HETATM   11  C   UNL     1     -42.112  55.471 -52.095  1.00  0.00     0.008 C 
HETATM   12  C   UNL     1     -41.400  54.086 -51.976  1.00  0.00     0.020 C 
HETATM   13  C   UNL     1     -42.341  55.991 -50.645  1.00  0.00     0.128 C 
HETATM   14  C   UNL     1     -41.174  56.837 -50.150  1.00  0.00     0.033 C 
HETATM   15  C   UNL     1     -41.062  58.136 -50.944  1.00  0.00     0.013 C 
ENDROOT
BRANCH   3  16
HETATM   16  C   UNL     1     -42.070  60.318 -52.991  1.00  0.00     0.114 C 
BRANCH  16  17
HETATM   17  C   UNL     1     -43.262  60.940 -52.295  1.00  0.00     0.218 C 
HETATM   18  N   UNL     1     -43.093  61.170 -50.953  1.00  0.00    -0.359 N 
HETATM   19  H   UNL     1     -42.128  61.259 -50.620  1.00  0.00     0.162 HD
HETATM   20  O   UNL     1     -44.293  61.201 -52.914  1.00  0.00    -0.274 OA
BRANCH  18  21
HETATM   21  C   UNL     1     -44.149  61.785 -50.172  1.00  0.00     0.148 C 
BRANCH  21  22
HETATM   22  C   UNL     1     -45.063  60.786 -49.457  1.00  0.00     0.186 C 
BRANCH  22  23
HETATM   23  O   UNL     1     -46.192  60.414 -50.252  1.00  0.00    -0.394 OA
HETATM   24  C   UNL     1     -46.069  59.109 -50.803  1.00  0.00     0.201 C 
ENDBRANCH  22  23
ENDBRANCH  21  22
ENDBRANCH  18  21
ENDBRANCH  16  17
ENDBRANCH   3  16
BRANCH  11  25
HETATM   25  C   UNL     1     -43.468  55.165 -52.789  1.00  0.00     0.176 C 
BRANCH  25  26
HETATM   26  O   UNL     1     -44.358  56.264 -52.798  1.00  0.00    -0.400 OA
HETATM   27  H   UNL     1     -43.894  56.965 -53.307  1.00  0.00     0.209 HD
ENDBRANCH  25  26
ENDBRANCH  11  25
BRANCH   7  28
HETATM   28  N   UNL     1     -43.867  58.957 -57.772  1.00  0.00    -0.305 N 
HETATM   29  C   UNL     1     -43.175  59.649 -58.738  1.00  0.00     0.231 C 
HETATM   30  O   UNL     1     -42.016  60.041 -58.627  1.00  0.00    -0.272 OA
HETATM   31  H   UNL     1     -44.780  58.573 -57.957  1.00  0.00     0.171 HD
BRANCH  29  32
HETATM   32  C   UNL     1     -44.002  59.919 -60.018  1.00  0.00     0.030 C 
HETATM   33  C   UNL     1     -44.824  61.203 -59.828  1.00  0.00     0.025 C 
HETATM   34  C   UNL     1     -43.051  60.106 -61.214  1.00  0.00     0.025 C 
HETATM   35  C   UNL     1     -44.940  58.740 -60.332  1.00  0.00     0.025 C 
ENDBRANCH  29  32
ENDBRANCH   7  28
BRANCH  13  36
HETATM   36  O   UNL     1     -43.542  56.764 -50.560  1.00  0.00    -0.395 OA
HETATM   37  H   UNL     1     -43.441  57.392 -49.821  1.00  0.00     0.210 HD
ENDBRANCH  13  36
TORSDOF 10
ENDMDL
