MODEL 1
REMARK VINA RESULT:      -7.9      0.000      0.000
REMARK  7 active torsions:
REMARK  status: ('A' for Active; 'I' for Inactive)
REMARK    1  A    between atoms: C_2  and  O_3 
REMARK    2  A    between atoms: O_3  and  C_4 
REMARK    3  A    between atoms: C_4  and  C_5 
REMARK    4  A    between atoms: C_6  and  C_7 
REMARK    5  A    between atoms: C_18  and  S_19 
REMARK    6  A    between atoms: S_19  and  C_20 
REMARK    7  A    between atoms: C_20  and  C_21 
ROOT
HETATM    1  C   UNL     1     -42.954  58.291 -55.506  1.00  0.00     0.070 A 
HETATM    2  C   UNL     1     -42.321  58.090 -54.133  1.00  0.00     0.203 A 
HETATM    3  N   UNL     1     -42.474  56.707 -53.669  1.00  0.00    -0.082 N 
HETATM    4  C   UNL     1     -43.078  55.717 -54.390  1.00  0.00     0.726 A 
HETATM    5  N   UNL     1     -43.586  56.002 -55.603  1.00  0.00    -0.192 N 
HETATM    6  N   UNL     1     -41.976  56.234 -52.507  1.00  0.00    -0.128 NA
HETATM    7  C   UNL     1     -42.383  54.959 -52.563  1.00  0.00     0.226 A 
HETATM    8  N   UNL     1     -43.040  54.600 -53.714  1.00  0.00    -0.035 NA
HETATM    9  C   UNL     1     -43.542  57.268 -56.175  1.00  0.00     0.037 A 
HETATM   10  C   UNL     1     -44.149  57.380 -57.553  1.00  0.00     0.070 C 
HETATM   11  H   UNL     1     -44.037  55.258 -56.131  1.00  0.00     0.184 HD
ENDROOT
BRANCH   7  12
HETATM   12  S   UNL     1     -42.066  53.821 -51.284  1.00  0.00    -0.083 SA
BRANCH  12  13
HETATM   13  C   UNL     1     -40.295  53.526 -51.554  1.00  0.00     0.123 C 
BRANCH  13  14
HETATM   14  C   UNL     1     -40.034  52.127 -52.062  1.00  0.00    -0.027 A 
HETATM   15  C   UNL     1     -39.948  51.813 -53.428  1.00  0.00     0.041 A 
HETATM   16 CL   UNL     1     -40.152  53.009 -54.658  1.00  0.00    -0.084 Cl
HETATM   17  C   UNL     1     -39.693  50.501 -53.841  1.00  0.00     0.024 A 
HETATM   18  C   UNL     1     -39.514  49.488 -52.898  1.00  0.00     0.002 A 
HETATM   19  C   UNL     1     -39.587  49.785 -51.541  1.00  0.00     0.001 A 
HETATM   20  C   UNL     1     -39.842  51.093 -51.126  1.00  0.00     0.009 A 
ENDBRANCH  13  14
ENDBRANCH  12  13
ENDBRANCH   7  12
BRANCH   2  21
HETATM   21  C   UNL     1     -42.844  59.052 -53.068  1.00  0.00    -0.026 A 
HETATM   22  C   UNL     1     -44.213  59.050 -52.744  1.00  0.00     0.033 A 
HETATM   23  C   UNL     1     -44.709  59.916 -51.771  1.00  0.00     0.034 A 
HETATM   24 CL   UNL     1     -46.384  59.888 -51.381  1.00  0.00    -0.084 Cl
HETATM   25  C   UNL     1     -43.859  60.797 -51.110  1.00  0.00     0.024 A 
HETATM   26  C   UNL     1     -42.501  60.817 -51.427  1.00  0.00     0.002 A 
HETATM   27  C   UNL     1     -41.995  59.953 -52.402  1.00  0.00     0.010 A 
ENDBRANCH   2  21
BRANCH   1  28
HETATM   28  C   UNL     1     -42.946  59.667 -56.043  1.00  0.00     0.293 C 
HETATM   29  O   UNL     1     -43.904  60.423 -56.007  1.00  0.00    -0.259 OA
BRANCH  28  30
HETATM   30  O   UNL     1     -41.720  59.952 -56.546  1.00  0.00    -0.318 OA
BRANCH  30  31
HETATM   31  C   UNL     1     -41.710  60.830 -57.684  1.00  0.00     0.174 C 
HETATM   32  C   UNL     1     -41.912  60.034 -58.961  1.00  0.00     0.034 C 
ENDBRANCH  30  31
ENDBRANCH  28  30
ENDBRANCH   1  28
TORSDOF 7
ENDMDL
MODEL 2
REMARK VINA RESULT:      -7.8      1.009      1.535
REMARK  7 active torsions:
REMARK  status: ('A' for Active; 'I' for Inactive)
REMARK    1  A    between atoms: C_2  and  O_3 
REMARK    2  A    between atoms: O_3  and  C_4 
REMARK    3  A    between atoms: C_4  and  C_5 
REMARK    4  A    between atoms: C_6  and  C_7 
REMARK    5  A    between atoms: C_18  and  S_19 
REMARK    6  A    between atoms: S_19  and  C_20 
REMARK    7  A    between atoms: C_20  and  C_21 
ROOT
HETATM    1  C   UNL     1     -42.699  58.363 -54.938  1.00  0.00     0.070 A 
HETATM    2  C   UNL     1     -42.022  58.060 -53.605  1.00  0.00     0.203 A 
HETATM    3  N   UNL     1     -42.203  56.656 -53.219  1.00  0.00    -0.082 N 
HETATM    4  C   UNL     1     -42.866  55.731 -53.973  1.00  0.00     0.726 A 
HETATM    5  N   UNL     1     -43.409  56.104 -55.146  1.00  0.00    -0.192 N 
HETATM    6  N   UNL     1     -41.678  56.098 -52.107  1.00  0.00    -0.128 NA
HETATM    7  C   UNL     1     -42.128  54.842 -52.224  1.00  0.00     0.226 A 
HETATM    8  N   UNL     1     -42.839  54.574 -53.366  1.00  0.00    -0.035 NA
HETATM    9  C   UNL     1     -43.345  57.401 -55.644  1.00  0.00     0.037 A 
HETATM   10  C   UNL     1     -43.999  57.614 -56.987  1.00  0.00     0.070 C 
HETATM   11  H   UNL     1     -43.903  55.408 -55.699  1.00  0.00     0.184 HD
ENDROOT
BRANCH   7  12
HETATM   12  S   UNL     1     -41.801  53.619 -51.028  1.00  0.00    -0.083 SA
BRANCH  12  13
HETATM   13  C   UNL     1     -40.053  53.286 -51.385  1.00  0.00     0.123 C 
BRANCH  13  14
HETATM   14  C   UNL     1     -39.867  51.948 -52.061  1.00  0.00    -0.027 A 
HETATM   15  C   UNL     1     -39.856  51.792 -53.456  1.00  0.00     0.041 A 
HETATM   16 CL   UNL     1     -40.072  53.127 -54.531  1.00  0.00    -0.084 Cl
HETATM   17  C   UNL     1     -39.669  50.528 -54.029  1.00  0.00     0.024 A 
HETATM   18  C   UNL     1     -39.485  49.408 -53.218  1.00  0.00     0.002 A 
HETATM   19  C   UNL     1     -39.484  49.548 -51.834  1.00  0.00     0.001 A 
HETATM   20  C   UNL     1     -39.671  50.808 -51.260  1.00  0.00     0.009 A 
ENDBRANCH  13  14
ENDBRANCH  12  13
ENDBRANCH   7  12
BRANCH   2  21
HETATM   21  C   UNL     1     -42.473  58.971 -52.465  1.00  0.00    -0.026 A 
HETATM   22  C   UNL     1     -43.802  58.906 -52.010  1.00  0.00     0.033 A 
HETATM   23  C   UNL     1     -44.232  59.724 -50.967  1.00  0.00     0.034 A 
HETATM   24 CL   UNL     1     -45.859  59.619 -50.417  1.00  0.00    -0.084 Cl
HETATM   25  C   UNL     1     -43.354  60.620 -50.365  1.00  0.00     0.024 A 
HETATM   26  C   UNL     1     -42.036  60.703 -50.812  1.00  0.00     0.002 A 
HETATM   27  C   UNL     1     -41.596  59.886 -51.858  1.00  0.00     0.010 A 
ENDBRANCH   2  21
BRANCH   1  28
HETATM   28  C   UNL     1     -42.666  59.768 -55.393  1.00  0.00     0.293 C 
HETATM   29  O   UNL     1     -41.734  60.271 -56.001  1.00  0.00    -0.259 OA
BRANCH  28  30
HETATM   30  O   UNL     1     -43.827  60.382 -55.055  1.00  0.00    -0.318 OA
BRANCH  30  31
HETATM   31  C   UNL     1     -43.761  61.815 -54.963  1.00  0.00     0.174 C 
HETATM   32  C   UNL     1     -44.330  62.281 -53.635  1.00  0.00     0.034 C 
ENDBRANCH  30  31
ENDBRANCH  28  30
ENDBRANCH   1  28
TORSDOF 7
ENDMDL
MODEL 3
REMARK VINA RESULT:      -7.7      2.314      3.113
REMARK  7 active torsions:
REMARK  status: ('A' for Active; 'I' for Inactive)
REMARK    1  A    between atoms: C_2  and  O_3 
REMARK    2  A    between atoms: O_3  and  C_4 
REMARK    3  A    between atoms: C_4  and  C_5 
REMARK    4  A    between atoms: C_6  and  C_7 
REMARK    5  A    between atoms: C_18  and  S_19 
REMARK    6  A    between atoms: S_19  and  C_20 
REMARK    7  A    between atoms: C_20  and  C_21 
ROOT
HETATM    1  C   UNL     1     -42.072  59.104 -57.948  1.00  0.00     0.070 A 
HETATM    2  C   UNL     1     -42.202  59.007 -56.432  1.00  0.00     0.203 A 
HETATM    3  N   UNL     1     -42.429  57.623 -56.001  1.00  0.00    -0.082 N 
HETATM    4  C   UNL     1     -42.484  56.553 -56.848  1.00  0.00     0.726 A 
HETATM    5  N   UNL     1     -42.336  56.753 -58.171  1.00  0.00    -0.192 N 
HETATM    6  N   UNL     1     -42.541  57.235 -54.713  1.00  0.00    -0.128 NA
HETATM    7  C   UNL     1     -42.733  55.918 -54.866  1.00  0.00     0.226 A 
HETATM    8  N   UNL     1     -42.681  55.461 -56.159  1.00  0.00    -0.035 NA
HETATM    9  C   UNL     1     -42.136  58.005 -58.741  1.00  0.00     0.037 A 
HETATM   10  C   UNL     1     -41.973  58.017 -60.241  1.00  0.00     0.070 C 
HETATM   11  H   UNL     1     -42.382  55.950 -58.794  1.00  0.00     0.184 HD
ENDROOT
BRANCH   7  12
HETATM   12  S   UNL     1     -42.993  54.850 -53.515  1.00  0.00    -0.083 SA
BRANCH  12  13
HETATM   13  C   UNL     1     -41.316  54.801 -52.823  1.00  0.00     0.123 C 
BRANCH  13  14
HETATM   14  C   UNL     1     -40.706  53.423 -52.936  1.00  0.00    -0.027 A 
HETATM   15  C   UNL     1     -40.033  52.796 -51.876  1.00  0.00     0.041 A 
HETATM   16 CL   UNL     1     -39.827  53.560 -50.339  1.00  0.00    -0.084 Cl
HETATM   17  C   UNL     1     -39.497  51.513 -52.034  1.00  0.00     0.024 A 
HETATM   18  C   UNL     1     -39.632  50.838 -53.247  1.00  0.00     0.002 A 
HETATM   19  C   UNL     1     -40.304  51.443 -54.304  1.00  0.00     0.001 A 
HETATM   20  C   UNL     1     -40.840  52.723 -54.150  1.00  0.00     0.009 A 
ENDBRANCH  13  14
ENDBRANCH  12  13
ENDBRANCH   7  12
BRANCH   2  21
HETATM   21  C   UNL     1     -43.283  59.913 -55.848  1.00  0.00    -0.026 A 
HETATM   22  C   UNL     1     -42.921  60.931 -54.946  1.00  0.00     0.033 A 
HETATM   23  C   UNL     1     -43.892  61.772 -54.406  1.00  0.00     0.034 A 
HETATM   24 CL   UNL     1     -43.427  63.019 -53.315  1.00  0.00    -0.084 Cl
HETATM   25  C   UNL     1     -45.232  61.615 -54.746  1.00  0.00     0.024 A 
HETATM   26  C   UNL     1     -45.607  60.604 -55.631  1.00  0.00     0.002 A 
HETATM   27  C   UNL     1     -44.640  59.755 -56.177  1.00  0.00     0.010 A 
ENDBRANCH   2  21
BRANCH   1  28
HETATM   28  C   UNL     1     -41.931  60.461 -58.515  1.00  0.00     0.293 C 
HETATM   29  O   UNL     1     -42.778  61.008 -59.203  1.00  0.00    -0.259 OA
BRANCH  28  30
HETATM   30  O   UNL     1     -40.746  60.995 -58.128  1.00  0.00    -0.318 OA
BRANCH  30  31
HETATM   31  C   UNL     1     -40.627  62.417 -58.300  1.00  0.00     0.174 C 
HETATM   32  C   UNL     1     -39.633  62.730 -59.404  1.00  0.00     0.034 C 
ENDBRANCH  30  31
ENDBRANCH  28  30
ENDBRANCH   1  28
TORSDOF 7
ENDMDL
MODEL 4
REMARK VINA RESULT:      -7.7      3.920      7.440
REMARK  7 active torsions:
REMARK  status: ('A' for Active; 'I' for Inactive)
REMARK    1  A    between atoms: C_2  and  O_3 
REMARK    2  A    between atoms: O_3  and  C_4 
REMARK    3  A    between atoms: C_4  and  C_5 
REMARK    4  A    between atoms: C_6  and  C_7 
REMARK    5  A    between atoms: C_18  and  S_19 
REMARK    6  A    between atoms: S_19  and  C_20 
REMARK    7  A    between atoms: C_20  and  C_21 
ROOT
HETATM    1  C   UNL     1     -41.834  58.887 -52.238  1.00  0.00     0.070 A 
HETATM    2  C   UNL     1     -41.419  58.546 -53.664  1.00  0.00     0.203 A 
HETATM    3  N   UNL     1     -41.890  59.558 -54.617  1.00  0.00    -0.082 N 
HETATM    4  C   UNL     1     -42.585  60.679 -54.265  1.00  0.00     0.726 A 
HETATM    5  N   UNL     1     -42.883  60.891 -52.970  1.00  0.00    -0.192 N 
HETATM    6  N   UNL     1     -41.634  59.535 -55.942  1.00  0.00    -0.128 NA
HETATM    7  C   UNL     1     -42.270  60.645 -56.337  1.00  0.00     0.226 A 
HETATM    8  N   UNL     1     -42.845  61.385 -55.334  1.00  0.00    -0.035 NA
HETATM    9  C   UNL     1     -42.527  60.018 -51.948  1.00  0.00     0.037 A 
HETATM   10  C   UNL     1     -42.934  60.444 -50.558  1.00  0.00     0.070 C 
HETATM   11  H   UNL     1     -43.403  61.728 -52.719  1.00  0.00     0.184 HD
ENDROOT
BRANCH   7  12
HETATM   12  S   UNL     1     -42.332  61.140 -58.006  1.00  0.00    -0.083 SA
BRANCH  12  13
HETATM   13  C   UNL     1     -43.779  60.195 -58.563  1.00  0.00     0.123 C 
BRANCH  13  14
HETATM   14  C   UNL     1     -43.430  58.749 -58.832  1.00  0.00    -0.027 A 
HETATM   15  C   UNL     1     -44.064  57.677 -58.187  1.00  0.00     0.041 A 
HETATM   16 CL   UNL     1     -45.301  57.919 -57.004  1.00  0.00    -0.084 Cl
HETATM   17  C   UNL     1     -43.708  56.357 -58.484  1.00  0.00     0.024 A 
HETATM   18  C   UNL     1     -42.720  56.091 -59.433  1.00  0.00     0.002 A 
HETATM   19  C   UNL     1     -42.088  57.143 -60.088  1.00  0.00     0.001 A 
HETATM   20  C   UNL     1     -42.442  58.461 -59.793  1.00  0.00     0.009 A 
ENDBRANCH  13  14
ENDBRANCH  12  13
ENDBRANCH   7  12
BRANCH   2  21
HETATM   21  C   UNL     1     -41.866  57.159 -54.121  1.00  0.00    -0.026 A 
HETATM   22  C   UNL     1     -40.903  56.159 -54.344  1.00  0.00     0.033 A 
HETATM   23  C   UNL     1     -41.291  54.885 -54.756  1.00  0.00     0.034 A 
HETATM   24 CL   UNL     1     -40.097  53.672 -55.010  1.00  0.00    -0.084 Cl
HETATM   25  C   UNL     1     -42.635  54.586 -54.955  1.00  0.00     0.024 A 
HETATM   26  C   UNL     1     -43.600  55.571 -54.748  1.00  0.00     0.002 A 
HETATM   27  C   UNL     1     -43.221  56.851 -54.335  1.00  0.00     0.010 A 
ENDBRANCH   2  21
BRANCH   1  28
HETATM   28  C   UNL     1     -41.497  57.897 -51.195  1.00  0.00     0.293 C 
HETATM   29  O   UNL     1     -40.424  57.850 -50.614  1.00  0.00    -0.259 OA
BRANCH  28  30
HETATM   30  O   UNL     1     -42.562  57.086 -50.976  1.00  0.00    -0.318 OA
BRANCH  30  31
HETATM   31  C   UNL     1     -42.242  55.745 -50.571  1.00  0.00     0.174 C 
HETATM   32  C   UNL     1     -43.265  54.772 -51.128  1.00  0.00     0.034 C 
ENDBRANCH  30  31
ENDBRANCH  28  30
ENDBRANCH   1  28
TORSDOF 7
ENDMDL
MODEL 5
REMARK VINA RESULT:      -7.5      2.187      3.178
REMARK  7 active torsions:
REMARK  status: ('A' for Active; 'I' for Inactive)
REMARK    1  A    between atoms: C_2  and  O_3 
REMARK    2  A    between atoms: O_3  and  C_4 
REMARK    3  A    between atoms: C_4  and  C_5 
REMARK    4  A    between atoms: C_6  and  C_7 
REMARK    5  A    between atoms: C_18  and  S_19 
REMARK    6  A    between atoms: S_19  and  C_20 
REMARK    7  A    between atoms: C_20  and  C_21 
ROOT
HETATM    1  C   UNL     1     -43.711  58.809 -56.391  1.00  0.00     0.070 A 
HETATM    2  C   UNL     1     -42.532  58.397 -55.517  1.00  0.00     0.203 A 
HETATM    3  N   UNL     1     -42.252  56.961 -55.634  1.00  0.00    -0.082 N 
HETATM    4  C   UNL     1     -42.941  56.109 -56.449  1.00  0.00     0.726 A 
HETATM    5  N   UNL     1     -43.955  56.585 -57.195  1.00  0.00    -0.192 N 
HETATM    6  N   UNL     1     -41.240  56.328 -55.004  1.00  0.00    -0.128 NA
HETATM    7  C   UNL     1     -41.425  55.074 -55.436  1.00  0.00     0.226 A 
HETATM    8  N   UNL     1     -42.443  54.905 -56.341  1.00  0.00    -0.035 NA
HETATM    9  C   UNL     1     -44.359  57.915 -57.181  1.00  0.00     0.037 A 
HETATM   10  C   UNL     1     -45.503  58.256 -58.105  1.00  0.00     0.070 C 
HETATM   11  H   UNL     1     -44.463  55.941 -57.796  1.00  0.00     0.184 HD
ENDROOT
BRANCH   7  12
HETATM   12  S   UNL     1     -40.419  53.751 -54.917  1.00  0.00    -0.083 SA
BRANCH  12  13
HETATM   13  C   UNL     1     -41.442  53.083 -53.574  1.00  0.00     0.123 C 
BRANCH  13  14
HETATM   14  C   UNL     1     -41.083  53.698 -52.241  1.00  0.00    -0.027 A 
HETATM   15  C   UNL     1     -40.105  53.159 -51.390  1.00  0.00     0.041 A 
HETATM   16 CL   UNL     1     -39.230  51.723 -51.790  1.00  0.00    -0.084 Cl
HETATM   17  C   UNL     1     -39.805  53.777 -50.171  1.00  0.00     0.024 A 
HETATM   18  C   UNL     1     -40.471  54.942 -49.789  1.00  0.00     0.002 A 
HETATM   19  C   UNL     1     -41.436  55.493 -50.626  1.00  0.00     0.001 A 
HETATM   20  C   UNL     1     -41.738  54.878 -51.843  1.00  0.00     0.009 A 
ENDBRANCH  13  14
ENDBRANCH  12  13
ENDBRANCH   7  12
BRANCH   2  21
HETATM   21  C   UNL     1     -42.697  58.772 -54.045  1.00  0.00    -0.026 A 
HETATM   22  C   UNL     1     -43.592  58.043 -53.241  1.00  0.00     0.033 A 
HETATM   23  C   UNL     1     -43.753  58.365 -51.895  1.00  0.00     0.034 A 
HETATM   24 CL   UNL     1     -44.843  57.453 -50.925  1.00  0.00    -0.084 Cl
HETATM   25  C   UNL     1     -43.035  59.413 -51.328  1.00  0.00     0.024 A 
HETATM   26  C   UNL     1     -42.151  60.151 -52.116  1.00  0.00     0.002 A 
HETATM   27  C   UNL     1     -41.984  59.836 -53.467  1.00  0.00     0.010 A 
ENDBRANCH   2  21
BRANCH   1  28
HETATM   28  C   UNL     1     -44.150  60.215 -56.292  1.00  0.00     0.293 C 
HETATM   29  O   UNL     1     -43.609  61.146 -56.867  1.00  0.00    -0.259 OA
BRANCH  28  30
HETATM   30  O   UNL     1     -45.246  60.295 -55.496  1.00  0.00    -0.318 OA
BRANCH  30  31
HETATM   31  C   UNL     1     -45.267  61.405 -54.585  1.00  0.00     0.174 C 
HETATM   32  C   UNL     1     -45.919  60.997 -53.276  1.00  0.00     0.034 C 
ENDBRANCH  30  31
ENDBRANCH  28  30
ENDBRANCH   1  28
TORSDOF 7
ENDMDL
MODEL 6
REMARK VINA RESULT:      -7.5      3.735      7.420
REMARK  7 active torsions:
REMARK  status: ('A' for Active; 'I' for Inactive)
REMARK    1  A    between atoms: C_2  and  O_3 
REMARK    2  A    between atoms: O_3  and  C_4 
REMARK    3  A    between atoms: C_4  and  C_5 
REMARK    4  A    between atoms: C_6  and  C_7 
REMARK    5  A    between atoms: C_18  and  S_19 
REMARK    6  A    between atoms: S_19  and  C_20 
REMARK    7  A    between atoms: C_20  and  C_21 
ROOT
HETATM    1  C   UNL     1     -42.714  54.795 -53.488  1.00  0.00     0.070 A 
HETATM    2  C   UNL     1     -43.411  56.128 -53.735  1.00  0.00     0.203 A 
HETATM    3  N   UNL     1     -43.213  56.589 -55.114  1.00  0.00    -0.082 N 
HETATM    4  C   UNL     1     -42.518  55.896 -56.064  1.00  0.00     0.726 A 
HETATM    5  N   UNL     1     -41.958  54.716 -55.740  1.00  0.00    -0.192 N 
HETATM    6  N   UNL     1     -43.749  57.718 -55.624  1.00  0.00    -0.128 NA
HETATM    7  C   UNL     1     -43.275  57.675 -56.876  1.00  0.00     0.226 A 
HETATM    8  N   UNL     1     -42.536  56.561 -57.189  1.00  0.00    -0.035 NA
HETATM    9  C   UNL     1     -42.036  54.152 -54.472  1.00  0.00     0.037 A 
HETATM   10  C   UNL     1     -41.360  52.811 -54.315  1.00  0.00     0.070 C 
HETATM   11  H   UNL     1     -41.441  54.209 -56.454  1.00  0.00     0.184 HD
ENDROOT
BRANCH   7  12
HETATM   12  S   UNL     1     -43.603  58.926 -58.042  1.00  0.00    -0.083 SA
BRANCH  12  13
HETATM   13  C   UNL     1     -43.490  57.964 -59.578  1.00  0.00     0.123 C 
BRANCH  13  14
HETATM   14  C   UNL     1     -44.847  57.478 -60.032  1.00  0.00    -0.027 A 
HETATM   15  C   UNL     1     -45.160  56.118 -60.184  1.00  0.00     0.041 A 
HETATM   16 CL   UNL     1     -44.006  54.870 -59.875  1.00  0.00    -0.084 Cl
HETATM   17  C   UNL     1     -46.439  55.725 -60.597  1.00  0.00     0.024 A 
HETATM   18  C   UNL     1     -47.419  56.682 -60.858  1.00  0.00     0.002 A 
HETATM   19  C   UNL     1     -47.127  58.033 -60.704  1.00  0.00     0.001 A 
HETATM   20  C   UNL     1     -45.852  58.429 -60.292  1.00  0.00     0.009 A 
ENDBRANCH  13  14
ENDBRANCH  12  13
ENDBRANCH   7  12
BRANCH   2  21
HETATM   21  C   UNL     1     -43.000  57.228 -52.759  1.00  0.00    -0.026 A 
HETATM   22  C   UNL     1     -41.651  57.620 -52.685  1.00  0.00     0.033 A 
HETATM   23  C   UNL     1     -41.257  58.626 -51.805  1.00  0.00     0.034 A 
HETATM   24 CL   UNL     1     -39.604  59.100 -51.740  1.00  0.00    -0.084 Cl
HETATM   25  C   UNL     1     -42.189  59.253 -50.984  1.00  0.00     0.024 A 
HETATM   26  C   UNL     1     -43.529  58.867 -51.040  1.00  0.00     0.002 A 
HETATM   27  C   UNL     1     -43.933  57.859 -51.919  1.00  0.00     0.010 A 
ENDBRANCH   2  21
BRANCH   1  28
HETATM   28  C   UNL     1     -42.763  54.268 -52.109  1.00  0.00     0.293 C 
HETATM   29  O   UNL     1     -43.758  53.779 -51.596  1.00  0.00    -0.259 OA
BRANCH  28  30
HETATM   30  O   UNL     1     -41.542  54.387 -51.532  1.00  0.00    -0.318 OA
BRANCH  30  31
HETATM   31  C   UNL     1     -41.529  54.324 -50.097  1.00  0.00     0.174 C 
HETATM   32  C   UNL     1     -41.330  55.711 -49.513  1.00  0.00     0.034 C 
ENDBRANCH  30  31
ENDBRANCH  28  30
ENDBRANCH   1  28
TORSDOF 7
ENDMDL
MODEL 7
REMARK VINA RESULT:      -7.2      2.123      2.752
REMARK  7 active torsions:
REMARK  status: ('A' for Active; 'I' for Inactive)
REMARK    1  A    between atoms: C_2  and  O_3 
REMARK    2  A    between atoms: O_3  and  C_4 
REMARK    3  A    between atoms: C_4  and  C_5 
REMARK    4  A    between atoms: C_6  and  C_7 
REMARK    5  A    between atoms: C_18  and  S_19 
REMARK    6  A    between atoms: S_19  and  C_20 
REMARK    7  A    between atoms: C_20  and  C_21 
ROOT
HETATM    1  C   UNL     1     -43.492  58.599 -56.204  1.00  0.00     0.070 A 
HETATM    2  C   UNL     1     -42.304  58.210 -55.331  1.00  0.00     0.203 A 
HETATM    3  N   UNL     1     -42.021  56.773 -55.421  1.00  0.00    -0.082 N 
HETATM    4  C   UNL     1     -42.714  55.901 -56.210  1.00  0.00     0.726 A 
HETATM    5  N   UNL     1     -43.736  56.358 -56.957  1.00  0.00    -0.192 N 
HETATM    6  N   UNL     1     -41.001  56.156 -54.787  1.00  0.00    -0.128 NA
HETATM    7  C   UNL     1     -41.186  54.892 -55.189  1.00  0.00     0.226 A 
HETATM    8  N   UNL     1     -42.212  54.702 -56.081  1.00  0.00    -0.035 NA
HETATM    9  C   UNL     1     -44.144  57.687 -56.968  1.00  0.00     0.037 A 
HETATM   10  C   UNL     1     -45.297  58.005 -57.889  1.00  0.00     0.070 C 
HETATM   11  H   UNL     1     -44.248  55.700 -57.540  1.00  0.00     0.184 HD
ENDROOT
BRANCH   7  12
HETATM   12  S   UNL     1     -40.172  53.584 -54.651  1.00  0.00    -0.083 SA
BRANCH  12  13
HETATM   13  C   UNL     1     -41.237  52.863 -53.369  1.00  0.00     0.123 C 
BRANCH  13  14
HETATM   14  C   UNL     1     -41.135  53.624 -52.068  1.00  0.00    -0.027 A 
HETATM   15  C   UNL     1     -42.134  54.500 -51.615  1.00  0.00     0.041 A 
HETATM   16 CL   UNL     1     -43.574  54.799 -52.522  1.00  0.00    -0.084 Cl
HETATM   17  C   UNL     1     -41.991  55.170 -50.394  1.00  0.00     0.024 A 
HETATM   18  C   UNL     1     -40.855  54.971 -49.610  1.00  0.00     0.002 A 
HETATM   19  C   UNL     1     -39.860  54.099 -50.041  1.00  0.00     0.001 A 
HETATM   20  C   UNL     1     -40.000  53.429 -51.259  1.00  0.00     0.009 A 
ENDBRANCH  13  14
ENDBRANCH  12  13
ENDBRANCH   7  12
BRANCH   2  21
HETATM   21  C   UNL     1     -42.456  58.616 -53.867  1.00  0.00    -0.026 A 
HETATM   22  C   UNL     1     -43.535  58.111 -53.117  1.00  0.00     0.033 A 
HETATM   23  C   UNL     1     -43.689  58.465 -51.778  1.00  0.00     0.034 A 
HETATM   24 CL   UNL     1     -45.007  57.826 -50.875  1.00  0.00    -0.084 Cl
HETATM   25  C   UNL     1     -42.782  59.324 -51.165  1.00  0.00     0.024 A 
HETATM   26  C   UNL     1     -41.713  59.839 -51.899  1.00  0.00     0.002 A 
HETATM   27  C   UNL     1     -41.551  59.491 -53.243  1.00  0.00     0.010 A 
ENDBRANCH   2  21
BRANCH   1  28
HETATM   28  C   UNL     1     -43.934  60.007 -56.130  1.00  0.00     0.293 C 
HETATM   29  O   UNL     1     -44.907  60.388 -55.498  1.00  0.00    -0.259 OA
BRANCH  28  30
HETATM   30  O   UNL     1     -43.085  60.789 -56.841  1.00  0.00    -0.318 OA
BRANCH  30  31
HETATM   31  C   UNL     1     -43.684  61.927 -57.480  1.00  0.00     0.174 C 
HETATM   32  C   UNL     1     -43.419  61.889 -58.975  1.00  0.00     0.034 C 
ENDBRANCH  30  31
ENDBRANCH  28  30
ENDBRANCH   1  28
TORSDOF 7
ENDMDL
MODEL 8
REMARK VINA RESULT:      -7.2      3.811      7.322
REMARK  7 active torsions:
REMARK  status: ('A' for Active; 'I' for Inactive)
REMARK    1  A    between atoms: C_2  and  O_3 
REMARK    2  A    between atoms: O_3  and  C_4 
REMARK    3  A    between atoms: C_4  and  C_5 
REMARK    4  A    between atoms: C_6  and  C_7 
REMARK    5  A    between atoms: C_18  and  S_19 
REMARK    6  A    between atoms: S_19  and  C_20 
REMARK    7  A    between atoms: C_20  and  C_21 
ROOT
HETATM    1  C   UNL     1     -43.154  57.788 -52.264  1.00  0.00     0.070 A 
HETATM    2  C   UNL     1     -42.284  57.929 -53.508  1.00  0.00     0.203 A 
HETATM    3  N   UNL     1     -42.936  58.759 -54.527  1.00  0.00    -0.082 N 
HETATM    4  C   UNL     1     -44.154  59.356 -54.369  1.00  0.00     0.726 A 
HETATM    5  N   UNL     1     -44.829  59.179 -53.218  1.00  0.00    -0.192 N 
HETATM    6  N   UNL     1     -42.380  59.086 -55.713  1.00  0.00    -0.128 NA
HETATM    7  C   UNL     1     -43.356  59.830 -56.249  1.00  0.00     0.226 A 
HETATM    8  N   UNL     1     -44.449  60.037 -55.444  1.00  0.00    -0.035 NA
HETATM    9  C   UNL     1     -44.359  58.405 -52.164  1.00  0.00     0.037 A 
HETATM   10  C   UNL     1     -45.254  58.347 -50.950  1.00  0.00     0.070 C 
HETATM   11  H   UNL     1     -45.736  59.625 -53.110  1.00  0.00     0.184 HD
ENDROOT
BRANCH   7  12
HETATM   12  S   UNL     1     -43.235  60.523 -57.842  1.00  0.00    -0.083 SA
BRANCH  12  13
HETATM   13  C   UNL     1     -42.090  59.344 -58.613  1.00  0.00     0.123 C 
BRANCH  13  14
HETATM   14  C   UNL     1     -42.799  58.085 -59.055  1.00  0.00    -0.027 A 
HETATM   15  C   UNL     1     -43.680  58.048 -60.146  1.00  0.00     0.041 A 
HETATM   16 CL   UNL     1     -44.047  59.455 -61.079  1.00  0.00    -0.084 Cl
HETATM   17  C   UNL     1     -44.301  56.849 -60.518  1.00  0.00     0.024 A 
HETATM   18  C   UNL     1     -44.045  55.675 -59.809  1.00  0.00     0.002 A 
HETATM   19  C   UNL     1     -43.167  55.694 -58.731  1.00  0.00     0.001 A 
HETATM   20  C   UNL     1     -42.546  56.889 -58.358  1.00  0.00     0.009 A 
ENDBRANCH  13  14
ENDBRANCH  12  13
ENDBRANCH   7  12
BRANCH   2  21
HETATM   21  C   UNL     1     -41.864  56.595 -54.120  1.00  0.00    -0.026 A 
HETATM   22  C   UNL     1     -42.843  55.747 -54.671  1.00  0.00     0.033 A 
HETATM   23  C   UNL     1     -42.480  54.527 -55.240  1.00  0.00     0.034 A 
HETATM   24 CL   UNL     1     -43.691  53.511 -55.920  1.00  0.00    -0.084 Cl
HETATM   25  C   UNL     1     -41.147  54.129 -55.268  1.00  0.00     0.024 A 
HETATM   26  C   UNL     1     -40.168  54.955 -54.717  1.00  0.00     0.002 A 
HETATM   27  C   UNL     1     -40.522  56.179 -54.144  1.00  0.00     0.010 A 
ENDBRANCH   2  21
BRANCH   1  28
HETATM   28  C   UNL     1     -42.647  56.899 -51.199  1.00  0.00     0.293 C 
HETATM   29  O   UNL     1     -41.739  57.190 -50.436  1.00  0.00    -0.259 OA
BRANCH  28  30
HETATM   30  O   UNL     1     -43.360  55.745 -51.191  1.00  0.00    -0.318 OA
BRANCH  30  31
HETATM   31  C   UNL     1     -42.721  54.631 -50.548  1.00  0.00     0.174 C 
HETATM   32  C   UNL     1     -42.069  53.732 -51.582  1.00  0.00     0.034 C 
ENDBRANCH  30  31
ENDBRANCH  28  30
ENDBRANCH   1  28
TORSDOF 7
ENDMDL
MODEL 9
REMARK VINA RESULT:      -7.1      3.546      7.463
REMARK  7 active torsions:
REMARK  status: ('A' for Active; 'I' for Inactive)
REMARK    1  A    between atoms: C_2  and  O_3 
REMARK    2  A    between atoms: O_3  and  C_4 
REMARK    3  A    between atoms: C_4  and  C_5 
REMARK    4  A    between atoms: C_6  and  C_7 
REMARK    5  A    between atoms: C_18  and  S_19 
REMARK    6  A    between atoms: S_19  and  C_20 
REMARK    7  A    between atoms: C_20  and  C_21 
ROOT
HETATM    1  C   UNL     1     -42.409  55.157 -54.079  1.00  0.00     0.070 A 
HETATM    2  C   UNL     1     -43.522  56.176 -54.291  1.00  0.00     0.203 A 
HETATM    3  N   UNL     1     -43.565  56.644 -55.681  1.00  0.00    -0.082 N 
HETATM    4  C   UNL     1     -42.732  56.198 -56.667  1.00  0.00     0.726 A 
HETATM    5  N   UNL     1     -41.795  55.279 -56.372  1.00  0.00    -0.192 N 
HETATM    6  N   UNL     1     -44.474  57.518 -56.163  1.00  0.00    -0.128 NA
HETATM    7  C   UNL     1     -44.081  57.604 -57.441  1.00  0.00     0.226 A 
HETATM    8  N   UNL     1     -43.032  56.792 -57.792  1.00  0.00    -0.035 NA
HETATM    9  C   UNL     1     -41.610  54.752 -55.099  1.00  0.00     0.037 A 
HETATM   10  C   UNL     1     -40.519  53.717 -54.976  1.00  0.00     0.070 C 
HETATM   11  H   UNL     1     -41.177  54.956 -57.113  1.00  0.00     0.184 HD
ENDROOT
BRANCH   7  12
HETATM   12  S   UNL     1     -44.870  58.646 -58.591  1.00  0.00    -0.083 SA
BRANCH  12  13
HETATM   13  C   UNL     1     -44.535  60.263 -57.837  1.00  0.00     0.123 C 
BRANCH  13  14
HETATM   14  C   UNL     1     -43.272  60.884 -58.388  1.00  0.00    -0.027 A 
HETATM   15  C   UNL     1     -42.064  60.920 -57.676  1.00  0.00     0.041 A 
HETATM   16 CL   UNL     1     -41.917  60.264 -56.084  1.00  0.00    -0.084 Cl
HETATM   17  C   UNL     1     -40.922  61.499 -58.241  1.00  0.00     0.024 A 
HETATM   18  C   UNL     1     -40.971  62.043 -59.525  1.00  0.00     0.002 A 
HETATM   19  C   UNL     1     -42.159  62.007 -60.247  1.00  0.00     0.001 A 
HETATM   20  C   UNL     1     -43.300  61.430 -59.685  1.00  0.00     0.009 A 
ENDBRANCH  13  14
ENDBRANCH  12  13
ENDBRANCH   7  12
BRANCH   2  21
HETATM   21  C   UNL     1     -43.449  57.374 -53.346  1.00  0.00    -0.026 A 
HETATM   22  C   UNL     1     -44.522  57.638 -52.476  1.00  0.00     0.033 A 
HETATM   23  C   UNL     1     -44.472  58.722 -51.602  1.00  0.00     0.034 A 
HETATM   24 CL   UNL     1     -45.791  59.019 -50.537  1.00  0.00    -0.084 Cl
HETATM   25  C   UNL     1     -43.363  59.561 -51.580  1.00  0.00     0.024 A 
HETATM   26  C   UNL     1     -42.295  59.318 -52.444  1.00  0.00     0.002 A 
HETATM   27  C   UNL     1     -42.337  58.233 -53.324  1.00  0.00     0.010 A 
ENDBRANCH   2  21
BRANCH   1  28
HETATM   28  C   UNL     1     -42.204  54.677 -52.697  1.00  0.00     0.293 C 
HETATM   29  O   UNL     1     -42.947  53.895 -52.125  1.00  0.00    -0.259 OA
BRANCH  28  30
HETATM   30  O   UNL     1     -41.066  55.216 -52.192  1.00  0.00    -0.318 OA
BRANCH  30  31
HETATM   31  C   UNL     1     -40.940  55.160 -50.762  1.00  0.00     0.174 C 
HETATM   32  C   UNL     1     -41.371  56.478 -50.146  1.00  0.00     0.034 C 
ENDBRANCH  30  31
ENDBRANCH  28  30
ENDBRANCH   1  28
TORSDOF 7
ENDMDL
MODEL 10
REMARK VINA RESULT:      -6.9      3.861      7.915
REMARK  7 active torsions:
REMARK  status: ('A' for Active; 'I' for Inactive)
REMARK    1  A    between atoms: C_2  and  O_3 
REMARK    2  A    between atoms: O_3  and  C_4 
REMARK    3  A    between atoms: C_4  and  C_5 
REMARK    4  A    between atoms: C_6  and  C_7 
REMARK    5  A    between atoms: C_18  and  S_19 
REMARK    6  A    between atoms: S_19  and  C_20 
REMARK    7  A    between atoms: C_20  and  C_21 
ROOT
HETATM    1  C   UNL     1     -42.615  54.863 -53.717  1.00  0.00     0.070 A 
HETATM    2  C   UNL     1     -43.592  55.987 -54.045  1.00  0.00     0.203 A 
HETATM    3  N   UNL     1     -43.494  56.390 -55.453  1.00  0.00    -0.082 N 
HETATM    4  C   UNL     1     -42.655  55.809 -56.361  1.00  0.00     0.726 A 
HETATM    5  N   UNL     1     -41.847  54.808 -55.966  1.00  0.00    -0.192 N 
HETATM    6  N   UNL     1     -44.266  57.333 -56.031  1.00  0.00    -0.128 NA
HETATM    7  C   UNL     1     -43.786  57.316 -57.281  1.00  0.00     0.226 A 
HETATM    8  N   UNL     1     -42.814  56.378 -57.527  1.00  0.00    -0.035 NA
HETATM    9  C   UNL     1     -41.804  54.325 -54.663  1.00  0.00     0.037 A 
HETATM   10  C   UNL     1     -40.846  53.184 -54.424  1.00  0.00     0.070 C 
HETATM   11  H   UNL     1     -41.224  54.384 -56.649  1.00  0.00     0.184 HD
ENDROOT
BRANCH   7  12
HETATM   12  S   UNL     1     -44.379  58.382 -58.524  1.00  0.00    -0.083 SA
BRANCH  12  13
HETATM   13  C   UNL     1     -46.167  58.217 -58.255  1.00  0.00     0.123 C 
BRANCH  13  14
HETATM   14  C   UNL     1     -46.932  58.254 -59.558  1.00  0.00    -0.027 A 
HETATM   15  C   UNL     1     -46.991  57.165 -60.441  1.00  0.00     0.041 A 
HETATM   16 CL   UNL     1     -46.172  55.677 -60.119  1.00  0.00    -0.084 Cl
HETATM   17  C   UNL     1     -47.725  57.252 -61.630  1.00  0.00     0.024 A 
HETATM   18  C   UNL     1     -48.413  58.423 -61.948  1.00  0.00     0.002 A 
HETATM   19  C   UNL     1     -48.372  59.508 -61.079  1.00  0.00     0.001 A 
HETATM   20  C   UNL     1     -47.640  59.424 -59.892  1.00  0.00     0.009 A 
ENDBRANCH  13  14
ENDBRANCH  12  13
ENDBRANCH   7  12
BRANCH   2  21
HETATM   21  C   UNL     1     -43.445  57.212 -53.146  1.00  0.00    -0.026 A 
HETATM   22  C   UNL     1     -44.518  57.602 -52.324  1.00  0.00     0.033 A 
HETATM   23  C   UNL     1     -44.401  58.714 -51.492  1.00  0.00     0.034 A 
HETATM   24 CL   UNL     1     -45.721  59.165 -50.484  1.00  0.00    -0.084 Cl
HETATM   25  C   UNL     1     -43.225  59.457 -51.466  1.00  0.00     0.024 A 
HETATM   26  C   UNL     1     -42.157  59.089 -52.284  1.00  0.00     0.002 A 
HETATM   27  C   UNL     1     -42.264  57.975 -53.121  1.00  0.00     0.010 A 
ENDBRANCH   2  21
BRANCH   1  28
HETATM   28  C   UNL     1     -42.554  54.430 -52.306  1.00  0.00     0.293 C 
HETATM   29  O   UNL     1     -43.425  53.780 -51.749  1.00  0.00    -0.259 OA
BRANCH  28  30
HETATM   30  O   UNL     1     -41.384  54.840 -51.755  1.00  0.00    -0.318 OA
BRANCH  30  31
HETATM   31  C   UNL     1     -40.988  54.143 -50.563  1.00  0.00     0.174 C 
HETATM   32  C   UNL     1     -39.837  53.200 -50.864  1.00  0.00     0.034 C 
ENDBRANCH  30  31
ENDBRANCH  28  30
ENDBRANCH   1  28
TORSDOF 7
ENDMDL
