MODEL 1
REMARK VINA RESULT:      -9.3      0.000      0.000
REMARK  9 active torsions:
REMARK  status: ('A' for Active; 'I' for Inactive)
REMARK    1  A    between atoms: O_2  and  C_3 
REMARK    2  A    between atoms: C_6  and  C_7 
REMARK    3  A    between atoms: C_7  and  C_8 
REMARK    4  A    between atoms: C_8  and  N_9 
REMARK       I    between atoms: N_9  and  C_10 
REMARK    5  A    between atoms: C_10  and  C_11 
REMARK    6  A    between atoms: C_12  and  N_13 
REMARK    7  A    between atoms: N_14  and  C_15 
REMARK    8  A    between atoms: C_18  and  S_19 
REMARK    9  A    between atoms: S_19  and  N_20 
ROOT
HETATM    1  C   UNL     1     -41.677  58.848 -51.772  1.00  0.00     0.103 C 
HETATM    2  C   UNL     1     -41.091  58.945 -53.030  1.00  0.00     0.105 C 
HETATM    3  N   UNL     1     -42.130  59.186 -53.940  1.00  0.00    -0.284 N 
HETATM    4  C   UNL     1     -43.094  59.883 -53.218  1.00  0.00     0.166 A 
HETATM    5  C   UNL     1     -42.877  59.594 -51.870  1.00  0.00     0.123 A 
HETATM    6  N   UNL     1     -43.740  60.015 -50.913  1.00  0.00    -0.242 NA
HETATM    7  C   UNL     1     -44.738  60.794 -51.350  1.00  0.00     0.086 A 
HETATM    8  C   UNL     1     -44.917  61.114 -52.719  1.00  0.00     0.088 A 
HETATM    9  N   UNL     1     -44.113  60.641 -53.687  1.00  0.00    -0.226 NA
HETATM   10  C   UNL     1     -45.621  61.322 -50.416  1.00  0.00     0.034 A 
HETATM   11  C   UNL     1     -46.667  62.165 -50.793  1.00  0.00     0.002 A 
HETATM   12  C   UNL     1     -46.839  62.484 -52.132  1.00  0.00     0.002 A 
HETATM   13  C   UNL     1     -45.964  61.951 -53.082  1.00  0.00     0.034 A 
ENDROOT
BRANCH   3  14
HETATM   14  C   UNL     1     -42.233  58.686 -55.290  1.00  0.00     0.042 A 
HETATM   15  C   UNL     1     -42.219  59.560 -56.390  1.00  0.00     0.031 A 
HETATM   16  C   UNL     1     -42.491  59.094 -57.684  1.00  0.00     0.027 A 
HETATM   17  C   UNL     1     -42.764  57.741 -57.888  1.00  0.00     0.074 A 
HETATM   18  C   UNL     1     -42.759  56.853 -56.819  1.00  0.00     0.027 A 
HETATM   19  C   UNL     1     -42.513  57.327 -55.529  1.00  0.00     0.031 A 
BRANCH  17  20
HETATM   20  S   UNL     1     -43.182  57.154 -59.508  1.00  0.00     0.243 S 
HETATM   21  O   UNL     1     -43.642  58.282 -60.290  1.00  0.00    -0.206 OA
HETATM   22  O   UNL     1     -42.082  56.330 -59.959  1.00  0.00    -0.206 OA
BRANCH  20  23
HETATM   23  N   UNL     1     -44.522  56.143 -59.233  1.00  0.00    -0.202 NA
HETATM   24  C   UNL     1     -45.880  56.768 -59.303  1.00  0.00     0.134 C 
HETATM   25  C   UNL     1     -46.403  56.866 -60.741  1.00  0.00     0.183 C 
HETATM   26  O   UNL     1     -46.377  55.593 -61.399  1.00  0.00    -0.389 OA
HETATM   27  C   UNL     1     -45.039  55.076 -61.439  1.00  0.00     0.183 C 
HETATM   28  C   UNL     1     -44.499  54.867 -60.020  1.00  0.00     0.134 C 
ENDBRANCH  20  23
ENDBRANCH  17  20
ENDBRANCH   3  14
BRANCH   2  29
HETATM   29  N   UNL     1     -39.782  58.781 -53.379  1.00  0.00    -0.287 NA
HETATM   30  H   UNL     1     -39.108  59.450 -52.996  1.00  0.00     0.125 HD
HETATM   31  H   UNL     1     -39.573  58.622 -54.367  1.00  0.00     0.125 HD
ENDBRANCH   2  29
BRANCH   1  32
HETATM   32  C   UNL     1     -41.122  58.172 -50.608  1.00  0.00     0.257 C 
HETATM   33  N   UNL     1     -41.003  56.804 -50.781  1.00  0.00    -0.356 N 
HETATM   34  H   UNL     1     -41.390  56.429 -51.642  1.00  0.00     0.162 HD
HETATM   35  O   UNL     1     -40.880  58.728 -49.543  1.00  0.00    -0.267 OA
BRANCH  33  36
HETATM   36  C   UNL     1     -40.949  55.895 -49.654  1.00  0.00     0.127 C 
BRANCH  36  37
HETATM   37  C   UNL     1     -41.742  54.603 -49.898  1.00  0.00     0.058 C 
BRANCH  37  38
HETATM   38  C   UNL     1     -41.241  53.797 -51.078  1.00  0.00    -0.057 A 
HETATM   39  C   UNL     1     -40.224  52.847 -50.921  1.00  0.00     0.010 A 
HETATM   40  C   UNL     1     -39.777  52.091 -52.014  1.00  0.00     0.037 A 
HETATM   41  C   UNL     1     -40.343  52.278 -53.275  1.00  0.00     0.068 A 
HETATM   42  C   UNL     1     -41.333  53.246 -53.442  1.00  0.00     0.037 A 
HETATM   43  C   UNL     1     -41.786  53.995 -52.352  1.00  0.00     0.010 A 
BRANCH  41  44
HETATM   44  O   UNL     1     -40.004  51.597 -54.412  1.00  0.00    -0.356 OA
HETATM   45  C   UNL     1     -39.906  50.182 -54.294  1.00  0.00     0.210 C 
ENDBRANCH  41  44
ENDBRANCH  37  38
ENDBRANCH  36  37
ENDBRANCH  33  36
ENDBRANCH   1  32
TORSDOF 9
ENDMDL
MODEL 2
REMARK VINA RESULT:      -9.2      2.358      6.909
REMARK  9 active torsions:
REMARK  status: ('A' for Active; 'I' for Inactive)
REMARK    1  A    between atoms: O_2  and  C_3 
REMARK    2  A    between atoms: C_6  and  C_7 
REMARK    3  A    between atoms: C_7  and  C_8 
REMARK    4  A    between atoms: C_8  and  N_9 
REMARK       I    between atoms: N_9  and  C_10 
REMARK    5  A    between atoms: C_10  and  C_11 
REMARK    6  A    between atoms: C_12  and  N_13 
REMARK    7  A    between atoms: N_14  and  C_15 
REMARK    8  A    between atoms: C_18  and  S_19 
REMARK    9  A    between atoms: S_19  and  N_20 
ROOT
HETATM    1  C   UNL     1     -41.987  55.665 -51.985  1.00  0.00     0.103 C 
HETATM    2  C   UNL     1     -42.889  55.977 -52.997  1.00  0.00     0.105 C 
HETATM    3  N   UNL     1     -42.426  55.338 -54.157  1.00  0.00    -0.284 N 
HETATM    4  C   UNL     1     -41.764  54.199 -53.708  1.00  0.00     0.166 A 
HETATM    5  C   UNL     1     -41.400  54.440 -52.383  1.00  0.00     0.123 A 
HETATM    6  N   UNL     1     -40.615  53.569 -51.701  1.00  0.00    -0.242 NA
HETATM    7  C   UNL     1     -40.309  52.443 -52.359  1.00  0.00     0.086 A 
HETATM    8  C   UNL     1     -40.726  52.197 -53.690  1.00  0.00     0.088 A 
HETATM    9  N   UNL     1     -41.441  53.084 -54.404  1.00  0.00    -0.226 NA
HETATM   10  C   UNL     1     -39.568  51.472 -51.696  1.00  0.00     0.034 A 
HETATM   11  C   UNL     1     -39.237  50.261 -52.306  1.00  0.00     0.002 A 
HETATM   12  C   UNL     1     -39.651  50.017 -53.608  1.00  0.00     0.002 A 
HETATM   13  C   UNL     1     -40.388  50.989 -54.288  1.00  0.00     0.034 A 
ENDROOT
BRANCH   3  14
HETATM   14  C   UNL     1     -42.498  55.839 -55.508  1.00  0.00     0.042 A 
HETATM   15  C   UNL     1     -42.212  57.183 -55.799  1.00  0.00     0.031 A 
HETATM   16  C   UNL     1     -42.447  57.709 -57.077  1.00  0.00     0.027 A 
HETATM   17  C   UNL     1     -42.956  56.886 -58.081  1.00  0.00     0.074 A 
HETATM   18  C   UNL     1     -43.222  55.546 -57.825  1.00  0.00     0.027 A 
HETATM   19  C   UNL     1     -43.011  55.034 -56.543  1.00  0.00     0.031 A 
BRANCH  17  20
HETATM   20  S   UNL     1     -43.326  57.558 -59.679  1.00  0.00     0.243 S 
HETATM   21  O   UNL     1     -42.254  57.190 -60.580  1.00  0.00    -0.206 OA
HETATM   22  O   UNL     1     -44.701  57.220 -59.976  1.00  0.00    -0.206 OA
BRANCH  20  23
HETATM   23  N   UNL     1     -43.235  59.239 -59.438  1.00  0.00    -0.202 NA
HETATM   24  C   UNL     1     -42.017  59.942 -59.951  1.00  0.00     0.134 C 
HETATM   25  C   UNL     1     -42.127  60.285 -61.441  1.00  0.00     0.183 C 
HETATM   26  O   UNL     1     -43.320  61.028 -61.724  1.00  0.00    -0.389 OA
HETATM   27  C   UNL     1     -44.482  60.275 -61.346  1.00  0.00     0.183 C 
HETATM   28  C   UNL     1     -44.471  59.985 -59.842  1.00  0.00     0.134 C 
ENDBRANCH  20  23
ENDBRANCH  17  20
ENDBRANCH   3  14
BRANCH   2  29
HETATM   29  N   UNL     1     -43.984  56.788 -52.948  1.00  0.00    -0.287 NA
HETATM   30  H   UNL     1     -44.854  56.380 -52.597  1.00  0.00     0.125 HD
HETATM   31  H   UNL     1     -44.188  57.357 -53.773  1.00  0.00     0.125 HD
ENDBRANCH   2  29
BRANCH   1  32
HETATM   32  C   UNL     1     -41.764  56.422 -50.760  1.00  0.00     0.257 C 
HETATM   33  N   UNL     1     -41.948  57.785 -50.925  1.00  0.00    -0.356 N 
HETATM   34  H   UNL     1     -42.124  58.098 -51.875  1.00  0.00     0.162 HD
HETATM   35  O   UNL     1     -41.354  55.931 -49.716  1.00  0.00    -0.267 OA
BRANCH  33  36
HETATM   36  C   UNL     1     -41.335  58.749 -50.036  1.00  0.00     0.127 C 
BRANCH  36  37
HETATM   37  C   UNL     1     -41.559  60.199 -50.490  1.00  0.00     0.058 C 
BRANCH  37  38
HETATM   38  C   UNL     1     -42.549  60.332 -51.628  1.00  0.00    -0.057 A 
HETATM   39  C   UNL     1     -42.124  60.294 -52.961  1.00  0.00     0.010 A 
HETATM   40  C   UNL     1     -43.048  60.400 -54.010  1.00  0.00     0.037 A 
HETATM   41  C   UNL     1     -44.408  60.545 -53.735  1.00  0.00     0.068 A 
HETATM   42  C   UNL     1     -44.832  60.618 -52.408  1.00  0.00     0.037 A 
HETATM   43  C   UNL     1     -43.913  60.504 -51.361  1.00  0.00     0.010 A 
BRANCH  41  44
HETATM   44  O   UNL     1     -45.404  60.646 -54.667  1.00  0.00    -0.356 OA
HETATM   45  C   UNL     1     -45.183  59.976 -55.902  1.00  0.00     0.210 C 
ENDBRANCH  41  44
ENDBRANCH  37  38
ENDBRANCH  36  37
ENDBRANCH  33  36
ENDBRANCH   1  32
TORSDOF 9
ENDMDL
MODEL 3
REMARK VINA RESULT:      -9.2      3.362      9.781
REMARK  9 active torsions:
REMARK  status: ('A' for Active; 'I' for Inactive)
REMARK    1  A    between atoms: O_2  and  C_3 
REMARK    2  A    between atoms: C_6  and  C_7 
REMARK    3  A    between atoms: C_7  and  C_8 
REMARK    4  A    between atoms: C_8  and  N_9 
REMARK       I    between atoms: N_9  and  C_10 
REMARK    5  A    between atoms: C_10  and  C_11 
REMARK    6  A    between atoms: C_12  and  N_13 
REMARK    7  A    between atoms: N_14  and  C_15 
REMARK    8  A    between atoms: C_18  and  S_19 
REMARK    9  A    between atoms: S_19  and  N_20 
ROOT
HETATM    1  C   UNL     1     -42.544  58.542 -55.428  1.00  0.00     0.103 C 
HETATM    2  C   UNL     1     -42.536  59.613 -54.539  1.00  0.00     0.105 C 
HETATM    3  N   UNL     1     -42.779  59.079 -53.265  1.00  0.00    -0.284 N 
HETATM    4  C   UNL     1     -42.253  57.791 -53.302  1.00  0.00     0.166 A 
HETATM    5  C   UNL     1     -42.199  57.415 -54.644  1.00  0.00     0.123 A 
HETATM    6  N   UNL     1     -41.858  56.153 -55.008  1.00  0.00    -0.242 NA
HETATM    7  C   UNL     1     -41.492  55.350 -54.000  1.00  0.00     0.086 A 
HETATM    8  C   UNL     1     -41.511  55.765 -52.645  1.00  0.00     0.088 A 
HETATM    9  N   UNL     1     -41.919  56.988 -52.264  1.00  0.00    -0.226 NA
HETATM   10  C   UNL     1     -41.060  54.065 -54.304  1.00  0.00     0.034 A 
HETATM   11  C   UNL     1     -40.635  53.182 -53.310  1.00  0.00     0.002 A 
HETATM   12  C   UNL     1     -40.647  53.590 -51.984  1.00  0.00     0.002 A 
HETATM   13  C   UNL     1     -41.089  54.876 -51.664  1.00  0.00     0.034 A 
ENDROOT
BRANCH   3  14
HETATM   14  C   UNL     1     -43.543  59.686 -52.203  1.00  0.00     0.042 A 
HETATM   15  C   UNL     1     -42.933  60.535 -51.265  1.00  0.00     0.031 A 
HETATM   16  C   UNL     1     -43.634  60.986 -50.138  1.00  0.00     0.027 A 
HETATM   17  C   UNL     1     -44.961  60.602 -49.949  1.00  0.00     0.074 A 
HETATM   18  C   UNL     1     -45.595  59.783 -50.877  1.00  0.00     0.027 A 
HETATM   19  C   UNL     1     -44.884  59.316 -51.984  1.00  0.00     0.031 A 
BRANCH  17  20
HETATM   20  S   UNL     1     -45.834  61.105 -48.491  1.00  0.00     0.243 S 
HETATM   21  O   UNL     1     -46.875  62.030 -48.887  1.00  0.00    -0.206 OA
HETATM   22  O   UNL     1     -46.144  59.906 -47.745  1.00  0.00    -0.206 OA
BRANCH  20  23
HETATM   23  N   UNL     1     -44.674  61.989 -47.615  1.00  0.00    -0.202 NA
HETATM   24  C   UNL     1     -44.633  63.470 -47.828  1.00  0.00     0.134 C 
HETATM   25  C   UNL     1     -45.666  64.210 -46.971  1.00  0.00     0.183 C 
HETATM   26  O   UNL     1     -45.536  63.876 -45.583  1.00  0.00    -0.389 OA
HETATM   27  C   UNL     1     -45.714  62.466 -45.387  1.00  0.00     0.183 C 
HETATM   28  C   UNL     1     -44.644  61.676 -46.149  1.00  0.00     0.134 C 
ENDBRANCH  20  23
ENDBRANCH  17  20
ENDBRANCH   3  14
BRANCH   2  29
HETATM   29  N   UNL     1     -42.391  60.944 -54.802  1.00  0.00    -0.287 NA
HETATM   30  H   UNL     1     -42.204  61.211 -55.772  1.00  0.00     0.125 HD
HETATM   31  H   UNL     1     -41.785  61.484 -54.181  1.00  0.00     0.125 HD
ENDBRANCH   2  29
BRANCH   1  32
HETATM   32  C   UNL     1     -42.794  58.610 -56.861  1.00  0.00     0.257 C 
HETATM   33  N   UNL     1     -42.046  57.698 -57.585  1.00  0.00    -0.356 N 
HETATM   34  H   UNL     1     -41.362  57.164 -57.056  1.00  0.00     0.162 HD
HETATM   35  O   UNL     1     -43.508  59.451 -57.393  1.00  0.00    -0.267 OA
BRANCH  33  36
HETATM   36  C   UNL     1     -41.756  57.894 -58.991  1.00  0.00     0.127 C 
BRANCH  36  37
HETATM   37  C   UNL     1     -42.109  56.667 -59.844  1.00  0.00     0.058 C 
BRANCH  37  38
HETATM   38  C   UNL     1     -43.595  56.497 -60.077  1.00  0.00    -0.057 A 
HETATM   39  C   UNL     1     -44.167  55.222 -60.179  1.00  0.00     0.010 A 
HETATM   40  C   UNL     1     -45.546  55.071 -60.376  1.00  0.00     0.037 A 
HETATM   41  C   UNL     1     -46.369  56.193 -60.474  1.00  0.00     0.068 A 
HETATM   42  C   UNL     1     -45.799  57.465 -60.407  1.00  0.00     0.037 A 
HETATM   43  C   UNL     1     -44.425  57.618 -60.201  1.00  0.00     0.010 A 
BRANCH  41  44
HETATM   44  O   UNL     1     -47.724  56.177 -60.654  1.00  0.00    -0.356 OA
HETATM   45  C   UNL     1     -48.200  56.648 -61.909  1.00  0.00     0.210 C 
ENDBRANCH  41  44
ENDBRANCH  37  38
ENDBRANCH  36  37
ENDBRANCH  33  36
ENDBRANCH   1  32
TORSDOF 9
ENDMDL
MODEL 4
REMARK VINA RESULT:      -9.1      3.551     10.035
REMARK  9 active torsions:
REMARK  status: ('A' for Active; 'I' for Inactive)
REMARK    1  A    between atoms: O_2  and  C_3 
REMARK    2  A    between atoms: C_6  and  C_7 
REMARK    3  A    between atoms: C_7  and  C_8 
REMARK    4  A    between atoms: C_8  and  N_9 
REMARK       I    between atoms: N_9  and  C_10 
REMARK    5  A    between atoms: C_10  and  C_11 
REMARK    6  A    between atoms: C_12  and  N_13 
REMARK    7  A    between atoms: N_14  and  C_15 
REMARK    8  A    between atoms: C_18  and  S_19 
REMARK    9  A    between atoms: S_19  and  N_20 
ROOT
HETATM    1  C   UNL     1     -42.132  56.524 -55.798  1.00  0.00     0.103 C 
HETATM    2  C   UNL     1     -42.161  57.664 -55.001  1.00  0.00     0.105 C 
HETATM    3  N   UNL     1     -42.292  57.223 -53.676  1.00  0.00    -0.284 N 
HETATM    4  C   UNL     1     -41.669  55.980 -53.640  1.00  0.00     0.166 A 
HETATM    5  C   UNL     1     -41.657  55.496 -54.949  1.00  0.00     0.123 A 
HETATM    6  N   UNL     1     -41.238  54.237 -55.229  1.00  0.00    -0.242 NA
HETATM    7  C   UNL     1     -40.756  53.552 -54.184  1.00  0.00     0.086 A 
HETATM    8  C   UNL     1     -40.734  54.077 -52.868  1.00  0.00     0.088 A 
HETATM    9  N   UNL     1     -41.217  55.295 -52.563  1.00  0.00    -0.226 NA
HETATM   10  C   UNL     1     -40.240  52.281 -54.408  1.00  0.00     0.034 A 
HETATM   11  C   UNL     1     -39.694  51.519 -53.374  1.00  0.00     0.002 A 
HETATM   12  C   UNL     1     -39.667  52.037 -52.087  1.00  0.00     0.002 A 
HETATM   13  C   UNL     1     -40.191  53.309 -51.846  1.00  0.00     0.034 A 
ENDROOT
BRANCH   3  14
HETATM   14  C   UNL     1     -43.043  57.861 -52.622  1.00  0.00     0.042 A 
HETATM   15  C   UNL     1     -44.392  57.539 -52.396  1.00  0.00     0.031 A 
HETATM   16  C   UNL     1     -45.167  58.278 -51.491  1.00  0.00     0.027 A 
HETATM   17  C   UNL     1     -44.591  59.337 -50.791  1.00  0.00     0.074 A 
HETATM   18  C   UNL     1     -43.251  59.658 -50.977  1.00  0.00     0.027 A 
HETATM   19  C   UNL     1     -42.491  58.936 -51.899  1.00  0.00     0.031 A 
BRANCH  17  20
HETATM   20  S   UNL     1     -45.580  60.323 -49.699  1.00  0.00     0.243 S 
HETATM   21  O   UNL     1     -46.444  61.158 -50.506  1.00  0.00    -0.206 OA
HETATM   22  O   UNL     1     -46.122  59.434 -48.695  1.00  0.00    -0.206 OA
BRANCH  20  23
HETATM   23  N   UNL     1     -44.446  61.344 -48.944  1.00  0.00    -0.202 NA
HETATM   24  C   UNL     1     -44.348  62.751 -49.446  1.00  0.00     0.134 C 
HETATM   25  C   UNL     1     -45.406  63.667 -48.822  1.00  0.00     0.183 C 
HETATM   26  O   UNL     1     -45.368  63.617 -47.390  1.00  0.00    -0.389 OA
HETATM   27  C   UNL     1     -45.600  62.279 -46.928  1.00  0.00     0.183 C 
HETATM   28  C   UNL     1     -44.512  61.332 -47.447  1.00  0.00     0.134 C 
ENDBRANCH  20  23
ENDBRANCH  17  20
ENDBRANCH   3  14
BRANCH   2  29
HETATM   29  N   UNL     1     -42.135  58.975 -55.379  1.00  0.00    -0.287 NA
HETATM   30  H   UNL     1     -42.457  59.665 -54.696  1.00  0.00     0.125 HD
HETATM   31  H   UNL     1     -42.515  59.208 -56.299  1.00  0.00     0.125 HD
ENDBRANCH   2  29
BRANCH   1  32
HETATM   32  C   UNL     1     -42.463  56.451 -57.215  1.00  0.00     0.257 C 
HETATM   33  N   UNL     1     -41.894  57.471 -57.958  1.00  0.00    -0.356 N 
HETATM   34  H   UNL     1     -41.399  58.183 -57.430  1.00  0.00     0.162 HD
HETATM   35  O   UNL     1     -43.247  55.641 -57.694  1.00  0.00    -0.267 OA
BRANCH  33  36
HETATM   36  C   UNL     1     -42.446  57.886 -59.231  1.00  0.00     0.127 C 
BRANCH  36  37
HETATM   37  C   UNL     1     -43.085  59.281 -59.172  1.00  0.00     0.058 C 
BRANCH  37  38
HETATM   38  C   UNL     1     -42.109  60.408 -59.437  1.00  0.00    -0.057 A 
HETATM   39  C   UNL     1     -41.859  60.852 -60.742  1.00  0.00     0.010 A 
HETATM   40  C   UNL     1     -40.968  61.907 -60.979  1.00  0.00     0.037 A 
HETATM   41  C   UNL     1     -40.317  62.530 -59.914  1.00  0.00     0.068 A 
HETATM   42  C   UNL     1     -40.538  62.069 -58.616  1.00  0.00     0.037 A 
HETATM   43  C   UNL     1     -41.432  61.022 -58.376  1.00  0.00     0.010 A 
BRANCH  41  44
HETATM   44  O   UNL     1     -39.439  63.573 -60.014  1.00  0.00    -0.356 OA
HETATM   45  C   UNL     1     -39.299  64.393 -58.860  1.00  0.00     0.210 C 
ENDBRANCH  41  44
ENDBRANCH  37  38
ENDBRANCH  36  37
ENDBRANCH  33  36
ENDBRANCH   1  32
TORSDOF 9
ENDMDL
MODEL 5
REMARK VINA RESULT:      -8.8      3.115      9.597
REMARK  9 active torsions:
REMARK  status: ('A' for Active; 'I' for Inactive)
REMARK    1  A    between atoms: O_2  and  C_3 
REMARK    2  A    between atoms: C_6  and  C_7 
REMARK    3  A    between atoms: C_7  and  C_8 
REMARK    4  A    between atoms: C_8  and  N_9 
REMARK       I    between atoms: N_9  and  C_10 
REMARK    5  A    between atoms: C_10  and  C_11 
REMARK    6  A    between atoms: C_12  and  N_13 
REMARK    7  A    between atoms: N_14  and  C_15 
REMARK    8  A    between atoms: C_18  and  S_19 
REMARK    9  A    between atoms: S_19  and  N_20 
ROOT
HETATM    1  C   UNL     1     -41.883  56.698 -54.423  1.00  0.00     0.103 C 
HETATM    2  C   UNL     1     -41.854  58.019 -53.988  1.00  0.00     0.105 C 
HETATM    3  N   UNL     1     -42.140  57.996 -52.615  1.00  0.00    -0.284 N 
HETATM    4  C   UNL     1     -41.658  56.771 -52.162  1.00  0.00     0.166 A 
HETATM    5  C   UNL     1     -41.592  55.927 -53.271  1.00  0.00     0.123 A 
HETATM    6  N   UNL     1     -41.288  54.612 -53.137  1.00  0.00    -0.242 NA
HETATM    7  C   UNL     1     -40.969  54.226 -51.894  1.00  0.00     0.086 A 
HETATM    8  C   UNL     1     -40.999  55.109 -50.786  1.00  0.00     0.088 A 
HETATM    9  N   UNL     1     -41.372  56.397 -50.892  1.00  0.00    -0.226 NA
HETATM   10  C   UNL     1     -40.576  52.908 -51.693  1.00  0.00     0.034 A 
HETATM   11  C   UNL     1     -40.202  52.441 -50.433  1.00  0.00     0.002 A 
HETATM   12  C   UNL     1     -40.225  53.307 -49.349  1.00  0.00     0.002 A 
HETATM   13  C   UNL     1     -40.627  54.631 -49.536  1.00  0.00     0.034 A 
ENDROOT
BRANCH   3  14
HETATM   14  C   UNL     1     -42.902  58.970 -51.873  1.00  0.00     0.042 A 
HETATM   15  C   UNL     1     -44.291  59.091 -52.048  1.00  0.00     0.031 A 
HETATM   16  C   UNL     1     -45.002  60.146 -51.459  1.00  0.00     0.027 A 
HETATM   17  C   UNL     1     -44.328  61.082 -50.675  1.00  0.00     0.074 A 
HETATM   18  C   UNL     1     -42.959  60.969 -50.466  1.00  0.00     0.027 A 
HETATM   19  C   UNL     1     -42.251  59.931 -51.076  1.00  0.00     0.031 A 
BRANCH  17  20
HETATM   20  S   UNL     1     -45.204  62.461 -49.987  1.00  0.00     0.243 S 
HETATM   21  O   UNL     1     -44.257  63.276 -49.257  1.00  0.00    -0.206 OA
HETATM   22  O   UNL     1     -46.014  63.022 -51.046  1.00  0.00    -0.206 OA
BRANCH  20  23
HETATM   23  N   UNL     1     -46.246  61.745 -48.849  1.00  0.00    -0.202 NA
HETATM   24  C   UNL     1     -45.642  60.785 -47.873  1.00  0.00     0.134 C 
HETATM   25  C   UNL     1     -45.013  61.496 -46.669  1.00  0.00     0.183 C 
HETATM   26  O   UNL     1     -45.947  62.375 -46.030  1.00  0.00    -0.389 OA
HETATM   27  C   UNL     1     -46.411  63.371 -46.952  1.00  0.00     0.183 C 
HETATM   28  C   UNL     1     -47.135  62.718 -48.134  1.00  0.00     0.134 C 
ENDBRANCH  20  23
ENDBRANCH  17  20
ENDBRANCH   3  14
BRANCH   2  29
HETATM   29  N   UNL     1     -41.657  59.156 -54.715  1.00  0.00    -0.287 NA
HETATM   30  H   UNL     1     -41.430  60.009 -54.198  1.00  0.00     0.125 HD
HETATM   31  H   UNL     1     -42.342  59.375 -55.443  1.00  0.00     0.125 HD
ENDBRANCH   2  29
BRANCH   1  32
HETATM   32  C   UNL     1     -42.103  56.241 -55.788  1.00  0.00     0.257 C 
HETATM   33  N   UNL     1     -42.087  57.271 -56.713  1.00  0.00    -0.356 N 
HETATM   34  H   UNL     1     -42.016  58.209 -56.333  1.00  0.00     0.162 HD
HETATM   35  O   UNL     1     -42.380  55.086 -56.088  1.00  0.00    -0.267 OA
BRANCH  33  36
HETATM   36  C   UNL     1     -42.742  57.150 -58.000  1.00  0.00     0.127 C 
BRANCH  36  37
HETATM   37  C   UNL     1     -43.992  58.035 -58.112  1.00  0.00     0.058 C 
BRANCH  37  38
HETATM   38  C   UNL     1     -45.039  57.491 -59.061  1.00  0.00    -0.057 A 
HETATM   39  C   UNL     1     -44.899  56.221 -59.636  1.00  0.00     0.010 A 
HETATM   40  C   UNL     1     -45.881  55.716 -60.499  1.00  0.00     0.037 A 
HETATM   41  C   UNL     1     -47.012  56.475 -60.797  1.00  0.00     0.068 A 
HETATM   42  C   UNL     1     -47.139  57.753 -60.253  1.00  0.00     0.037 A 
HETATM   43  C   UNL     1     -46.166  58.256 -59.385  1.00  0.00     0.010 A 
BRANCH  41  44
HETATM   44  O   UNL     1     -48.041  56.089 -61.611  1.00  0.00    -0.356 OA
HETATM   45  C   UNL     1     -48.511  57.061 -62.538  1.00  0.00     0.210 C 
ENDBRANCH  41  44
ENDBRANCH  37  38
ENDBRANCH  36  37
ENDBRANCH  33  36
ENDBRANCH   1  32
TORSDOF 9
ENDMDL
MODEL 6
REMARK VINA RESULT:      -8.6      1.614      2.066
REMARK  9 active torsions:
REMARK  status: ('A' for Active; 'I' for Inactive)
REMARK    1  A    between atoms: O_2  and  C_3 
REMARK    2  A    between atoms: C_6  and  C_7 
REMARK    3  A    between atoms: C_7  and  C_8 
REMARK    4  A    between atoms: C_8  and  N_9 
REMARK       I    between atoms: N_9  and  C_10 
REMARK    5  A    between atoms: C_10  and  C_11 
REMARK    6  A    between atoms: C_12  and  N_13 
REMARK    7  A    between atoms: N_14  and  C_15 
REMARK    8  A    between atoms: C_18  and  S_19 
REMARK    9  A    between atoms: S_19  and  N_20 
ROOT
HETATM    1  C   UNL     1     -41.857  59.585 -51.404  1.00  0.00     0.103 C 
HETATM    2  C   UNL     1     -41.653  59.721 -52.774  1.00  0.00     0.105 C 
HETATM    3  N   UNL     1     -42.794  60.354 -53.289  1.00  0.00    -0.284 N 
HETATM    4  C   UNL     1     -43.267  61.154 -52.253  1.00  0.00     0.166 A 
HETATM    5  C   UNL     1     -42.765  60.617 -51.066  1.00  0.00     0.123 A 
HETATM    6  N   UNL     1     -43.158  61.092 -49.858  1.00  0.00    -0.242 NA
HETATM    7  C   UNL     1     -43.971  62.156 -49.903  1.00  0.00     0.086 A 
HETATM    8  C   UNL     1     -44.435  62.715 -51.119  1.00  0.00     0.088 A 
HETATM    9  N   UNL     1     -44.114  62.208 -52.322  1.00  0.00    -0.226 NA
HETATM   10  C   UNL     1     -44.358  62.742 -48.703  1.00  0.00     0.034 A 
HETATM   11  C   UNL     1     -45.179  63.870 -48.671  1.00  0.00     0.002 A 
HETATM   12  C   UNL     1     -45.628  64.422 -49.862  1.00  0.00     0.002 A 
HETATM   13  C   UNL     1     -45.255  63.836 -51.074  1.00  0.00     0.034 A 
ENDROOT
BRANCH   3  14
HETATM   14  C   UNL     1     -43.419  60.108 -54.565  1.00  0.00     0.042 A 
HETATM   15  C   UNL     1     -44.634  59.407 -54.655  1.00  0.00     0.031 A 
HETATM   16  C   UNL     1     -45.151  59.019 -55.898  1.00  0.00     0.027 A 
HETATM   17  C   UNL     1     -44.463  59.345 -57.066  1.00  0.00     0.074 A 
HETATM   18  C   UNL     1     -43.273  60.060 -57.005  1.00  0.00     0.027 A 
HETATM   19  C   UNL     1     -42.748  60.422 -55.762  1.00  0.00     0.031 A 
BRANCH  17  20
HETATM   20  S   UNL     1     -45.070  58.796 -58.639  1.00  0.00     0.243 S 
HETATM   21  O   UNL     1     -46.470  59.152 -58.730  1.00  0.00    -0.206 OA
HETATM   22  O   UNL     1     -44.120  59.234 -59.638  1.00  0.00    -0.206 OA
BRANCH  20  23
HETATM   23  N   UNL     1     -44.981  57.100 -58.532  1.00  0.00    -0.202 NA
HETATM   24  C   UNL     1     -45.544  56.310 -59.673  1.00  0.00     0.134 C 
HETATM   25  C   UNL     1     -44.549  56.167 -60.830  1.00  0.00     0.183 C 
HETATM   26  O   UNL     1     -43.298  55.628 -60.384  1.00  0.00    -0.389 OA
HETATM   27  C   UNL     1     -42.712  56.476 -59.387  1.00  0.00     0.183 C 
HETATM   28  C   UNL     1     -43.626  56.579 -58.161  1.00  0.00     0.134 C 
ENDBRANCH  20  23
ENDBRANCH  17  20
ENDBRANCH   3  14
BRANCH   2  29
HETATM   29  N   UNL     1     -40.605  59.286 -53.531  1.00  0.00    -0.287 NA
HETATM   30  H   UNL     1     -40.819  58.924 -54.464  1.00  0.00     0.125 HD
HETATM   31  H   UNL     1     -39.919  58.676 -53.082  1.00  0.00     0.125 HD
ENDBRANCH   2  29
BRANCH   1  32
HETATM   32  C   UNL     1     -41.210  58.622 -50.525  1.00  0.00     0.257 C 
HETATM   33  N   UNL     1     -41.312  57.318 -50.980  1.00  0.00    -0.356 N 
HETATM   34  H   UNL     1     -41.888  57.179 -51.805  1.00  0.00     0.162 HD
HETATM   35  O   UNL     1     -40.716  58.907 -49.441  1.00  0.00    -0.267 OA
BRANCH  33  36
HETATM   36  C   UNL     1     -41.194  56.186 -50.084  1.00  0.00     0.127 C 
BRANCH  36  37
HETATM   37  C   UNL     1     -42.067  54.998 -50.513  1.00  0.00     0.058 C 
BRANCH  37  38
HETATM   38  C   UNL     1     -41.361  54.030 -51.439  1.00  0.00    -0.057 A 
HETATM   39  C   UNL     1     -40.414  53.124 -50.946  1.00  0.00     0.010 A 
HETATM   40  C   UNL     1     -39.777  52.217 -51.805  1.00  0.00     0.037 A 
HETATM   41  C   UNL     1     -40.082  52.208 -53.166  1.00  0.00     0.068 A 
HETATM   42  C   UNL     1     -41.000  53.131 -53.666  1.00  0.00     0.037 A 
HETATM   43  C   UNL     1     -41.643  54.030 -52.810  1.00  0.00     0.010 A 
BRANCH  41  44
HETATM   44  O   UNL     1     -39.541  51.368 -54.100  1.00  0.00    -0.356 OA
HETATM   45  C   UNL     1     -39.956  50.008 -54.041  1.00  0.00     0.210 C 
ENDBRANCH  41  44
ENDBRANCH  37  38
ENDBRANCH  36  37
ENDBRANCH  33  36
ENDBRANCH   1  32
TORSDOF 9
ENDMDL
MODEL 7
REMARK VINA RESULT:      -8.6      3.417      9.468
REMARK  9 active torsions:
REMARK  status: ('A' for Active; 'I' for Inactive)
REMARK    1  A    between atoms: O_2  and  C_3 
REMARK    2  A    between atoms: C_6  and  C_7 
REMARK    3  A    between atoms: C_7  and  C_8 
REMARK    4  A    between atoms: C_8  and  N_9 
REMARK       I    between atoms: N_9  and  C_10 
REMARK    5  A    between atoms: C_10  and  C_11 
REMARK    6  A    between atoms: C_12  and  N_13 
REMARK    7  A    between atoms: N_14  and  C_15 
REMARK    8  A    between atoms: C_18  and  S_19 
REMARK    9  A    between atoms: S_19  and  N_20 
ROOT
HETATM    1  C   UNL     1     -41.784  56.825 -54.173  1.00  0.00     0.103 C 
HETATM    2  C   UNL     1     -41.706  58.133 -53.704  1.00  0.00     0.105 C 
HETATM    3  N   UNL     1     -42.007  58.087 -52.335  1.00  0.00    -0.284 N 
HETATM    4  C   UNL     1     -41.580  56.834 -51.908  1.00  0.00     0.166 A 
HETATM    5  C   UNL     1     -41.536  56.016 -53.038  1.00  0.00     0.123 A 
HETATM    6  N   UNL     1     -41.287  54.686 -52.935  1.00  0.00    -0.242 NA
HETATM    7  C   UNL     1     -40.997  54.257 -51.699  1.00  0.00     0.086 A 
HETATM    8  C   UNL     1     -41.003  55.112 -50.570  1.00  0.00     0.088 A 
HETATM    9  N   UNL     1     -41.322  56.416 -50.646  1.00  0.00    -0.226 NA
HETATM   10  C   UNL     1     -40.660  52.919 -51.528  1.00  0.00     0.034 A 
HETATM   11  C   UNL     1     -40.317  52.406 -50.276  1.00  0.00     0.002 A 
HETATM   12  C   UNL     1     -40.316  53.245 -49.171  1.00  0.00     0.002 A 
HETATM   13  C   UNL     1     -40.663  54.589 -49.329  1.00  0.00     0.034 A 
ENDROOT
BRANCH   3  14
HETATM   14  C   UNL     1     -42.736  59.073 -51.575  1.00  0.00     0.042 A 
HETATM   15  C   UNL     1     -44.138  59.031 -51.490  1.00  0.00     0.031 A 
HETATM   16  C   UNL     1     -44.856  60.080 -50.899  1.00  0.00     0.027 A 
HETATM   17  C   UNL     1     -44.172  61.176 -50.374  1.00  0.00     0.074 A 
HETATM   18  C   UNL     1     -42.784  61.229 -50.423  1.00  0.00     0.027 A 
HETATM   19  C   UNL     1     -42.076  60.193 -51.036  1.00  0.00     0.031 A 
BRANCH  17  20
HETATM   20  S   UNL     1     -45.073  62.542 -49.691  1.00  0.00     0.243 S 
HETATM   21  O   UNL     1     -44.161  63.320 -48.879  1.00  0.00    -0.206 OA
HETATM   22  O   UNL     1     -45.813  63.149 -50.775  1.00  0.00    -0.206 OA
BRANCH  20  23
HETATM   23  N   UNL     1     -46.187  61.802 -48.640  1.00  0.00    -0.202 NA
HETATM   24  C   UNL     1     -45.631  61.010 -47.497  1.00  0.00     0.134 C 
HETATM   25  C   UNL     1     -45.270  61.893 -46.297  1.00  0.00     0.183 C 
HETATM   26  O   UNL     1     -46.381  62.700 -45.885  1.00  0.00    -0.389 OA
HETATM   27  C   UNL     1     -46.810  63.550 -46.959  1.00  0.00     0.183 C 
HETATM   28  C   UNL     1     -47.274  62.714 -48.156  1.00  0.00     0.134 C 
ENDBRANCH  20  23
ENDBRANCH  17  20
ENDBRANCH   3  14
BRANCH   2  29
HETATM   29  N   UNL     1     -41.456  59.279 -54.401  1.00  0.00    -0.287 NA
HETATM   30  H   UNL     1     -42.137  59.551 -55.115  1.00  0.00     0.125 HD
HETATM   31  H   UNL     1     -40.512  59.412 -54.768  1.00  0.00     0.125 HD
ENDBRANCH   2  29
BRANCH   1  32
HETATM   32  C   UNL     1     -42.009  56.412 -55.551  1.00  0.00     0.257 C 
HETATM   33  N   UNL     1     -41.942  57.463 -56.450  1.00  0.00    -0.356 N 
HETATM   34  H   UNL     1     -41.837  58.389 -56.045  1.00  0.00     0.162 HD
HETATM   35  O   UNL     1     -42.329  55.277 -55.883  1.00  0.00    -0.267 OA
BRANCH  33  36
HETATM   36  C   UNL     1     -42.589  57.401 -57.744  1.00  0.00     0.127 C 
BRANCH  36  37
HETATM   37  C   UNL     1     -44.049  57.874 -57.700  1.00  0.00     0.058 C 
BRANCH  37  38
HETATM   38  C   UNL     1     -44.298  58.983 -56.699  1.00  0.00    -0.057 A 
HETATM   39  C   UNL     1     -45.009  58.739 -55.517  1.00  0.00     0.010 A 
HETATM   40  C   UNL     1     -45.220  59.766 -54.586  1.00  0.00     0.037 A 
HETATM   41  C   UNL     1     -44.723  61.046 -54.828  1.00  0.00     0.068 A 
HETATM   42  C   UNL     1     -44.044  61.301 -56.019  1.00  0.00     0.037 A 
HETATM   43  C   UNL     1     -43.824  60.277 -56.945  1.00  0.00     0.010 A 
BRANCH  41  44
HETATM   44  O   UNL     1     -44.852  62.124 -53.995  1.00  0.00    -0.356 OA
HETATM   45  C   UNL     1     -43.656  62.831 -53.689  1.00  0.00     0.210 C 
ENDBRANCH  41  44
ENDBRANCH  37  38
ENDBRANCH  36  37
ENDBRANCH  33  36
ENDBRANCH   1  32
TORSDOF 9
ENDMDL
MODEL 8
REMARK VINA RESULT:      -8.6      3.276      8.022
REMARK  9 active torsions:
REMARK  status: ('A' for Active; 'I' for Inactive)
REMARK    1  A    between atoms: O_2  and  C_3 
REMARK    2  A    between atoms: C_6  and  C_7 
REMARK    3  A    between atoms: C_7  and  C_8 
REMARK    4  A    between atoms: C_8  and  N_9 
REMARK       I    between atoms: N_9  and  C_10 
REMARK    5  A    between atoms: C_10  and  C_11 
REMARK    6  A    between atoms: C_12  and  N_13 
REMARK    7  A    between atoms: N_14  and  C_15 
REMARK    8  A    between atoms: C_18  and  S_19 
REMARK    9  A    between atoms: S_19  and  N_20 
ROOT
HETATM    1  C   UNL     1     -43.179  56.517 -55.905  1.00  0.00     0.103 C 
HETATM    2  C   UNL     1     -44.094  57.149 -55.068  1.00  0.00     0.105 C 
HETATM    3  N   UNL     1     -43.943  58.528 -55.276  1.00  0.00    -0.284 N 
HETATM    4  C   UNL     1     -43.526  58.655 -56.598  1.00  0.00     0.166 A 
HETATM    5  C   UNL     1     -42.958  57.433 -56.961  1.00  0.00     0.123 A 
HETATM    6  N   UNL     1     -42.330  57.277 -58.153  1.00  0.00    -0.242 NA
HETATM    7  C   UNL     1     -42.387  58.338 -58.969  1.00  0.00     0.086 A 
HETATM    8  C   UNL     1     -43.008  59.556 -58.599  1.00  0.00     0.088 A 
HETATM    9  N   UNL     1     -43.568  59.750 -57.392  1.00  0.00    -0.226 NA
HETATM   10  C   UNL     1     -41.827  58.226 -60.237  1.00  0.00     0.034 A 
HETATM   11  C   UNL     1     -41.874  59.279 -61.152  1.00  0.00     0.002 A 
HETATM   12  C   UNL     1     -42.488  60.470 -60.792  1.00  0.00     0.002 A 
HETATM   13  C   UNL     1     -43.045  60.598 -59.518  1.00  0.00     0.034 A 
ENDROOT
BRANCH   3  14
HETATM   14  C   UNL     1     -44.053  59.570 -54.285  1.00  0.00     0.042 A 
HETATM   15  C   UNL     1     -42.913  60.091 -53.651  1.00  0.00     0.031 A 
HETATM   16  C   UNL     1     -43.030  60.976 -52.570  1.00  0.00     0.027 A 
HETATM   17  C   UNL     1     -44.295  61.360 -52.125  1.00  0.00     0.074 A 
HETATM   18  C   UNL     1     -45.438  60.878 -52.752  1.00  0.00     0.027 A 
HETATM   19  C   UNL     1     -45.315  59.976 -53.812  1.00  0.00     0.031 A 
BRANCH  17  20
HETATM   20  S   UNL     1     -44.457  62.420 -50.713  1.00  0.00     0.243 S 
HETATM   21  O   UNL     1     -43.271  62.265 -49.897  1.00  0.00    -0.206 OA
HETATM   22  O   UNL     1     -44.865  63.719 -51.201  1.00  0.00    -0.206 OA
BRANCH  20  23
HETATM   23  N   UNL     1     -45.760  61.744 -49.853  1.00  0.00    -0.202 NA
HETATM   24  C   UNL     1     -45.434  60.941 -48.632  1.00  0.00     0.134 C 
HETATM   25  C   UNL     1     -45.230  61.821 -47.393  1.00  0.00     0.183 C 
HETATM   26  O   UNL     1     -46.353  62.684 -47.170  1.00  0.00    -0.389 OA
HETATM   27  C   UNL     1     -46.563  63.539 -48.302  1.00  0.00     0.183 C 
HETATM   28  C   UNL     1     -46.866  62.711 -49.556  1.00  0.00     0.134 C 
ENDBRANCH  20  23
ENDBRANCH  17  20
ENDBRANCH   3  14
BRANCH   2  29
HETATM   29  N   UNL     1     -44.947  56.595 -54.159  1.00  0.00    -0.287 NA
HETATM   30  H   UNL     1     -45.398  57.229 -53.494  1.00  0.00     0.125 HD
HETATM   31  H   UNL     1     -44.633  55.757 -53.666  1.00  0.00     0.125 HD
ENDBRANCH   2  29
BRANCH   1  32
HETATM   32  C   UNL     1     -42.635  55.177 -55.737  1.00  0.00     0.257 C 
HETATM   33  N   UNL     1     -41.431  55.162 -55.053  1.00  0.00    -0.356 N 
HETATM   34  H   UNL     1     -41.033  56.070 -54.834  1.00  0.00     0.162 HD
HETATM   35  O   UNL     1     -43.126  54.171 -56.234  1.00  0.00    -0.267 OA
BRANCH  33  36
HETATM   36  C   UNL     1     -40.492  54.068 -55.188  1.00  0.00     0.127 C 
BRANCH  36  37
HETATM   37  C   UNL     1     -40.827  52.884 -54.268  1.00  0.00     0.058 C 
BRANCH  37  38
HETATM   38  C   UNL     1     -41.047  53.281 -52.824  1.00  0.00    -0.057 A 
HETATM   39  C   UNL     1     -42.284  53.778 -52.394  1.00  0.00     0.010 A 
HETATM   40  C   UNL     1     -42.487  54.126 -51.052  1.00  0.00     0.037 A 
HETATM   41  C   UNL     1     -41.454  53.981 -50.125  1.00  0.00     0.068 A 
HETATM   42  C   UNL     1     -40.211  53.517 -50.556  1.00  0.00     0.037 A 
HETATM   43  C   UNL     1     -40.009  53.161 -51.892  1.00  0.00     0.010 A 
BRANCH  41  44
HETATM   44  O   UNL     1     -41.531  54.273 -48.791  1.00  0.00    -0.356 OA
HETATM   45  C   UNL     1     -40.338  54.093 -48.036  1.00  0.00     0.210 C 
ENDBRANCH  41  44
ENDBRANCH  37  38
ENDBRANCH  36  37
ENDBRANCH  33  36
ENDBRANCH   1  32
TORSDOF 9
ENDMDL
MODEL 9
REMARK VINA RESULT:      -8.6      3.121      9.949
REMARK  9 active torsions:
REMARK  status: ('A' for Active; 'I' for Inactive)
REMARK    1  A    between atoms: O_2  and  C_3 
REMARK    2  A    between atoms: C_6  and  C_7 
REMARK    3  A    between atoms: C_7  and  C_8 
REMARK    4  A    between atoms: C_8  and  N_9 
REMARK       I    between atoms: N_9  and  C_10 
REMARK    5  A    between atoms: C_10  and  C_11 
REMARK    6  A    between atoms: C_12  and  N_13 
REMARK    7  A    between atoms: N_14  and  C_15 
REMARK    8  A    between atoms: C_18  and  S_19 
REMARK    9  A    between atoms: S_19  and  N_20 
ROOT
HETATM    1  C   UNL     1     -42.241  56.547 -55.873  1.00  0.00     0.103 C 
HETATM    2  C   UNL     1     -42.261  57.799 -55.266  1.00  0.00     0.105 C 
HETATM    3  N   UNL     1     -42.419  57.575 -53.891  1.00  0.00    -0.284 N 
HETATM    4  C   UNL     1     -41.818  56.344 -53.649  1.00  0.00     0.166 A 
HETATM    5  C   UNL     1     -41.796  55.659 -54.864  1.00  0.00     0.123 A 
HETATM    6  N   UNL     1     -41.394  54.366 -54.935  1.00  0.00    -0.242 NA
HETATM    7  C   UNL     1     -40.939  53.847 -53.786  1.00  0.00     0.086 A 
HETATM    8  C   UNL     1     -40.928  54.574 -52.570  1.00  0.00     0.088 A 
HETATM    9  N   UNL     1     -41.394  55.831 -52.469  1.00  0.00    -0.226 NA
HETATM   10  C   UNL     1     -40.443  52.549 -53.799  1.00  0.00     0.034 A 
HETATM   11  C   UNL     1     -39.925  51.953 -52.648  1.00  0.00     0.002 A 
HETATM   12  C   UNL     1     -39.908  52.667 -51.458  1.00  0.00     0.002 A 
HETATM   13  C   UNL     1     -40.413  53.968 -51.430  1.00  0.00     0.034 A 
ENDROOT
BRANCH   3  14
HETATM   14  C   UNL     1     -43.175  58.382 -52.964  1.00  0.00     0.042 A 
HETATM   15  C   UNL     1     -42.531  59.152 -51.981  1.00  0.00     0.031 A 
HETATM   16  C   UNL     1     -43.265  59.797 -50.976  1.00  0.00     0.027 A 
HETATM   17  C   UNL     1     -44.655  59.689 -50.957  1.00  0.00     0.074 A 
HETATM   18  C   UNL     1     -45.317  58.955 -51.934  1.00  0.00     0.027 A 
HETATM   19  C   UNL     1     -44.579  58.293 -52.917  1.00  0.00     0.031 A 
BRANCH  17  20
HETATM   20  S   UNL     1     -45.587  60.439 -49.649  1.00  0.00     0.243 S 
HETATM   21  O   UNL     1     -46.513  61.382 -50.241  1.00  0.00    -0.206 OA
HETATM   22  O   UNL     1     -46.053  59.372 -48.791  1.00  0.00    -0.206 OA
BRANCH  20  23
HETATM   23  N   UNL     1     -44.424  61.337 -48.792  1.00  0.00    -0.202 NA
HETATM   24  C   UNL     1     -44.247  62.774 -49.174  1.00  0.00     0.134 C 
HETATM   25  C   UNL     1     -45.274  63.688 -48.496  1.00  0.00     0.183 C 
HETATM   26  O   UNL     1     -45.271  63.519 -47.073  1.00  0.00    -0.389 OA
HETATM   27  C   UNL     1     -45.577  62.161 -46.728  1.00  0.00     0.183 C 
HETATM   28  C   UNL     1     -44.524  61.207 -47.302  1.00  0.00     0.134 C 
ENDBRANCH  20  23
ENDBRANCH  17  20
ENDBRANCH   3  14
BRANCH   2  29
HETATM   29  N   UNL     1     -42.207  59.033 -55.846  1.00  0.00    -0.287 NA
HETATM   30  H   UNL     1     -43.015  59.324 -56.402  1.00  0.00     0.125 HD
HETATM   31  H   UNL     1     -41.349  59.285 -56.341  1.00  0.00     0.125 HD
ENDBRANCH   2  29
BRANCH   1  32
HETATM   32  C   UNL     1     -42.552  56.255 -57.266  1.00  0.00     0.257 C 
HETATM   33  N   UNL     1     -42.096  57.229 -58.138  1.00  0.00    -0.356 N 
HETATM   34  H   UNL     1     -41.689  58.055 -57.710  1.00  0.00     0.162 HD
HETATM   35  O   UNL     1     -43.236  55.307 -57.631  1.00  0.00    -0.267 OA
BRANCH  33  36
HETATM   36  C   UNL     1     -42.684  57.412 -59.450  1.00  0.00     0.127 C 
BRANCH  36  37
HETATM   37  C   UNL     1     -43.403  58.762 -59.592  1.00  0.00     0.058 C 
BRANCH  37  38
HETATM   38  C   UNL     1     -44.806  58.646 -60.149  1.00  0.00    -0.057 A 
HETATM   39  C   UNL     1     -45.451  59.754 -60.712  1.00  0.00     0.010 A 
HETATM   40  C   UNL     1     -46.743  59.636 -61.243  1.00  0.00     0.037 A 
HETATM   41  C   UNL     1     -47.404  58.408 -61.215  1.00  0.00     0.068 A 
HETATM   42  C   UNL     1     -46.779  57.310 -60.624  1.00  0.00     0.037 A 
HETATM   43  C   UNL     1     -45.487  57.423 -60.102  1.00  0.00     0.010 A 
BRANCH  41  44
HETATM   44  O   UNL     1     -48.656  58.163 -61.709  1.00  0.00    -0.356 OA
HETATM   45  C   UNL     1     -48.842  56.913 -62.363  1.00  0.00     0.210 C 
ENDBRANCH  41  44
ENDBRANCH  37  38
ENDBRANCH  36  37
ENDBRANCH  33  36
ENDBRANCH   1  32
TORSDOF 9
ENDMDL
MODEL 10
REMARK VINA RESULT:      -8.4      3.512      9.823
REMARK  9 active torsions:
REMARK  status: ('A' for Active; 'I' for Inactive)
REMARK    1  A    between atoms: O_2  and  C_3 
REMARK    2  A    between atoms: C_6  and  C_7 
REMARK    3  A    between atoms: C_7  and  C_8 
REMARK    4  A    between atoms: C_8  and  N_9 
REMARK       I    between atoms: N_9  and  C_10 
REMARK    5  A    between atoms: C_10  and  C_11 
REMARK    6  A    between atoms: C_12  and  N_13 
REMARK    7  A    between atoms: N_14  and  C_15 
REMARK    8  A    between atoms: C_18  and  S_19 
REMARK    9  A    between atoms: S_19  and  N_20 
ROOT
HETATM    1  C   UNL     1     -41.662  56.876 -54.042  1.00  0.00     0.103 C 
HETATM    2  C   UNL     1     -41.614  58.179 -53.556  1.00  0.00     0.105 C 
HETATM    3  N   UNL     1     -41.978  58.116 -52.203  1.00  0.00    -0.284 N 
HETATM    4  C   UNL     1     -41.564  56.860 -51.771  1.00  0.00     0.166 A 
HETATM    5  C   UNL     1     -41.463  56.055 -52.906  1.00  0.00     0.123 A 
HETATM    6  N   UNL     1     -41.212  54.726 -52.805  1.00  0.00    -0.242 NA
HETATM    7  C   UNL     1     -40.977  54.284 -51.562  1.00  0.00     0.086 A 
HETATM    8  C   UNL     1     -41.041  55.127 -50.425  1.00  0.00     0.088 A 
HETATM    9  N   UNL     1     -41.364  56.430 -50.503  1.00  0.00    -0.226 NA
HETATM   10  C   UNL     1     -40.641  52.946 -51.390  1.00  0.00     0.034 A 
HETATM   11  C   UNL     1     -40.354  52.421 -50.129  1.00  0.00     0.002 A 
HETATM   12  C   UNL     1     -40.410  53.248 -49.016  1.00  0.00     0.002 A 
HETATM   13  C   UNL     1     -40.757  54.592 -49.175  1.00  0.00     0.034 A 
ENDROOT
BRANCH   3  14
HETATM   14  C   UNL     1     -42.748  59.090 -51.468  1.00  0.00     0.042 A 
HETATM   15  C   UNL     1     -44.153  59.072 -51.493  1.00  0.00     0.031 A 
HETATM   16  C   UNL     1     -44.897  60.114 -50.923  1.00  0.00     0.027 A 
HETATM   17  C   UNL     1     -44.238  61.178 -50.308  1.00  0.00     0.074 A 
HETATM   18  C   UNL     1     -42.849  61.207 -50.248  1.00  0.00     0.027 A 
HETATM   19  C   UNL     1     -42.113  60.178 -50.841  1.00  0.00     0.031 A 
BRANCH  17  20
HETATM   20  S   UNL     1     -45.166  62.538 -49.650  1.00  0.00     0.243 S 
HETATM   21  O   UNL     1     -44.261  63.372 -48.888  1.00  0.00    -0.206 OA
HETATM   22  O   UNL     1     -45.951  63.083 -50.735  1.00  0.00    -0.206 OA
BRANCH  20  23
HETATM   23  N   UNL     1     -46.229  61.799 -48.546  1.00  0.00    -0.202 NA
HETATM   24  C   UNL     1     -45.621  61.045 -47.405  1.00  0.00     0.134 C 
HETATM   25  C   UNL     1     -45.241  61.963 -46.237  1.00  0.00     0.183 C 
HETATM   26  O   UNL     1     -46.355  62.756 -45.808  1.00  0.00    -0.389 OA
HETATM   27  C   UNL     1     -46.835  63.572 -46.885  1.00  0.00     0.183 C 
HETATM   28  C   UNL     1     -47.320  62.700 -48.049  1.00  0.00     0.134 C 
ENDBRANCH  20  23
ENDBRANCH  17  20
ENDBRANCH   3  14
BRANCH   2  29
HETATM   29  N   UNL     1     -41.338  59.334 -54.228  1.00  0.00    -0.287 NA
HETATM   30  H   UNL     1     -41.117  59.254 -55.224  1.00  0.00     0.125 HD
HETATM   31  H   UNL     1     -40.689  59.991 -53.790  1.00  0.00     0.125 HD
ENDBRANCH   2  29
BRANCH   1  32
HETATM   32  C   UNL     1     -41.820  56.477 -55.434  1.00  0.00     0.257 C 
HETATM   33  N   UNL     1     -42.194  57.523 -56.259  1.00  0.00    -0.356 N 
HETATM   34  H   UNL     1     -42.397  58.404 -55.796  1.00  0.00     0.162 HD
HETATM   35  O   UNL     1     -41.737  55.320 -55.829  1.00  0.00    -0.267 OA
BRANCH  33  36
HETATM   36  C   UNL     1     -42.864  57.296 -57.523  1.00  0.00     0.127 C 
BRANCH  36  37
HETATM   37  C   UNL     1     -43.664  58.518 -57.997  1.00  0.00     0.058 C 
BRANCH  37  38
HETATM   38  C   UNL     1     -42.833  59.530 -58.757  1.00  0.00    -0.057 A 
HETATM   39  C   UNL     1     -42.724  59.471 -60.152  1.00  0.00     0.010 A 
HETATM   40  C   UNL     1     -41.968  60.422 -60.851  1.00  0.00     0.037 A 
HETATM   41  C   UNL     1     -41.313  61.442 -60.162  1.00  0.00     0.068 A 
HETATM   42  C   UNL     1     -41.391  61.485 -58.770  1.00  0.00     0.037 A 
HETATM   43  C   UNL     1     -42.151  60.543 -58.071  1.00  0.00     0.010 A 
BRANCH  41  44
HETATM   44  O   UNL     1     -40.558  62.432 -60.728  1.00  0.00    -0.356 OA
HETATM   45  C   UNL     1     -40.709  62.615 -62.132  1.00  0.00     0.210 C 
ENDBRANCH  41  44
ENDBRANCH  37  38
ENDBRANCH  36  37
ENDBRANCH  33  36
ENDBRANCH   1  32
TORSDOF 9
ENDMDL
