MODEL 1
REMARK VINA RESULT:      -9.5      0.000      0.000
REMARK  6 active torsions:
REMARK  status: ('A' for Active; 'I' for Inactive)
REMARK    1  A    between atoms: C_4  and  N_5 
REMARK    2  A    between atoms: N_8  and  C_10 
REMARK    3  A    between atoms: C_10  and  C_11 
REMARK    4  A    between atoms: C_14  and  C_15 
REMARK    5  A    between atoms: C_15  and  N_16 
REMARK       I    between atoms: N_16  and  C_17 
REMARK    6  A    between atoms: C_17  and  C_18 
ROOT
HETATM    1  C   UNL     1     -43.392  58.514 -52.985  1.00  0.00     0.041 C 
HETATM    2  C   UNL     1     -41.866  58.806 -52.967  1.00  0.00    -0.004 C 
HETATM    3  C   UNL     1     -41.100  57.649 -52.281  1.00  0.00     0.040 C 
HETATM    4  C   UNL     1     -41.574  57.457 -50.820  1.00  0.00     0.206 C 
HETATM    5  N   UNL     1     -42.675  58.487 -50.602  1.00  0.00    -0.065 N 
HETATM    6  H   UNL     1     -43.044  58.326 -49.636  1.00  0.00     0.280 HD
HETATM    7  C   UNL     1     -43.863  58.349 -51.519  1.00  0.00     0.242 C 
HETATM    8  C   UNL     1     -41.627  60.085 -52.121  1.00  0.00     0.032 C 
HETATM    9  C   UNL     1     -42.108  59.886 -50.680  1.00  0.00     0.236 C 
ENDROOT
BRANCH   1  10
HETATM   10  C   UNL     1     -43.883  57.293 -53.795  1.00  0.00     0.241 C 
BRANCH  10  11
HETATM   11  N   UNL     1     -43.075  56.994 -55.038  1.00  0.00    -0.068 N 
HETATM   12  C   UNL     1     -43.377  55.616 -55.669  1.00  0.00     0.254 C 
HETATM   13  C   UNL     1     -42.559  55.411 -56.962  1.00  0.00     0.150 C 
HETATM   14  N   UNL     1     -42.871  56.483 -57.924  1.00  0.00    -0.378 N 
HETATM   15  C   UNL     1     -42.562  57.828 -57.416  1.00  0.00     0.150 C 
HETATM   16  C   UNL     1     -43.318  58.109 -56.103  1.00  0.00     0.254 C 
HETATM   17  H   UNL     1     -42.066  57.025 -54.840  1.00  0.00     0.280 HD
BRANCH  14  18
HETATM   18  C   UNL     1     -43.969  56.273 -58.767  1.00  0.00     0.030 A 
HETATM   19  C   UNL     1     -45.028  57.187 -58.907  1.00  0.00     0.029 A 
HETATM   20  C   UNL     1     -46.121  56.929 -59.745  1.00  0.00     0.002 A 
HETATM   21  C   UNL     1     -46.173  55.758 -60.490  1.00  0.00     0.000 A 
HETATM   22  C   UNL     1     -45.123  54.856 -60.410  1.00  0.00     0.002 A 
HETATM   23  C   UNL     1     -44.037  55.117 -59.567  1.00  0.00     0.029 A 
ENDBRANCH  14  18
ENDBRANCH  10  11
ENDBRANCH   1  10
BRANCH   4  24
HETATM   24  C   UNL     1     -42.013  55.991 -50.545  1.00  0.00     0.156 C 
BRANCH  24  25
HETATM   25  N   UNL     1     -41.349  54.916 -51.273  1.00  0.00    -0.355 N 
HETATM   26  C   UNL     1     -40.402  54.084 -50.708  1.00  0.00     0.251 C 
HETATM   27  O   UNL     1     -39.786  54.411 -49.696  1.00  0.00    -0.268 OA
HETATM   28  H   UNL     1     -41.898  54.514 -52.025  1.00  0.00     0.162 HD
BRANCH  26  29
HETATM   29  C   UNL     1     -40.216  52.732 -51.304  1.00  0.00     0.034 A 
HETATM   30  C   UNL     1     -40.242  52.645 -52.705  1.00  0.00     0.056 A 
HETATM   31  C   UNL     1     -39.983  51.421 -53.283  1.00  0.00     0.106 A 
HETATM   32  C   UNL     1     -39.718  50.306 -52.527  1.00  0.00     0.105 A 
HETATM   33  O   UNL     1     -39.939  51.169 -54.617  1.00  0.00    -0.323 OA
HETATM   34  O   UNL     1     -39.472  49.210 -53.292  1.00  0.00    -0.323 OA
HETATM   35  C   UNL     1     -39.710  50.348 -51.150  1.00  0.00     0.041 A 
HETATM   36  C   UNL     1     -39.626  49.758 -54.619  1.00  0.00     0.352 A 
HETATM   37  C   UNL     1     -39.970  51.577 -50.528  1.00  0.00     0.020 A 
ENDBRANCH  26  29
ENDBRANCH  24  25
ENDBRANCH   4  24
TORSDOF 6
ENDMDL
MODEL 2
REMARK VINA RESULT:      -9.4      1.099      1.446
REMARK  6 active torsions:
REMARK  status: ('A' for Active; 'I' for Inactive)
REMARK    1  A    between atoms: C_4  and  N_5 
REMARK    2  A    between atoms: N_8  and  C_10 
REMARK    3  A    between atoms: C_10  and  C_11 
REMARK    4  A    between atoms: C_14  and  C_15 
REMARK    5  A    between atoms: C_15  and  N_16 
REMARK       I    between atoms: N_16  and  C_17 
REMARK    6  A    between atoms: C_17  and  C_18 
ROOT
HETATM    1  C   UNL     1     -42.600  57.972 -54.730  1.00  0.00     0.041 C 
HETATM    2  C   UNL     1     -41.374  58.587 -54.000  1.00  0.00    -0.004 C 
HETATM    3  C   UNL     1     -41.008  57.749 -52.752  1.00  0.00     0.040 C 
HETATM    4  C   UNL     1     -42.188  57.694 -51.752  1.00  0.00     0.206 C 
HETATM    5  N   UNL     1     -43.319  58.483 -52.402  1.00  0.00    -0.065 N 
HETATM    6  H   UNL     1     -44.143  58.403 -51.761  1.00  0.00     0.280 HD
HETATM    7  C   UNL     1     -43.784  57.945 -53.730  1.00  0.00     0.242 C 
HETATM    8  C   UNL     1     -41.764  60.006 -53.508  1.00  0.00     0.032 C 
HETATM    9  C   UNL     1     -42.939  59.940 -52.526  1.00  0.00     0.236 C 
ENDROOT
BRANCH   1  10
HETATM   10  C   UNL     1     -42.445  56.560 -55.338  1.00  0.00     0.241 C 
BRANCH  10  11
HETATM   11  N   UNL     1     -42.222  56.539 -56.834  1.00  0.00    -0.068 N 
HETATM   12  C   UNL     1     -43.066  55.484 -57.582  1.00  0.00     0.254 C 
HETATM   13  C   UNL     1     -42.827  55.564 -59.104  1.00  0.00     0.150 C 
HETATM   14  N   UNL     1     -43.165  56.914 -59.591  1.00  0.00    -0.378 N 
HETATM   15  C   UNL     1     -42.365  57.976 -58.962  1.00  0.00     0.150 C 
HETATM   16  C   UNL     1     -42.522  57.951 -57.429  1.00  0.00     0.254 C 
HETATM   17  H   UNL     1     -41.234  56.356 -57.058  1.00  0.00     0.280 HD
BRANCH  14  18
HETATM   18  C   UNL     1     -44.502  57.140 -59.943  1.00  0.00     0.030 A 
HETATM   19  C   UNL     1     -45.111  58.406 -59.906  1.00  0.00     0.029 A 
HETATM   20  C   UNL     1     -46.459  58.587 -60.246  1.00  0.00     0.002 A 
HETATM   21  C   UNL     1     -47.230  57.508 -60.659  1.00  0.00     0.000 A 
HETATM   22  C   UNL     1     -46.646  56.253 -60.749  1.00  0.00     0.002 A 
HETATM   23  C   UNL     1     -45.302  56.078 -60.404  1.00  0.00     0.029 A 
ENDBRANCH  14  18
ENDBRANCH  10  11
ENDBRANCH   1  10
BRANCH   4  24
HETATM   24  C   UNL     1     -42.565  56.232 -51.384  1.00  0.00     0.156 C 
BRANCH  24  25
HETATM   25  N   UNL     1     -41.749  55.147 -51.916  1.00  0.00    -0.355 N 
HETATM   26  C   UNL     1     -40.843  54.432 -51.157  1.00  0.00     0.251 C 
HETATM   27  O   UNL     1     -40.390  54.884 -50.108  1.00  0.00    -0.268 OA
HETATM   28  H   UNL     1     -42.167  54.647 -52.694  1.00  0.00     0.162 HD
BRANCH  26  29
HETATM   29  C   UNL     1     -40.502  53.050 -51.596  1.00  0.00     0.034 A 
HETATM   30  C   UNL     1     -40.508  52.801 -52.978  1.00  0.00     0.056 A 
HETATM   31  C   UNL     1     -40.109  51.556 -53.413  1.00  0.00     0.106 A 
HETATM   32  C   UNL     1     -39.726  50.571 -52.537  1.00  0.00     0.105 A 
HETATM   33  O   UNL     1     -40.027  51.161 -54.710  1.00  0.00    -0.323 OA
HETATM   34  O   UNL     1     -39.353  49.431 -53.173  1.00  0.00    -0.323 OA
HETATM   35  C   UNL     1     -39.733  50.771 -51.174  1.00  0.00     0.041 A 
HETATM   36  C   UNL     1     -39.557  49.803 -54.554  1.00  0.00     0.352 A 
HETATM   37  C   UNL     1     -40.133  52.026 -50.695  1.00  0.00     0.020 A 
ENDBRANCH  26  29
ENDBRANCH  24  25
ENDBRANCH   4  24
TORSDOF 6
ENDMDL
MODEL 3
REMARK VINA RESULT:      -9.4      1.397      2.460
REMARK  6 active torsions:
REMARK  status: ('A' for Active; 'I' for Inactive)
REMARK    1  A    between atoms: C_4  and  N_5 
REMARK    2  A    between atoms: N_8  and  C_10 
REMARK    3  A    between atoms: C_10  and  C_11 
REMARK    4  A    between atoms: C_14  and  C_15 
REMARK    5  A    between atoms: C_15  and  N_16 
REMARK       I    between atoms: N_16  and  C_17 
REMARK    6  A    between atoms: C_17  and  C_18 
ROOT
HETATM    1  C   UNL     1     -43.503  57.973 -53.344  1.00  0.00     0.041 C 
HETATM    2  C   UNL     1     -42.031  58.470 -53.349  1.00  0.00    -0.004 C 
HETATM    3  C   UNL     1     -41.140  57.538 -52.494  1.00  0.00     0.040 C 
HETATM    4  C   UNL     1     -41.630  57.491 -51.026  1.00  0.00     0.206 C 
HETATM    5  N   UNL     1     -42.865  58.382 -50.974  1.00  0.00    -0.065 N 
HETATM    6  H   UNL     1     -43.240  58.312 -49.998  1.00  0.00     0.280 HD
HETATM    7  C   UNL     1     -43.994  57.954 -51.875  1.00  0.00     0.242 C 
HETATM    8  C   UNL     1     -41.992  59.877 -52.695  1.00  0.00     0.032 C 
HETATM    9  C   UNL     1     -42.487  59.820 -51.246  1.00  0.00     0.236 C 
ENDROOT
BRANCH   1  10
HETATM   10  C   UNL     1     -43.801  56.594 -53.974  1.00  0.00     0.241 C 
BRANCH  10  11
HETATM   11  N   UNL     1     -44.154  56.635 -55.444  1.00  0.00    -0.068 N 
HETATM   12  C   UNL     1     -44.775  57.973 -55.906  1.00  0.00     0.254 C 
HETATM   13  C   UNL     1     -45.052  57.957 -57.424  1.00  0.00     0.150 C 
HETATM   14  N   UNL     1     -43.797  57.706 -58.157  1.00  0.00    -0.378 N 
HETATM   15  C   UNL     1     -43.168  56.423 -57.810  1.00  0.00     0.150 C 
HETATM   16  C   UNL     1     -42.881  56.340 -56.298  1.00  0.00     0.254 C 
HETATM   17  H   UNL     1     -44.821  55.889 -55.686  1.00  0.00     0.280 HD
BRANCH  14  18
HETATM   18  C   UNL     1     -43.014  58.825 -58.466  1.00  0.00     0.030 A 
HETATM   19  C   UNL     1     -42.208  59.493 -57.528  1.00  0.00     0.029 A 
HETATM   20  C   UNL     1     -41.455  60.623 -57.872  1.00  0.00     0.002 A 
HETATM   21  C   UNL     1     -41.467  61.104 -59.176  1.00  0.00     0.000 A 
HETATM   22  C   UNL     1     -42.216  60.441 -60.136  1.00  0.00     0.002 A 
HETATM   23  C   UNL     1     -42.970  59.316 -59.784  1.00  0.00     0.029 A 
ENDBRANCH  14  18
ENDBRANCH  10  11
ENDBRANCH   1  10
BRANCH   4  24
HETATM   24  C   UNL     1     -41.878  56.034 -50.547  1.00  0.00     0.156 C 
BRANCH  24  25
HETATM   25  N   UNL     1     -41.198  54.947 -51.240  1.00  0.00    -0.355 N 
HETATM   26  C   UNL     1     -40.374  54.036 -50.608  1.00  0.00     0.251 C 
HETATM   27  O   UNL     1     -39.862  54.286 -49.519  1.00  0.00    -0.268 OA
HETATM   28  H   UNL     1     -41.678  54.608 -52.068  1.00  0.00     0.162 HD
BRANCH  26  29
HETATM   29  C   UNL     1     -40.199  52.698 -51.238  1.00  0.00     0.034 A 
HETATM   30  C   UNL     1     -40.228  52.646 -52.640  1.00  0.00     0.056 A 
HETATM   31  C   UNL     1     -39.979  51.434 -53.249  1.00  0.00     0.106 A 
HETATM   32  C   UNL     1     -39.720  50.299 -52.522  1.00  0.00     0.105 A 
HETATM   33  O   UNL     1     -39.940  51.216 -54.589  1.00  0.00    -0.323 OA
HETATM   34  O   UNL     1     -39.484  49.221 -53.314  1.00  0.00    -0.323 OA
HETATM   35  C   UNL     1     -39.710  50.308 -51.144  1.00  0.00     0.041 A 
HETATM   36  C   UNL     1     -39.637  49.803 -54.627  1.00  0.00     0.352 A 
HETATM   37  C   UNL     1     -39.959  51.523 -50.492  1.00  0.00     0.020 A 
ENDBRANCH  26  29
ENDBRANCH  24  25
ENDBRANCH   4  24
TORSDOF 6
ENDMDL
MODEL 4
REMARK VINA RESULT:      -9.2      2.836      6.937
REMARK  6 active torsions:
REMARK  status: ('A' for Active; 'I' for Inactive)
REMARK    1  A    between atoms: C_4  and  N_5 
REMARK    2  A    between atoms: N_8  and  C_10 
REMARK    3  A    between atoms: C_10  and  C_11 
REMARK    4  A    between atoms: C_14  and  C_15 
REMARK    5  A    between atoms: C_15  and  N_16 
REMARK       I    between atoms: N_16  and  C_17 
REMARK    6  A    between atoms: C_17  and  C_18 
ROOT
HETATM    1  C   UNL     1     -44.433  59.251 -51.060  1.00  0.00     0.041 C 
HETATM    2  C   UNL     1     -45.618  59.929 -51.801  1.00  0.00    -0.004 C 
HETATM    3  C   UNL     1     -45.115  60.675 -53.060  1.00  0.00     0.040 C 
HETATM    4  C   UNL     1     -44.088  61.771 -52.686  1.00  0.00     0.206 C 
HETATM    5  N   UNL     1     -43.923  61.684 -51.173  1.00  0.00    -0.065 N 
HETATM    6  H   UNL     1     -43.186  62.381 -50.915  1.00  0.00     0.280 HD
HETATM    7  C   UNL     1     -43.422  60.357 -50.665  1.00  0.00     0.242 C 
HETATM    8  C   UNL     1     -46.241  60.987 -50.853  1.00  0.00     0.032 C 
HETATM    9  C   UNL     1     -45.213  62.061 -50.482  1.00  0.00     0.236 C 
ENDROOT
BRANCH   1  10
HETATM   10  C   UNL     1     -43.665  58.132 -51.798  1.00  0.00     0.241 C 
BRANCH  10  11
HETATM   11  N   UNL     1     -43.052  57.085 -50.895  1.00  0.00    -0.068 N 
HETATM   12  C   UNL     1     -43.594  55.656 -51.127  1.00  0.00     0.254 C 
HETATM   13  C   UNL     1     -42.879  54.640 -50.212  1.00  0.00     0.150 C 
HETATM   14  N   UNL     1     -41.428  54.674 -50.467  1.00  0.00    -0.378 N 
HETATM   15  C   UNL     1     -40.824  55.992 -50.218  1.00  0.00     0.150 C 
HETATM   16  C   UNL     1     -41.501  57.080 -51.075  1.00  0.00     0.254 C 
HETATM   17  H   UNL     1     -43.208  57.313 -49.904  1.00  0.00     0.280 HD
BRANCH  14  18
HETATM   18  C   UNL     1     -40.950  53.853 -51.496  1.00  0.00     0.030 A 
HETATM   19  C   UNL     1     -41.173  54.106 -52.860  1.00  0.00     0.029 A 
HETATM   20  C   UNL     1     -40.695  53.247 -53.859  1.00  0.00     0.002 A 
HETATM   21  C   UNL     1     -39.957  52.120 -53.521  1.00  0.00     0.000 A 
HETATM   22  C   UNL     1     -39.680  51.865 -52.186  1.00  0.00     0.002 A 
HETATM   23  C   UNL     1     -40.165  52.725 -51.193  1.00  0.00     0.029 A 
ENDBRANCH  14  18
ENDBRANCH  10  11
ENDBRANCH   1  10
BRANCH   4  24
HETATM   24  C   UNL     1     -42.761  61.612 -53.478  1.00  0.00     0.156 C 
BRANCH  24  25
HETATM   25  N   UNL     1     -42.715  60.655 -54.577  1.00  0.00    -0.355 N 
HETATM   26  C   UNL     1     -41.878  59.557 -54.598  1.00  0.00     0.251 C 
HETATM   27  O   UNL     1     -40.870  59.509 -53.897  1.00  0.00    -0.268 OA
HETATM   28  H   UNL     1     -43.588  60.555 -55.086  1.00  0.00     0.162 HD
BRANCH  26  29
HETATM   29  C   UNL     1     -42.282  58.386 -55.425  1.00  0.00     0.034 A 
HETATM   30  C   UNL     1     -42.707  58.649 -56.737  1.00  0.00     0.056 A 
HETATM   31  C   UNL     1     -43.001  57.576 -57.550  1.00  0.00     0.106 A 
HETATM   32  C   UNL     1     -42.898  56.281 -57.105  1.00  0.00     0.105 A 
HETATM   33  O   UNL     1     -43.395  57.651 -58.847  1.00  0.00    -0.323 OA
HETATM   34  O   UNL     1     -43.215  55.377 -58.068  1.00  0.00    -0.323 OA
HETATM   35  C   UNL     1     -42.509  55.986 -55.817  1.00  0.00     0.041 A 
HETATM   36  C   UNL     1     -43.543  56.250 -59.171  1.00  0.00     0.352 A 
HETATM   37  C   UNL     1     -42.203  57.053 -54.961  1.00  0.00     0.020 A 
ENDBRANCH  26  29
ENDBRANCH  24  25
ENDBRANCH   4  24
TORSDOF 6
ENDMDL
MODEL 5
REMARK VINA RESULT:      -8.9      1.313      1.966
REMARK  6 active torsions:
REMARK  status: ('A' for Active; 'I' for Inactive)
REMARK    1  A    between atoms: C_4  and  N_5 
REMARK    2  A    between atoms: N_8  and  C_10 
REMARK    3  A    between atoms: C_10  and  C_11 
REMARK    4  A    between atoms: C_14  and  C_15 
REMARK    5  A    between atoms: C_15  and  N_16 
REMARK       I    between atoms: N_16  and  C_17 
REMARK    6  A    between atoms: C_17  and  C_18 
ROOT
HETATM    1  C   UNL     1     -44.401  59.664 -53.247  1.00  0.00     0.041 C 
HETATM    2  C   UNL     1     -42.912  60.091 -53.129  1.00  0.00    -0.004 C 
HETATM    3  C   UNL     1     -42.035  58.892 -52.697  1.00  0.00     0.040 C 
HETATM    4  C   UNL     1     -42.489  58.336 -51.325  1.00  0.00     0.206 C 
HETATM    5  N   UNL     1     -43.688  59.181 -50.913  1.00  0.00    -0.065 N 
HETATM    6  H   UNL     1     -44.041  58.775 -50.014  1.00  0.00     0.280 HD
HETATM    7  C   UNL     1     -44.855  59.133 -51.865  1.00  0.00     0.242 C 
HETATM    8  C   UNL     1     -42.804  61.169 -52.018  1.00  0.00     0.032 C 
HETATM    9  C   UNL     1     -43.264  60.610 -50.668  1.00  0.00     0.236 C 
ENDROOT
BRANCH   1  10
HETATM   10  C   UNL     1     -44.766  58.610 -54.317  1.00  0.00     0.241 C 
BRANCH  10  11
HETATM   11  N   UNL     1     -44.028  58.760 -55.629  1.00  0.00    -0.068 N 
HETATM   12  C   UNL     1     -43.207  57.516 -56.036  1.00  0.00     0.254 C 
HETATM   13  C   UNL     1     -42.534  57.725 -57.409  1.00  0.00     0.150 C 
HETATM   14  N   UNL     1     -43.560  58.005 -58.429  1.00  0.00    -0.378 N 
HETATM   15  C   UNL     1     -44.355  59.209 -58.140  1.00  0.00     0.150 C 
HETATM   16  C   UNL     1     -45.043  59.098 -56.765  1.00  0.00     0.254 C 
HETATM   17  H   UNL     1     -43.379  59.558 -55.599  1.00  0.00     0.280 HD
BRANCH  14  18
HETATM   18  C   UNL     1     -44.145  56.897 -59.055  1.00  0.00     0.030 A 
HETATM   19  C   UNL     1     -43.624  55.594 -58.973  1.00  0.00     0.029 A 
HETATM   20  C   UNL     1     -44.228  54.514 -59.632  1.00  0.00     0.002 A 
HETATM   21  C   UNL     1     -45.386  54.704 -60.374  1.00  0.00     0.000 A 
HETATM   22  C   UNL     1     -45.951  55.970 -60.439  1.00  0.00     0.002 A 
HETATM   23  C   UNL     1     -45.340  57.044 -59.782  1.00  0.00     0.029 A 
ENDBRANCH  14  18
ENDBRANCH  10  11
ENDBRANCH   1  10
BRANCH   4  24
HETATM   24  C   UNL     1     -42.779  56.811 -51.390  1.00  0.00     0.156 C 
BRANCH  24  25
HETATM   25  N   UNL     1     -41.829  55.948 -52.081  1.00  0.00    -0.355 N 
HETATM   26  C   UNL     1     -41.147  54.917 -51.466  1.00  0.00     0.251 C 
HETATM   27  O   UNL     1     -41.003  54.884 -50.245  1.00  0.00    -0.268 OA
HETATM   28  H   UNL     1     -42.011  55.828 -53.072  1.00  0.00     0.162 HD
BRANCH  26  29
HETATM   29  C   UNL     1     -40.673  53.789 -52.314  1.00  0.00     0.034 A 
HETATM   30  C   UNL     1     -40.273  52.618 -51.651  1.00  0.00     0.056 A 
HETATM   31  C   UNL     1     -39.915  51.529 -52.418  1.00  0.00     0.106 A 
HETATM   32  C   UNL     1     -39.931  51.574 -53.790  1.00  0.00     0.105 A 
HETATM   33  O   UNL     1     -39.534  50.317 -51.940  1.00  0.00    -0.323 OA
HETATM   34  O   UNL     1     -39.562  50.392 -54.349  1.00  0.00    -0.323 OA
HETATM   35  C   UNL     1     -40.293  52.714 -54.473  1.00  0.00     0.041 A 
HETATM   36  C   UNL     1     -39.298  49.598 -53.171  1.00  0.00     0.352 A 
HETATM   37  C   UNL     1     -40.663  53.840 -53.726  1.00  0.00     0.020 A 
ENDBRANCH  26  29
ENDBRANCH  24  25
ENDBRANCH   4  24
TORSDOF 6
ENDMDL
MODEL 6
REMARK VINA RESULT:      -8.8      3.066      8.324
REMARK  6 active torsions:
REMARK  status: ('A' for Active; 'I' for Inactive)
REMARK    1  A    between atoms: C_4  and  N_5 
REMARK    2  A    between atoms: N_8  and  C_10 
REMARK    3  A    between atoms: C_10  and  C_11 
REMARK    4  A    between atoms: C_14  and  C_15 
REMARK    5  A    between atoms: C_15  and  N_16 
REMARK       I    between atoms: N_16  and  C_17 
REMARK    6  A    between atoms: C_17  and  C_18 
ROOT
HETATM    1  C   UNL     1     -43.343  56.161 -57.963  1.00  0.00     0.041 C 
HETATM    2  C   UNL     1     -42.839  55.873 -59.404  1.00  0.00    -0.004 C 
HETATM    3  C   UNL     1     -42.296  57.165 -60.058  1.00  0.00     0.040 C 
HETATM    4  C   UNL     1     -43.394  58.253 -60.139  1.00  0.00     0.206 C 
HETATM    5  N   UNL     1     -44.632  57.640 -59.494  1.00  0.00    -0.065 N 
HETATM    6  H   UNL     1     -45.364  58.388 -59.490  1.00  0.00     0.280 HD
HETATM    7  C   UNL     1     -44.460  57.231 -58.055  1.00  0.00     0.242 C 
HETATM    8  C   UNL     1     -44.047  55.395 -60.253  1.00  0.00     0.032 C 
HETATM    9  C   UNL     1     -45.131  56.476 -60.318  1.00  0.00     0.236 C 
ENDROOT
BRANCH   1  10
HETATM   10  C   UNL     1     -42.307  56.628 -56.916  1.00  0.00     0.241 C 
BRANCH  10  11
HETATM   11  N   UNL     1     -42.632  56.240 -55.491  1.00  0.00    -0.068 N 
HETATM   12  C   UNL     1     -43.151  54.794 -55.333  1.00  0.00     0.254 C 
HETATM   13  C   UNL     1     -43.403  54.457 -53.849  1.00  0.00     0.150 C 
HETATM   14  N   UNL     1     -42.156  54.628 -53.081  1.00  0.00    -0.378 N 
HETATM   15  C   UNL     1     -41.623  55.998 -53.137  1.00  0.00     0.150 C 
HETATM   16  C   UNL     1     -41.368  56.431 -54.595  1.00  0.00     0.254 C 
HETATM   17  H   UNL     1     -43.344  56.866 -55.090  1.00  0.00     0.280 HD
BRANCH  14  18
HETATM   18  C   UNL     1     -41.293  53.527 -53.026  1.00  0.00     0.030 A 
HETATM   19  C   UNL     1     -40.569  53.163 -51.878  1.00  0.00     0.029 A 
HETATM   20  C   UNL     1     -39.698  52.065 -51.871  1.00  0.00     0.002 A 
HETATM   21  C   UNL     1     -39.545  51.283 -53.008  1.00  0.00     0.000 A 
HETATM   22  C   UNL     1     -40.279  51.589 -54.145  1.00  0.00     0.002 A 
HETATM   23  C   UNL     1     -41.143  52.689 -54.147  1.00  0.00     0.029 A 
ENDBRANCH  14  18
ENDBRANCH  10  11
ENDBRANCH   1  10
BRANCH   4  24
HETATM   24  C   UNL     1     -42.934  59.586 -59.487  1.00  0.00     0.156 C 
BRANCH  24  25
HETATM   25  N   UNL     1     -42.616  59.593 -58.064  1.00  0.00    -0.355 N 
HETATM   26  C   UNL     1     -43.251  60.404 -57.144  1.00  0.00     0.251 C 
HETATM   27  O   UNL     1     -43.847  61.421 -57.493  1.00  0.00    -0.268 OA
HETATM   28  H   UNL     1     -42.262  58.712 -57.706  1.00  0.00     0.162 HD
BRANCH  26  29
HETATM   29  C   UNL     1     -43.278  59.960 -55.723  1.00  0.00     0.034 A 
HETATM   30  C   UNL     1     -42.092  60.109 -54.987  1.00  0.00     0.056 A 
HETATM   31  C   UNL     1     -42.117  59.790 -53.646  1.00  0.00     0.106 A 
HETATM   32  C   UNL     1     -43.255  59.327 -53.034  1.00  0.00     0.105 A 
HETATM   33  O   UNL     1     -41.071  59.903 -52.787  1.00  0.00    -0.323 OA
HETATM   34  O   UNL     1     -43.068  59.090 -51.710  1.00  0.00    -0.323 OA
HETATM   35  C   UNL     1     -44.429  59.143 -53.730  1.00  0.00     0.041 A 
HETATM   36  C   UNL     1     -41.676  59.445 -51.557  1.00  0.00     0.352 A 
HETATM   37  C   UNL     1     -44.440  59.458 -55.096  1.00  0.00     0.020 A 
ENDBRANCH  26  29
ENDBRANCH  24  25
ENDBRANCH   4  24
TORSDOF 6
ENDMDL
MODEL 7
REMARK VINA RESULT:      -8.8      2.048      2.903
REMARK  6 active torsions:
REMARK  status: ('A' for Active; 'I' for Inactive)
REMARK    1  A    between atoms: C_4  and  N_5 
REMARK    2  A    between atoms: N_8  and  C_10 
REMARK    3  A    between atoms: C_10  and  C_11 
REMARK    4  A    between atoms: C_14  and  C_15 
REMARK    5  A    between atoms: C_15  and  N_16 
REMARK       I    between atoms: N_16  and  C_17 
REMARK    6  A    between atoms: C_17  and  C_18 
ROOT
HETATM    1  C   UNL     1     -43.525  58.493 -54.876  1.00  0.00     0.041 C 
HETATM    2  C   UNL     1     -42.187  59.276 -54.768  1.00  0.00    -0.004 C 
HETATM    3  C   UNL     1     -41.290  58.670 -53.663  1.00  0.00     0.040 C 
HETATM    4  C   UNL     1     -41.993  58.721 -52.285  1.00  0.00     0.206 C 
HETATM    5  N   UNL     1     -43.363  59.339 -52.541  1.00  0.00    -0.065 N 
HETATM    6  H   UNL     1     -43.870  59.324 -51.625  1.00  0.00     0.280 HD
HETATM    7  C   UNL     1     -44.234  58.571 -53.501  1.00  0.00     0.242 C 
HETATM    8  C   UNL     1     -42.513  60.736 -54.354  1.00  0.00     0.032 C 
HETATM    9  C   UNL     1     -43.216  60.773 -52.993  1.00  0.00     0.236 C 
ENDROOT
BRANCH   1  10
HETATM   10  C   UNL     1     -43.460  57.010 -55.306  1.00  0.00     0.241 C 
BRANCH  10  11
HETATM   11  N   UNL     1     -44.063  56.720 -56.663  1.00  0.00    -0.068 N 
HETATM   12  C   UNL     1     -44.891  57.886 -57.247  1.00  0.00     0.254 C 
HETATM   13  C   UNL     1     -45.421  57.536 -58.654  1.00  0.00     0.150 C 
HETATM   14  N   UNL     1     -44.291  57.225 -59.549  1.00  0.00    -0.378 N 
HETATM   15  C   UNL     1     -43.479  56.089 -59.088  1.00  0.00     0.150 C 
HETATM   16  C   UNL     1     -42.930  56.342 -57.669  1.00  0.00     0.254 C 
HETATM   17  H   UNL     1     -44.678  55.896 -56.627  1.00  0.00     0.280 HD
BRANCH  14  18
HETATM   18  C   UNL     1     -43.695  58.307 -60.209  1.00  0.00     0.030 A 
HETATM   19  C   UNL     1     -42.323  58.376 -60.505  1.00  0.00     0.029 A 
HETATM   20  C   UNL     1     -41.761  59.487 -61.149  1.00  0.00     0.002 A 
HETATM   21  C   UNL     1     -42.563  60.551 -61.540  1.00  0.00     0.000 A 
HETATM   22  C   UNL     1     -43.928  60.495 -61.303  1.00  0.00     0.002 A 
HETATM   23  C   UNL     1     -44.482  59.385 -60.655  1.00  0.00     0.029 A 
ENDBRANCH  14  18
ENDBRANCH  10  11
ENDBRANCH   1  10
BRANCH   4  24
HETATM   24  C   UNL     1     -42.044  57.322 -51.612  1.00  0.00     0.156 C 
BRANCH  24  25
HETATM   25  N   UNL     1     -41.191  56.263 -52.138  1.00  0.00    -0.355 N 
HETATM   26  C   UNL     1     -41.026  55.038 -51.521  1.00  0.00     0.251 C 
HETATM   27  O   UNL     1     -41.273  54.886 -50.327  1.00  0.00    -0.268 OA
HETATM   28  H   UNL     1     -41.089  56.267 -53.148  1.00  0.00     0.162 HD
BRANCH  26  29
HETATM   29  C   UNL     1     -40.632  53.878 -52.367  1.00  0.00     0.034 A 
HETATM   30  C   UNL     1     -40.233  52.710 -51.698  1.00  0.00     0.056 A 
HETATM   31  C   UNL     1     -39.949  51.594 -52.456  1.00  0.00     0.106 A 
HETATM   32  C   UNL     1     -40.036  51.609 -53.827  1.00  0.00     0.105 A 
HETATM   33  O   UNL     1     -39.580  50.381 -51.970  1.00  0.00    -0.323 OA
HETATM   34  O   UNL     1     -39.733  50.405 -54.376  1.00  0.00    -0.323 OA
HETATM   35  C   UNL     1     -40.398  52.745 -54.517  1.00  0.00     0.041 A 
HETATM   36  C   UNL     1     -39.431  49.628 -53.196  1.00  0.00     0.352 A 
HETATM   37  C   UNL     1     -40.694  53.898 -53.778  1.00  0.00     0.020 A 
ENDBRANCH  26  29
ENDBRANCH  24  25
ENDBRANCH   4  24
TORSDOF 6
ENDMDL
MODEL 8
REMARK VINA RESULT:      -8.8      1.810      2.544
REMARK  6 active torsions:
REMARK  status: ('A' for Active; 'I' for Inactive)
REMARK    1  A    between atoms: C_4  and  N_5 
REMARK    2  A    between atoms: N_8  and  C_10 
REMARK    3  A    between atoms: C_10  and  C_11 
REMARK    4  A    between atoms: C_14  and  C_15 
REMARK    5  A    between atoms: C_15  and  N_16 
REMARK       I    between atoms: N_16  and  C_17 
REMARK    6  A    between atoms: C_17  and  C_18 
ROOT
HETATM    1  C   UNL     1     -43.161  59.064 -54.277  1.00  0.00     0.041 C 
HETATM    2  C   UNL     1     -42.640  60.101 -53.244  1.00  0.00    -0.004 C 
HETATM    3  C   UNL     1     -42.880  59.599 -51.801  1.00  0.00     0.040 C 
HETATM    4  C   UNL     1     -44.387  59.367 -51.535  1.00  0.00     0.206 C 
HETATM    5  N   UNL     1     -45.094  59.698 -52.844  1.00  0.00    -0.065 N 
HETATM    6  H   UNL     1     -46.109  59.487 -52.694  1.00  0.00     0.280 HD
HETATM    7  C   UNL     1     -44.675  58.856 -54.021  1.00  0.00     0.242 C 
HETATM    8  C   UNL     1     -43.454  61.411 -53.421  1.00  0.00     0.032 C 
HETATM    9  C   UNL     1     -44.944  61.167 -53.164  1.00  0.00     0.236 C 
ENDROOT
BRANCH   1  10
HETATM   10  C   UNL     1     -42.479  57.677 -54.313  1.00  0.00     0.241 C 
BRANCH  10  11
HETATM   11  N   UNL     1     -42.221  57.137 -55.702  1.00  0.00    -0.068 N 
HETATM   12  C   UNL     1     -43.080  55.907 -56.070  1.00  0.00     0.254 C 
HETATM   13  C   UNL     1     -42.802  55.453 -57.518  1.00  0.00     0.150 C 
HETATM   14  N   UNL     1     -43.086  56.559 -58.450  1.00  0.00    -0.378 N 
HETATM   15  C   UNL     1     -42.268  57.756 -58.198  1.00  0.00     0.150 C 
HETATM   16  C   UNL     1     -42.463  58.264 -56.755  1.00  0.00     0.254 C 
HETATM   17  H   UNL     1     -41.235  56.867 -55.817  1.00  0.00     0.280 HD
BRANCH  14  18
HETATM   18  C   UNL     1     -44.406  56.678 -58.903  1.00  0.00     0.030 A 
HETATM   19  C   UNL     1     -45.296  57.668 -58.451  1.00  0.00     0.029 A 
HETATM   20  C   UNL     1     -46.617  57.741 -58.914  1.00  0.00     0.002 A 
HETATM   21  C   UNL     1     -47.078  56.838 -59.863  1.00  0.00     0.000 A 
HETATM   22  C   UNL     1     -46.212  55.876 -60.363  1.00  0.00     0.002 A 
HETATM   23  C   UNL     1     -44.896  55.807 -59.892  1.00  0.00     0.029 A 
ENDBRANCH  14  18
ENDBRANCH  10  11
ENDBRANCH   1  10
BRANCH   4  24
HETATM   24  C   UNL     1     -44.665  57.931 -51.010  1.00  0.00     0.156 C 
BRANCH  24  25
HETATM   25  N   UNL     1     -43.559  56.982 -50.954  1.00  0.00    -0.355 N 
HETATM   26  C   UNL     1     -43.724  55.631 -50.721  1.00  0.00     0.251 C 
HETATM   27  O   UNL     1     -44.739  55.195 -50.183  1.00  0.00    -0.268 OA
HETATM   28  H   UNL     1     -42.755  57.239 -51.517  1.00  0.00     0.162 HD
BRANCH  26  29
HETATM   29  C   UNL     1     -42.678  54.702 -51.230  1.00  0.00     0.034 A 
HETATM   30  C   UNL     1     -42.771  54.312 -52.576  1.00  0.00     0.056 A 
HETATM   31  C   UNL     1     -41.766  53.525 -53.094  1.00  0.00     0.106 A 
HETATM   32  C   UNL     1     -40.702  53.114 -52.329  1.00  0.00     0.105 A 
HETATM   33  O   UNL     1     -41.686  53.086 -54.377  1.00  0.00    -0.323 OA
HETATM   34  O   UNL     1     -39.818  52.364 -53.037  1.00  0.00    -0.323 OA
HETATM   35  C   UNL     1     -40.591  53.455 -51.000  1.00  0.00     0.041 A 
HETATM   36  C   UNL     1     -40.451  52.337 -54.334  1.00  0.00     0.352 A 
HETATM   37  C   UNL     1     -41.596  54.255 -50.439  1.00  0.00     0.020 A 
ENDBRANCH  26  29
ENDBRANCH  24  25
ENDBRANCH   4  24
TORSDOF 6
ENDMDL
MODEL 9
REMARK VINA RESULT:      -8.7      3.075      7.303
REMARK  6 active torsions:
REMARK  status: ('A' for Active; 'I' for Inactive)
REMARK    1  A    between atoms: C_4  and  N_5 
REMARK    2  A    between atoms: N_8  and  C_10 
REMARK    3  A    between atoms: C_10  and  C_11 
REMARK    4  A    between atoms: C_14  and  C_15 
REMARK    5  A    between atoms: C_15  and  N_16 
REMARK       I    between atoms: N_16  and  C_17 
REMARK    6  A    between atoms: C_17  and  C_18 
ROOT
HETATM    1  C   UNL     1     -42.421  59.132 -50.833  1.00  0.00     0.041 C 
HETATM    2  C   UNL     1     -43.915  59.141 -51.258  1.00  0.00    -0.004 C 
HETATM    3  C   UNL     1     -44.042  59.183 -52.800  1.00  0.00     0.040 C 
HETATM    4  C   UNL     1     -43.366  60.449 -53.380  1.00  0.00     0.206 C 
HETATM    5  N   UNL     1     -42.780  61.191 -52.184  1.00  0.00    -0.065 N 
HETATM    6  H   UNL     1     -42.269  62.019 -52.570  1.00  0.00     0.280 HD
HETATM    7  C   UNL     1     -41.758  60.414 -51.395  1.00  0.00     0.242 C 
HETATM    8  C   UNL     1     -44.568  60.435 -50.704  1.00  0.00     0.032 C 
HETATM    9  C   UNL     1     -43.885  61.681 -51.278  1.00  0.00     0.236 C 
ENDROOT
BRANCH   1  10
HETATM   10  C   UNL     1     -41.560  57.917 -51.249  1.00  0.00     0.241 C 
BRANCH  10  11
HETATM   11  N   UNL     1     -42.282  56.893 -52.096  1.00  0.00    -0.068 N 
HETATM   12  C   UNL     1     -41.512  56.470 -53.367  1.00  0.00     0.254 C 
HETATM   13  C   UNL     1     -42.284  55.383 -54.143  1.00  0.00     0.150 C 
HETATM   14  N   UNL     1     -42.501  54.211 -53.276  1.00  0.00    -0.378 N 
HETATM   15  C   UNL     1     -43.276  54.520 -52.064  1.00  0.00     0.150 C 
HETATM   16  C   UNL     1     -42.588  55.625 -51.237  1.00  0.00     0.254 C 
HETATM   17  H   UNL     1     -43.201  57.243 -52.398  1.00  0.00     0.280 HD
BRANCH  14  18
HETATM   18  C   UNL     1     -41.482  53.251 -53.246  1.00  0.00     0.030 A 
HETATM   19  C   UNL     1     -41.140  52.448 -54.348  1.00  0.00     0.029 A 
HETATM   20  C   UNL     1     -40.127  51.482 -54.271  1.00  0.00     0.002 A 
HETATM   21  C   UNL     1     -39.409  51.310 -53.094  1.00  0.00     0.000 A 
HETATM   22  C   UNL     1     -39.692  52.117 -52.003  1.00  0.00     0.002 A 
HETATM   23  C   UNL     1     -40.708  53.076 -52.085  1.00  0.00     0.029 A 
ENDBRANCH  14  18
ENDBRANCH  10  11
ENDBRANCH   1  10
BRANCH   4  24
HETATM   24  C   UNL     1     -42.325  60.095 -54.478  1.00  0.00     0.156 C 
BRANCH  24  25
HETATM   25  N   UNL     1     -42.808  59.618 -55.768  1.00  0.00    -0.355 N 
HETATM   26  C   UNL     1     -42.089  59.734 -56.942  1.00  0.00     0.251 C 
HETATM   27  O   UNL     1     -41.186  60.559 -57.059  1.00  0.00    -0.268 OA
HETATM   28  H   UNL     1     -43.443  58.828 -55.714  1.00  0.00     0.162 HD
BRANCH  26  29
HETATM   29  C   UNL     1     -42.374  58.762 -58.034  1.00  0.00     0.034 A 
HETATM   30  C   UNL     1     -42.933  57.530 -57.660  1.00  0.00     0.056 A 
HETATM   31  C   UNL     1     -43.289  56.650 -58.660  1.00  0.00     0.106 A 
HETATM   32  C   UNL     1     -43.099  56.947 -59.986  1.00  0.00     0.105 A 
HETATM   33  O   UNL     1     -43.865  55.434 -58.474  1.00  0.00    -0.323 OA
HETATM   34  O   UNL     1     -43.534  55.954 -60.805  1.00  0.00    -0.323 OA
HETATM   35  C   UNL     1     -42.529  58.135 -60.389  1.00  0.00     0.041 A 
HETATM   36  C   UNL     1     -44.009  54.988 -59.842  1.00  0.00     0.352 A 
HETATM   37  C   UNL     1     -42.155  59.054 -59.399  1.00  0.00     0.020 A 
ENDBRANCH  26  29
ENDBRANCH  24  25
ENDBRANCH   4  24
TORSDOF 6
ENDMDL
MODEL 10
REMARK VINA RESULT:      -8.6      3.305      7.785
REMARK  6 active torsions:
REMARK  status: ('A' for Active; 'I' for Inactive)
REMARK    1  A    between atoms: C_4  and  N_5 
REMARK    2  A    between atoms: N_8  and  C_10 
REMARK    3  A    between atoms: C_10  and  C_11 
REMARK    4  A    between atoms: C_14  and  C_15 
REMARK    5  A    between atoms: C_15  and  N_16 
REMARK       I    between atoms: N_16  and  C_17 
REMARK    6  A    between atoms: C_17  and  C_18 
ROOT
HETATM    1  C   UNL     1     -43.317  57.228 -57.586  1.00  0.00     0.041 C 
HETATM    2  C   UNL     1     -42.205  58.227 -58.010  1.00  0.00    -0.004 C 
HETATM    3  C   UNL     1     -42.440  59.610 -57.358  1.00  0.00     0.040 C 
HETATM    4  C   UNL     1     -43.807  60.200 -57.781  1.00  0.00     0.206 C 
HETATM    5  N   UNL     1     -44.448  59.153 -58.684  1.00  0.00    -0.065 N 
HETATM    6  H   UNL     1     -45.400  59.516 -58.929  1.00  0.00     0.280 HD
HETATM    7  C   UNL     1     -44.679  57.813 -58.036  1.00  0.00     0.242 C 
HETATM    8  C   UNL     1     -42.286  58.419 -59.548  1.00  0.00     0.032 C 
HETATM    9  C   UNL     1     -43.646  58.995 -59.955  1.00  0.00     0.236 C 
ENDROOT
BRANCH   1  10
HETATM   10  C   UNL     1     -43.419  56.853 -56.091  1.00  0.00     0.241 C 
BRANCH  10  11
HETATM   11  N   UNL     1     -42.503  55.730 -55.658  1.00  0.00    -0.068 N 
HETATM   12  C   UNL     1     -41.196  56.206 -54.986  1.00  0.00     0.254 C 
HETATM   13  C   UNL     1     -40.346  55.005 -54.521  1.00  0.00     0.150 C 
HETATM   14  N   UNL     1     -41.122  54.180 -53.578  1.00  0.00    -0.378 N 
HETATM   15  C   UNL     1     -42.362  53.643 -54.160  1.00  0.00     0.150 C 
HETATM   16  C   UNL     1     -43.265  54.780 -54.681  1.00  0.00     0.254 C 
HETATM   17  H   UNL     1     -42.238  55.139 -56.457  1.00  0.00     0.280 HD
BRANCH  14  18
HETATM   18  C   UNL     1     -41.068  54.546 -52.228  1.00  0.00     0.030 A 
HETATM   19  C   UNL     1     -41.680  55.700 -51.710  1.00  0.00     0.029 A 
HETATM   20  C   UNL     1     -41.584  56.043 -50.355  1.00  0.00     0.002 A 
HETATM   21  C   UNL     1     -40.892  55.224 -49.471  1.00  0.00     0.000 A 
HETATM   22  C   UNL     1     -40.315  54.054 -49.941  1.00  0.00     0.002 A 
HETATM   23  C   UNL     1     -40.410  53.721 -51.297  1.00  0.00     0.029 A 
ENDBRANCH  14  18
ENDBRANCH  10  11
ENDBRANCH   1  10
BRANCH   4  24
HETATM   24  C   UNL     1     -44.672  60.591 -56.550  1.00  0.00     0.156 C 
BRANCH  24  25
HETATM   25  N   UNL     1     -44.023  60.707 -55.250  1.00  0.00    -0.355 N 
HETATM   26  C   UNL     1     -44.281  59.860 -54.190  1.00  0.00     0.251 C 
HETATM   27  O   UNL     1     -45.318  59.203 -54.135  1.00  0.00    -0.268 OA
HETATM   28  H   UNL     1     -43.091  61.109 -55.279  1.00  0.00     0.162 HD
BRANCH  26  29
HETATM   29  C   UNL     1     -43.221  59.690 -53.158  1.00  0.00     0.034 A 
HETATM   30  C   UNL     1     -41.922  59.421 -53.618  1.00  0.00     0.056 A 
HETATM   31  C   UNL     1     -40.908  59.348 -52.687  1.00  0.00     0.106 A 
HETATM   32  C   UNL     1     -41.143  59.519 -51.346  1.00  0.00     0.105 A 
HETATM   33  O   UNL     1     -39.596  59.127 -52.963  1.00  0.00    -0.323 OA
HETATM   34  O   UNL     1     -40.007  59.427 -50.607  1.00  0.00    -0.323 OA
HETATM   35  C   UNL     1     -42.409  59.757 -50.856  1.00  0.00     0.041 A 
HETATM   36  C   UNL     1     -39.027  59.165 -51.635  1.00  0.00     0.352 A 
HETATM   37  C   UNL     1     -43.464  59.838 -51.774  1.00  0.00     0.020 A 
ENDBRANCH  26  29
ENDBRANCH  24  25
ENDBRANCH   4  24
TORSDOF 6
ENDMDL
