MODEL 1
REMARK VINA RESULT:      -7.4      0.000      0.000
REMARK  7 active torsions:
REMARK  status: ('A' for Active; 'I' for Inactive)
REMARK    1  A    between atoms: C_3  and  C_4 
REMARK    2  A    between atoms: N_5  and  C_7 
REMARK    3  A    between atoms: N_10  and  C_11 
REMARK    4  A    between atoms: C_14  and  C_15 
REMARK       I    between atoms: C_15  and  N_16 
REMARK    5  A    between atoms: N_16  and  C_17 
REMARK    6  A    between atoms: C_17  and  C_18 
REMARK    7  A    between atoms: C_18  and  N_19 
ROOT
HETATM    1  C   UNL     1     -43.553  58.528 -60.117  1.00  0.00     0.191 C 
HETATM    2  C   UNL     1     -43.338  59.209 -58.764  1.00  0.00     0.048 C 
HETATM    3  C   UNL     1     -43.860  58.424 -57.583  1.00  0.00     0.098 C 
HETATM    4  N   UNL     1     -43.321  57.059 -57.636  1.00  0.00    -0.283 NA
HETATM    5  C   UNL     1     -43.742  56.291 -58.804  1.00  0.00     0.098 C 
HETATM    6  C   UNL     1     -43.289  57.008 -60.084  1.00  0.00     0.048 C 
ENDROOT
BRANCH   4   7
HETATM    7  C   UNL     1     -43.415  56.459 -56.365  1.00  0.00     0.010 A 
HETATM    8  C   UNL     1     -44.007  57.068 -55.249  1.00  0.00     0.024 A 
HETATM    9  C   UNL     1     -43.867  56.514 -53.966  1.00  0.00     0.019 A 
HETATM   10  C   UNL     1     -43.141  55.330 -53.797  1.00  0.00     0.032 A 
HETATM   11  C   UNL     1     -42.623  54.666 -54.905  1.00  0.00     0.019 A 
HETATM   12  C   UNL     1     -42.778  55.219 -56.175  1.00  0.00     0.024 A 
BRANCH  10  13
HETATM   13  C   UNL     1     -42.745  54.851 -52.456  1.00  0.00     0.251 C 
HETATM   14  N   UNL     1     -41.433  54.501 -52.260  1.00  0.00    -0.355 N 
HETATM   15  H   UNL     1     -40.800  54.605 -53.050  1.00  0.00     0.162 HD
HETATM   16  O   UNL     1     -43.597  54.767 -51.576  1.00  0.00    -0.268 OA
BRANCH  14  17
HETATM   17  C   UNL     1     -40.932  53.741 -51.114  1.00  0.00     0.150 C 
BRANCH  17  18
HETATM   18  C   UNL     1     -39.651  52.891 -51.310  1.00  0.00     0.254 C 
BRANCH  18  19
HETATM   19  N   UNL     1     -39.891  51.595 -52.045  1.00  0.00    -0.066 N 
HETATM   20  H   UNL     1     -40.927  51.485 -52.068  1.00  0.00     0.280 HD
HETATM   21  C   UNL     1     -39.435  51.561 -53.491  1.00  0.00     0.261 C 
HETATM   22  C   UNL     1     -39.852  50.228 -54.127  1.00  0.00     0.195 C 
HETATM   23  O   UNL     1     -39.313  49.121 -53.398  1.00  0.00    -0.388 OA
HETATM   24  C   UNL     1     -39.786  49.103 -52.045  1.00  0.00     0.195 C 
HETATM   25  C   UNL     1     -39.370  50.377 -51.300  1.00  0.00     0.261 C 
ENDBRANCH  18  19
ENDBRANCH  17  18
ENDBRANCH  14  17
ENDBRANCH  10  13
ENDBRANCH   4   7
BRANCH   1  26
HETATM   26  N   UNL     1     -44.893  58.886 -60.828  1.00  0.00    -0.056 N 
HETATM   27  C   UNL     1     -45.063  60.401 -61.117  1.00  0.00     0.257 C 
HETATM   28  C   UNL     1     -46.310  60.639 -61.976  1.00  0.00     0.041 C 
HETATM   29  C   UNL     1     -47.557  60.053 -61.329  1.00  0.00     0.004 C 
HETATM   30  C   UNL     1     -47.360  58.569 -61.072  1.00  0.00     0.028 C 
HETATM   31  C   UNL     1     -46.139  58.307 -60.202  1.00  0.00     0.236 C 
HETATM   32  H   UNL     1     -44.807  58.452 -61.754  1.00  0.00     0.281 HD
BRANCH  27  33
HETATM   33  C   UNL     1     -43.831  61.097 -61.642  1.00  0.00     0.136 A 
HETATM   34  N   UNL     1     -43.083  62.088 -61.040  1.00  0.00    -0.346 N 
HETATM   35  C   UNL     1     -43.288  62.740 -59.770  1.00  0.00     0.157 C 
HETATM   36  C   UNL     1     -42.050  62.398 -61.884  1.00  0.00     0.111 A 
HETATM   37  C   UNL     1     -42.216  61.600 -62.985  1.00  0.00     0.136 A 
HETATM   38  N   UNL     1     -43.330  60.824 -62.836  1.00  0.00    -0.244 NA
ENDBRANCH  27  33
ENDBRANCH   1  26
TORSDOF 7
ENDMDL
MODEL 2
REMARK VINA RESULT:      -7.2      6.561      9.394
REMARK  7 active torsions:
REMARK  status: ('A' for Active; 'I' for Inactive)
REMARK    1  A    between atoms: C_3  and  C_4 
REMARK    2  A    between atoms: N_5  and  C_7 
REMARK    3  A    between atoms: N_10  and  C_11 
REMARK    4  A    between atoms: C_14  and  C_15 
REMARK       I    between atoms: C_15  and  N_16 
REMARK    5  A    between atoms: N_16  and  C_17 
REMARK    6  A    between atoms: C_17  and  C_18 
REMARK    7  A    between atoms: C_18  and  N_19 
ROOT
HETATM    1  C   UNL     1     -44.954  61.806 -49.458  1.00  0.00     0.191 C 
HETATM    2  C   UNL     1     -45.396  60.343 -49.497  1.00  0.00     0.048 C 
HETATM    3  C   UNL     1     -45.342  59.712 -50.870  1.00  0.00     0.098 C 
HETATM    4  N   UNL     1     -44.009  59.930 -51.446  1.00  0.00    -0.283 NA
HETATM    5  C   UNL     1     -43.671  61.332 -51.671  1.00  0.00     0.098 C 
HETATM    6  C   UNL     1     -43.720  62.094 -50.339  1.00  0.00     0.048 C 
ENDROOT
BRANCH   4   7
HETATM    7  C   UNL     1     -43.782  59.007 -52.487  1.00  0.00     0.010 A 
HETATM    8  C   UNL     1     -44.775  58.185 -53.040  1.00  0.00     0.024 A 
HETATM    9  C   UNL     1     -44.440  57.136 -53.911  1.00  0.00     0.019 A 
HETATM   10  C   UNL     1     -43.100  56.912 -54.245  1.00  0.00     0.032 A 
HETATM   11  C   UNL     1     -42.111  57.773 -53.775  1.00  0.00     0.019 A 
HETATM   12  C   UNL     1     -42.457  58.818 -52.921  1.00  0.00     0.024 A 
BRANCH  10  13
HETATM   13  C   UNL     1     -42.671  55.679 -54.936  1.00  0.00     0.251 C 
HETATM   14  N   UNL     1     -42.505  54.544 -54.183  1.00  0.00    -0.355 N 
HETATM   15  H   UNL     1     -42.701  54.613 -53.187  1.00  0.00     0.162 HD
HETATM   16  O   UNL     1     -42.464  55.713 -56.146  1.00  0.00    -0.268 OA
BRANCH  14  17
HETATM   17  C   UNL     1     -41.814  53.334 -54.632  1.00  0.00     0.150 C 
BRANCH  17  18
HETATM   18  C   UNL     1     -40.271  53.288 -54.500  1.00  0.00     0.254 C 
BRANCH  18  19
HETATM   19  N   UNL     1     -39.763  52.077 -53.755  1.00  0.00    -0.066 N 
HETATM   20  H   UNL     1     -38.727  52.104 -53.870  1.00  0.00     0.280 HD
HETATM   21  C   UNL     1     -40.017  52.067 -52.260  1.00  0.00     0.261 C 
HETATM   22  C   UNL     1     -39.343  50.837 -51.636  1.00  0.00     0.195 C 
HETATM   23  O   UNL     1     -39.817  49.630 -52.241  1.00  0.00    -0.388 OA
HETATM   24  C   UNL     1     -39.527  49.597 -53.644  1.00  0.00     0.195 C 
HETATM   25  C   UNL     1     -40.205  50.762 -54.374  1.00  0.00     0.261 C 
ENDBRANCH  18  19
ENDBRANCH  17  18
ENDBRANCH  14  17
ENDBRANCH  10  13
ENDBRANCH   4   7
BRANCH   1  26
HETATM   26  N   UNL     1     -46.096  62.845 -49.674  1.00  0.00    -0.056 N 
HETATM   27  C   UNL     1     -46.962  63.093 -48.410  1.00  0.00     0.257 C 
HETATM   28  C   UNL     1     -47.934  64.254 -48.655  1.00  0.00     0.041 C 
HETATM   29  C   UNL     1     -48.799  64.011 -49.883  1.00  0.00     0.004 C 
HETATM   30  C   UNL     1     -47.920  63.783 -51.101  1.00  0.00     0.028 C 
HETATM   31  C   UNL     1     -46.960  62.621 -50.892  1.00  0.00     0.236 C 
HETATM   32  H   UNL     1     -45.601  63.730 -49.829  1.00  0.00     0.281 HD
BRANCH  27  33
HETATM   33  C   UNL     1     -46.191  63.218 -47.118  1.00  0.00     0.136 A 
HETATM   34  N   UNL     1     -46.025  62.277 -46.124  1.00  0.00    -0.346 N 
HETATM   35  C   UNL     1     -46.559  60.939 -46.038  1.00  0.00     0.157 C 
HETATM   36  C   UNL     1     -45.236  62.833 -45.153  1.00  0.00     0.111 A 
HETATM   37  C   UNL     1     -44.965  64.107 -45.578  1.00  0.00     0.136 A 
HETATM   38  N   UNL     1     -45.581  64.341 -46.775  1.00  0.00    -0.244 NA
ENDBRANCH  27  33
ENDBRANCH   1  26
TORSDOF 7
ENDMDL
MODEL 3
REMARK VINA RESULT:      -7.1      3.311     11.393
REMARK  7 active torsions:
REMARK  status: ('A' for Active; 'I' for Inactive)
REMARK    1  A    between atoms: C_3  and  C_4 
REMARK    2  A    between atoms: N_5  and  C_7 
REMARK    3  A    between atoms: N_10  and  C_11 
REMARK    4  A    between atoms: C_14  and  C_15 
REMARK       I    between atoms: C_15  and  N_16 
REMARK    5  A    between atoms: N_16  and  C_17 
REMARK    6  A    between atoms: C_17  and  C_18 
REMARK    7  A    between atoms: C_18  and  N_19 
ROOT
HETATM    1  C   UNL     1     -41.462  54.380 -53.103  1.00  0.00     0.191 C 
HETATM    2  C   UNL     1     -40.747  55.337 -54.059  1.00  0.00     0.048 C 
HETATM    3  C   UNL     1     -41.382  55.443 -55.426  1.00  0.00     0.098 C 
HETATM    4  N   UNL     1     -42.812  55.741 -55.269  1.00  0.00    -0.283 NA
HETATM    5  C   UNL     1     -43.574  54.700 -54.587  1.00  0.00     0.098 C 
HETATM    6  C   UNL     1     -43.000  54.477 -53.181  1.00  0.00     0.048 C 
ENDROOT
BRANCH   4   7
HETATM    7  C   UNL     1     -43.323  56.274 -56.470  1.00  0.00     0.010 A 
HETATM    8  C   UNL     1     -43.053  55.748 -57.741  1.00  0.00     0.024 A 
HETATM    9  C   UNL     1     -43.405  56.454 -58.903  1.00  0.00     0.019 A 
HETATM   10  C   UNL     1     -44.047  57.692 -58.795  1.00  0.00     0.032 A 
HETATM   11  C   UNL     1     -44.401  58.187 -57.543  1.00  0.00     0.019 A 
HETATM   12  C   UNL     1     -44.057  57.472 -56.398  1.00  0.00     0.024 A 
BRANCH  10  13
HETATM   13  C   UNL     1     -44.202  58.586 -59.961  1.00  0.00     0.251 C 
HETATM   14  N   UNL     1     -43.073  59.173 -60.475  1.00  0.00    -0.355 N 
HETATM   15  H   UNL     1     -42.186  58.947 -60.031  1.00  0.00     0.162 HD
HETATM   16  O   UNL     1     -45.325  58.786 -60.417  1.00  0.00    -0.268 OA
BRANCH  14  17
HETATM   17  C   UNL     1     -43.067  60.294 -61.417  1.00  0.00     0.150 C 
BRANCH  17  18
HETATM   18  C   UNL     1     -43.316  61.716 -60.854  1.00  0.00     0.254 C 
BRANCH  18  19
HETATM   19  N   UNL     1     -42.062  62.409 -60.381  1.00  0.00    -0.066 N 
HETATM   20  H   UNL     1     -42.306  63.422 -60.353  1.00  0.00     0.280 HD
HETATM   21  C   UNL     1     -41.598  62.053 -58.981  1.00  0.00     0.261 C 
HETATM   22  C   UNL     1     -40.389  62.921 -58.608  1.00  0.00     0.195 C 
HETATM   23  O   UNL     1     -39.327  62.755 -59.553  1.00  0.00    -0.388 OA
HETATM   24  C   UNL     1     -39.731  63.148 -60.870  1.00  0.00     0.195 C 
HETATM   25  C   UNL     1     -40.908  62.297 -61.363  1.00  0.00     0.261 C 
ENDBRANCH  18  19
ENDBRANCH  17  18
ENDBRANCH  14  17
ENDBRANCH  10  13
ENDBRANCH   4   7
BRANCH   1  26
HETATM   26  N   UNL     1     -40.954  52.906 -53.146  1.00  0.00    -0.056 N 
HETATM   27  C   UNL     1     -39.857  52.593 -52.094  1.00  0.00     0.257 C 
HETATM   28  C   UNL     1     -39.552  51.090 -52.080  1.00  0.00     0.041 C 
HETATM   29  C   UNL     1     -39.159  50.586 -53.462  1.00  0.00     0.004 C 
HETATM   30  C   UNL     1     -40.259  50.900 -54.462  1.00  0.00     0.028 C 
HETATM   31  C   UNL     1     -40.566  52.389 -54.510  1.00  0.00     0.236 C 
HETATM   32  H   UNL     1     -41.766  52.355 -52.848  1.00  0.00     0.281 HD
BRANCH  27  33
HETATM   33  C   UNL     1     -40.102  53.168 -50.720  1.00  0.00     0.136 A 
HETATM   34  N   UNL     1     -40.448  52.504 -49.561  1.00  0.00    -0.346 N 
HETATM   35  C   UNL     1     -40.692  51.097 -49.356  1.00  0.00     0.157 C 
HETATM   36  C   UNL     1     -40.546  53.435 -48.562  1.00  0.00     0.111 A 
HETATM   37  C   UNL     1     -40.278  54.642 -49.152  1.00  0.00     0.136 A 
HETATM   38  N   UNL     1     -40.033  54.468 -50.484  1.00  0.00    -0.244 NA
ENDBRANCH  27  33
ENDBRANCH   1  26
TORSDOF 7
ENDMDL
MODEL 4
REMARK VINA RESULT:      -7.1      1.718      2.192
REMARK  7 active torsions:
REMARK  status: ('A' for Active; 'I' for Inactive)
REMARK    1  A    between atoms: C_3  and  C_4 
REMARK    2  A    between atoms: N_5  and  C_7 
REMARK    3  A    between atoms: N_10  and  C_11 
REMARK    4  A    between atoms: C_14  and  C_15 
REMARK       I    between atoms: C_15  and  N_16 
REMARK    5  A    between atoms: N_16  and  C_17 
REMARK    6  A    between atoms: C_17  and  C_18 
REMARK    7  A    between atoms: C_18  and  N_19 
ROOT
HETATM    1  C   UNL     1     -42.329  60.021 -60.193  1.00  0.00     0.191 C 
HETATM    2  C   UNL     1     -41.606  60.153 -58.852  1.00  0.00     0.048 C 
HETATM    3  C   UNL     1     -42.240  59.374 -57.723  1.00  0.00     0.098 C 
HETATM    4  N   UNL     1     -42.425  57.980 -58.147  1.00  0.00    -0.283 NA
HETATM    5  C   UNL     1     -43.338  57.808 -59.273  1.00  0.00     0.098 C 
HETATM    6  C   UNL     1     -42.811  58.586 -60.487  1.00  0.00     0.048 C 
ENDROOT
BRANCH   4   7
HETATM    7  C   UNL     1     -42.586  57.154 -57.016  1.00  0.00     0.010 A 
HETATM    8  C   UNL     1     -42.370  57.577 -55.697  1.00  0.00     0.024 A 
HETATM    9  C   UNL     1     -42.329  56.652 -54.641  1.00  0.00     0.019 A 
HETATM   10  C   UNL     1     -42.520  55.292 -54.902  1.00  0.00     0.032 A 
HETATM   11  C   UNL     1     -42.824  54.865 -56.193  1.00  0.00     0.019 A 
HETATM   12  C   UNL     1     -42.874  55.794 -57.230  1.00  0.00     0.024 A 
BRANCH  10  13
HETATM   13  C   UNL     1     -42.230  54.260 -53.884  1.00  0.00     0.251 C 
HETATM   14  N   UNL     1     -41.847  54.680 -52.636  1.00  0.00    -0.355 N 
HETATM   15  H   UNL     1     -41.796  55.684 -52.476  1.00  0.00     0.162 HD
HETATM   16  O   UNL     1     -42.326  53.075 -54.190  1.00  0.00    -0.268 OA
BRANCH  14  17
HETATM   17  C   UNL     1     -41.245  53.823 -51.613  1.00  0.00     0.150 C 
BRANCH  17  18
HETATM   18  C   UNL     1     -39.880  53.160 -51.932  1.00  0.00     0.254 C 
BRANCH  18  19
HETATM   19  N   UNL     1     -39.999  51.746 -52.445  1.00  0.00    -0.066 N 
HETATM   20  H   UNL     1     -41.023  51.558 -52.484  1.00  0.00     0.280 HD
HETATM   21  C   UNL     1     -39.476  51.507 -53.848  1.00  0.00     0.261 C 
HETATM   22  C   UNL     1     -39.774  50.060 -54.264  1.00  0.00     0.195 C 
HETATM   23  O   UNL     1     -39.196  49.131 -53.341  1.00  0.00    -0.388 OA
HETATM   24  C   UNL     1     -39.727  49.304 -52.021  1.00  0.00     0.195 C 
HETATM   25  C   UNL     1     -39.433  50.711 -51.488  1.00  0.00     0.261 C 
ENDBRANCH  18  19
ENDBRANCH  17  18
ENDBRANCH  14  17
ENDBRANCH  10  13
ENDBRANCH   4   7
BRANCH   1  26
HETATM   26  N   UNL     1     -43.436  61.088 -60.452  1.00  0.00    -0.056 N 
HETATM   27  C   UNL     1     -42.912  62.549 -60.437  1.00  0.00     0.257 C 
HETATM   28  C   UNL     1     -44.020  63.512 -60.881  1.00  0.00     0.041 C 
HETATM   29  C   UNL     1     -45.270  63.360 -60.025  1.00  0.00     0.004 C 
HETATM   30  C   UNL     1     -45.760  61.923 -60.072  1.00  0.00     0.028 C 
HETATM   31  C   UNL     1     -44.685  60.948 -59.615  1.00  0.00     0.236 C 
HETATM   32  H   UNL     1     -43.719  60.922 -61.424  1.00  0.00     0.281 HD
BRANCH  27  33
HETATM   33  C   UNL     1     -41.603  62.769 -61.155  1.00  0.00     0.136 A 
HETATM   34  N   UNL     1     -40.382  63.126 -60.622  1.00  0.00    -0.346 N 
HETATM   35  C   UNL     1     -40.034  63.408 -59.251  1.00  0.00     0.157 C 
HETATM   36  C   UNL     1     -39.483  63.193 -61.653  1.00  0.00     0.111 A 
HETATM   37  C   UNL     1     -40.193  62.896 -62.786  1.00  0.00     0.136 A 
HETATM   38  N   UNL     1     -41.501  62.664 -62.470  1.00  0.00    -0.244 NA
ENDBRANCH  27  33
ENDBRANCH   1  26
TORSDOF 7
ENDMDL
MODEL 5
REMARK VINA RESULT:      -7.0      2.091      3.083
REMARK  7 active torsions:
REMARK  status: ('A' for Active; 'I' for Inactive)
REMARK    1  A    between atoms: C_3  and  C_4 
REMARK    2  A    between atoms: N_5  and  C_7 
REMARK    3  A    between atoms: N_10  and  C_11 
REMARK    4  A    between atoms: C_14  and  C_15 
REMARK       I    between atoms: C_15  and  N_16 
REMARK    5  A    between atoms: N_16  and  C_17 
REMARK    6  A    between atoms: C_17  and  C_18 
REMARK    7  A    between atoms: C_18  and  N_19 
ROOT
HETATM    1  C   UNL     1     -46.190  59.397 -60.224  1.00  0.00     0.191 C 
HETATM    2  C   UNL     1     -46.543  59.119 -58.761  1.00  0.00     0.048 C 
HETATM    3  C   UNL     1     -45.856  57.907 -58.174  1.00  0.00     0.098 C 
HETATM    4  N   UNL     1     -44.411  58.012 -58.411  1.00  0.00    -0.283 NA
HETATM    5  C   UNL     1     -44.029  58.007 -59.821  1.00  0.00     0.098 C 
HETATM    6  C   UNL     1     -44.694  59.189 -60.540  1.00  0.00     0.048 C 
ENDROOT
BRANCH   4   7
HETATM    7  C   UNL     1     -43.718  57.167 -57.522  1.00  0.00     0.010 A 
HETATM    8  C   UNL     1     -43.202  55.911 -57.872  1.00  0.00     0.024 A 
HETATM    9  C   UNL     1     -42.724  55.028 -56.889  1.00  0.00     0.019 A 
HETATM   10  C   UNL     1     -42.749  55.409 -55.544  1.00  0.00     0.032 A 
HETATM   11  C   UNL     1     -43.176  56.686 -55.188  1.00  0.00     0.019 A 
HETATM   12  C   UNL     1     -43.636  57.557 -56.173  1.00  0.00     0.024 A 
BRANCH  10  13
HETATM   13  C   UNL     1     -42.508  54.434 -54.460  1.00  0.00     0.251 C 
HETATM   14  N   UNL     1     -42.126  54.918 -53.234  1.00  0.00    -0.355 N 
HETATM   15  H   UNL     1     -42.043  55.927 -53.136  1.00  0.00     0.162 HD
HETATM   16  O   UNL     1     -42.641  53.236 -54.693  1.00  0.00    -0.268 OA
BRANCH  14  17
HETATM   17  C   UNL     1     -41.567  54.106 -52.151  1.00  0.00     0.150 C 
BRANCH  17  18
HETATM   18  C   UNL     1     -40.180  53.452 -52.375  1.00  0.00     0.254 C 
BRANCH  18  19
HETATM   19  N   UNL     1     -40.249  51.981 -52.703  1.00  0.00    -0.066 N 
HETATM   20  H   UNL     1     -41.246  51.717 -52.554  1.00  0.00     0.280 HD
HETATM   21  C   UNL     1     -39.927  51.608 -54.137  1.00  0.00     0.261 C 
HETATM   22  C   UNL     1     -40.155  50.103 -54.337  1.00  0.00     0.195 C 
HETATM   23  O   UNL     1     -39.362  49.339 -53.422  1.00  0.00    -0.388 OA
HETATM   24  C   UNL     1     -39.699  49.634 -52.061  1.00  0.00     0.195 C 
HETATM   25  C   UNL     1     -39.453  51.114 -51.742  1.00  0.00     0.261 C 
ENDBRANCH  18  19
ENDBRANCH  17  18
ENDBRANCH  14  17
ENDBRANCH  10  13
ENDBRANCH   4   7
BRANCH   1  26
HETATM   26  N   UNL     1     -47.123  58.710 -61.267  1.00  0.00    -0.056 N 
HETATM   27  C   UNL     1     -48.432  59.494 -61.547  1.00  0.00     0.257 C 
HETATM   28  C   UNL     1     -49.196  58.850 -62.711  1.00  0.00     0.041 C 
HETATM   29  C   UNL     1     -49.473  57.376 -62.452  1.00  0.00     0.004 C 
HETATM   30  C   UNL     1     -48.170  56.639 -62.194  1.00  0.00     0.028 C 
HETATM   31  C   UNL     1     -47.403  57.246 -61.028  1.00  0.00     0.236 C 
HETATM   32  H   UNL     1     -46.595  58.763 -62.145  1.00  0.00     0.281 HD
BRANCH  27  33
HETATM   33  C   UNL     1     -48.269  60.988 -61.689  1.00  0.00     0.136 A 
HETATM   34  N   UNL     1     -47.525  61.685 -62.618  1.00  0.00    -0.346 N 
HETATM   35  C   UNL     1     -46.688  61.179 -63.679  1.00  0.00     0.157 C 
HETATM   36  C   UNL     1     -47.693  63.020 -62.368  1.00  0.00     0.111 A 
HETATM   37  C   UNL     1     -48.519  63.093 -61.277  1.00  0.00     0.136 A 
HETATM   38  N   UNL     1     -48.845  61.836 -60.853  1.00  0.00    -0.244 NA
ENDBRANCH  27  33
ENDBRANCH   1  26
TORSDOF 7
ENDMDL
MODEL 6
REMARK VINA RESULT:      -7.0      4.654     11.225
REMARK  7 active torsions:
REMARK  status: ('A' for Active; 'I' for Inactive)
REMARK    1  A    between atoms: C_3  and  C_4 
REMARK    2  A    between atoms: N_5  and  C_7 
REMARK    3  A    between atoms: N_10  and  C_11 
REMARK    4  A    between atoms: C_14  and  C_15 
REMARK       I    between atoms: C_15  and  N_16 
REMARK    5  A    between atoms: N_16  and  C_17 
REMARK    6  A    between atoms: C_17  and  C_18 
REMARK    7  A    between atoms: C_18  and  N_19 
ROOT
HETATM    1  C   UNL     1     -43.029  57.578 -56.114  1.00  0.00     0.191 C 
HETATM    2  C   UNL     1     -42.610  57.429 -57.578  1.00  0.00     0.048 C 
HETATM    3  C   UNL     1     -43.736  57.054 -58.513  1.00  0.00     0.098 C 
HETATM    4  N   UNL     1     -44.851  57.990 -58.323  1.00  0.00    -0.283 NA
HETATM    5  C   UNL     1     -45.449  57.952 -56.991  1.00  0.00     0.098 C 
HETATM    6  C   UNL     1     -44.385  58.293 -55.938  1.00  0.00     0.048 C 
ENDROOT
BRANCH   4   7
HETATM    7  C   UNL     1     -45.702  57.954 -59.445  1.00  0.00     0.010 A 
HETATM    8  C   UNL     1     -46.158  59.094 -60.123  1.00  0.00     0.024 A 
HETATM    9  C   UNL     1     -47.176  59.001 -61.087  1.00  0.00     0.019 A 
HETATM   10  C   UNL     1     -47.735  57.755 -61.387  1.00  0.00     0.032 A 
HETATM   11  C   UNL     1     -47.233  56.602 -60.788  1.00  0.00     0.019 A 
HETATM   12  C   UNL     1     -46.214  56.706 -59.843  1.00  0.00     0.024 A 
BRANCH  10  13
HETATM   13  C   UNL     1     -48.971  57.635 -62.189  1.00  0.00     0.251 C 
HETATM   14  N   UNL     1     -49.721  58.767 -62.386  1.00  0.00    -0.355 N 
HETATM   15  H   UNL     1     -49.374  59.632 -61.979  1.00  0.00     0.162 HD
HETATM   16  O   UNL     1     -49.291  56.536 -62.633  1.00  0.00    -0.268 OA
BRANCH  14  17
HETATM   17  C   UNL     1     -51.096  58.782 -62.887  1.00  0.00     0.150 C 
BRANCH  17  18
HETATM   18  C   UNL     1     -52.032  59.920 -62.405  1.00  0.00     0.254 C 
BRANCH  18  19
HETATM   19  N   UNL     1     -52.929  59.522 -61.260  1.00  0.00    -0.066 N 
HETATM   20  H   UNL     1     -53.860  59.932 -61.490  1.00  0.00     0.280 HD
HETATM   21  C   UNL     1     -53.160  58.033 -61.088  1.00  0.00     0.261 C 
HETATM   22  C   UNL     1     -54.179  57.800 -59.964  1.00  0.00     0.195 C 
HETATM   23  O   UNL     1     -53.735  58.390 -58.738  1.00  0.00    -0.388 OA
HETATM   24  C   UNL     1     -53.573  59.808 -58.867  1.00  0.00     0.195 C 
HETATM   25  C   UNL     1     -52.526  60.149 -59.935  1.00  0.00     0.261 C 
ENDBRANCH  18  19
ENDBRANCH  17  18
ENDBRANCH  14  17
ENDBRANCH  10  13
ENDBRANCH   4   7
BRANCH   1  26
HETATM   26  N   UNL     1     -42.927  56.274 -55.264  1.00  0.00    -0.056 N 
HETATM   27  C   UNL     1     -41.888  56.358 -54.115  1.00  0.00     0.257 C 
HETATM   28  C   UNL     1     -41.985  55.114 -53.223  1.00  0.00     0.041 C 
HETATM   29  C   UNL     1     -41.822  53.833 -54.030  1.00  0.00     0.004 C 
HETATM   30  C   UNL     1     -42.860  53.780 -55.137  1.00  0.00     0.028 C 
HETATM   31  C   UNL     1     -42.770  54.994 -56.050  1.00  0.00     0.236 C 
HETATM   32  H   UNL     1     -43.835  56.214 -54.792  1.00  0.00     0.281 HD
BRANCH  27  33
HETATM   33  C   UNL     1     -41.891  57.653 -53.339  1.00  0.00     0.136 A 
HETATM   34  N   UNL     1     -42.892  58.178 -52.549  1.00  0.00    -0.346 N 
HETATM   35  C   UNL     1     -44.205  57.649 -52.272  1.00  0.00     0.157 C 
HETATM   36  C   UNL     1     -42.438  59.363 -52.036  1.00  0.00     0.111 A 
HETATM   37  C   UNL     1     -41.179  59.533 -52.550  1.00  0.00     0.136 A 
HETATM   38  N   UNL     1     -40.865  58.488 -53.371  1.00  0.00    -0.244 NA
ENDBRANCH  27  33
ENDBRANCH   1  26
TORSDOF 7
ENDMDL
MODEL 7
REMARK VINA RESULT:      -6.9      1.901      3.153
REMARK  7 active torsions:
REMARK  status: ('A' for Active; 'I' for Inactive)
REMARK    1  A    between atoms: C_3  and  C_4 
REMARK    2  A    between atoms: N_5  and  C_7 
REMARK    3  A    between atoms: N_10  and  C_11 
REMARK    4  A    between atoms: C_14  and  C_15 
REMARK       I    between atoms: C_15  and  N_16 
REMARK    5  A    between atoms: N_16  and  C_17 
REMARK    6  A    between atoms: C_17  and  C_18 
REMARK    7  A    between atoms: C_18  and  N_19 
ROOT
HETATM    1  C   UNL     1     -43.372  60.640 -59.456  1.00  0.00     0.191 C 
HETATM    2  C   UNL     1     -42.895  59.189 -59.378  1.00  0.00     0.048 C 
HETATM    3  C   UNL     1     -42.708  58.669 -57.972  1.00  0.00     0.098 C 
HETATM    4  N   UNL     1     -43.932  58.919 -57.200  1.00  0.00    -0.283 NA
HETATM    5  C   UNL     1     -44.260  60.332 -57.031  1.00  0.00     0.098 C 
HETATM    6  C   UNL     1     -44.450  60.985 -58.408  1.00  0.00     0.048 C 
ENDROOT
BRANCH   4   7
HETATM    7  C   UNL     1     -43.963  58.080 -56.068  1.00  0.00     0.010 A 
HETATM    8  C   UNL     1     -44.445  58.473 -54.811  1.00  0.00     0.024 A 
HETATM    9  C   UNL     1     -44.241  57.669 -53.677  1.00  0.00     0.019 A 
HETATM   10  C   UNL     1     -43.561  56.453 -53.802  1.00  0.00     0.032 A 
HETATM   11  C   UNL     1     -43.154  56.007 -55.057  1.00  0.00     0.019 A 
HETATM   12  C   UNL     1     -43.373  56.808 -56.176  1.00  0.00     0.024 A 
BRANCH  10  13
HETATM   13  C   UNL     1     -43.094  55.704 -52.617  1.00  0.00     0.251 C 
HETATM   14  N   UNL     1     -41.979  54.917 -52.753  1.00  0.00    -0.355 N 
HETATM   15  H   UNL     1     -41.525  54.905 -53.664  1.00  0.00     0.162 HD
HETATM   16  O   UNL     1     -43.722  55.796 -51.566  1.00  0.00    -0.268 OA
BRANCH  14  17
HETATM   17  C   UNL     1     -41.553  53.894 -51.796  1.00  0.00     0.150 C 
BRANCH  17  18
HETATM   18  C   UNL     1     -40.165  53.238 -52.003  1.00  0.00     0.254 C 
BRANCH  18  19
HETATM   19  N   UNL     1     -40.235  51.819 -52.510  1.00  0.00    -0.066 N 
HETATM   20  H   UNL     1     -41.228  51.533 -52.376  1.00  0.00     0.280 HD
HETATM   21  C   UNL     1     -39.941  51.629 -53.985  1.00  0.00     0.261 C 
HETATM   22  C   UNL     1     -40.167  50.160 -54.366  1.00  0.00     0.195 C 
HETATM   23  O   UNL     1     -39.353  49.292 -53.570  1.00  0.00    -0.388 OA
HETATM   24  C   UNL     1     -39.664  49.414 -52.176  1.00  0.00     0.195 C 
HETATM   25  C   UNL     1     -39.417  50.844 -51.680  1.00  0.00     0.261 C 
ENDBRANCH  18  19
ENDBRANCH  17  18
ENDBRANCH  14  17
ENDBRANCH  10  13
ENDBRANCH   4   7
BRANCH   1  26
HETATM   26  N   UNL     1     -42.233  61.704 -59.515  1.00  0.00    -0.056 N 
HETATM   27  C   UNL     1     -41.602  61.868 -60.923  1.00  0.00     0.257 C 
HETATM   28  C   UNL     1     -40.630  63.054 -60.932  1.00  0.00     0.041 C 
HETATM   29  C   UNL     1     -39.563  62.911 -59.856  1.00  0.00     0.004 C 
HETATM   30  C   UNL     1     -40.215  62.764 -58.492  1.00  0.00     0.028 C 
HETATM   31  C   UNL     1     -41.169  61.580 -58.451  1.00  0.00     0.236 C 
HETATM   32  H   UNL     1     -42.715  62.593 -59.339  1.00  0.00     0.281 HD
BRANCH  27  33
HETATM   33  C   UNL     1     -42.585  61.889 -62.068  1.00  0.00     0.136 A 
HETATM   34  N   UNL     1     -43.675  62.713 -62.248  1.00  0.00    -0.346 N 
HETATM   35  C   UNL     1     -44.183  63.753 -61.387  1.00  0.00     0.157 C 
HETATM   36  C   UNL     1     -44.259  62.376 -63.440  1.00  0.00     0.111 A 
HETATM   37  C   UNL     1     -43.516  61.338 -63.938  1.00  0.00     0.136 A 
HETATM   38  N   UNL     1     -42.505  61.030 -63.072  1.00  0.00    -0.244 NA
ENDBRANCH  27  33
ENDBRANCH   1  26
TORSDOF 7
ENDMDL
MODEL 8
REMARK VINA RESULT:      -6.9      6.228     10.304
REMARK  7 active torsions:
REMARK  status: ('A' for Active; 'I' for Inactive)
REMARK    1  A    between atoms: C_3  and  C_4 
REMARK    2  A    between atoms: N_5  and  C_7 
REMARK    3  A    between atoms: N_10  and  C_11 
REMARK    4  A    between atoms: C_14  and  C_15 
REMARK       I    between atoms: C_15  and  N_16 
REMARK    5  A    between atoms: N_16  and  C_17 
REMARK    6  A    between atoms: C_17  and  C_18 
REMARK    7  A    between atoms: C_18  and  N_19 
ROOT
HETATM    1  C   UNL     1     -44.698  61.076 -49.848  1.00  0.00     0.191 C 
HETATM    2  C   UNL     1     -45.516  59.821 -50.157  1.00  0.00     0.048 C 
HETATM    3  C   UNL     1     -45.143  59.139 -51.453  1.00  0.00     0.098 C 
HETATM    4  N   UNL     1     -43.693  58.905 -51.474  1.00  0.00    -0.283 NA
HETATM    5  C   UNL     1     -42.887  60.122 -51.452  1.00  0.00     0.098 C 
HETATM    6  C   UNL     1     -43.199  60.925 -50.182  1.00  0.00     0.048 C 
ENDROOT
BRANCH   4   7
HETATM    7  C   UNL     1     -43.384  57.908 -52.420  1.00  0.00     0.010 A 
HETATM    8  C   UNL     1     -42.082  57.465 -52.698  1.00  0.00     0.024 A 
HETATM    9  C   UNL     1     -41.823  56.637 -53.803  1.00  0.00     0.019 A 
HETATM   10  C   UNL     1     -42.876  56.235 -54.631  1.00  0.00     0.032 A 
HETATM   11  C   UNL     1     -44.185  56.593 -54.318  1.00  0.00     0.019 A 
HETATM   12  C   UNL     1     -44.431  57.405 -53.213  1.00  0.00     0.024 A 
BRANCH  10  13
HETATM   13  C   UNL     1     -42.629  55.590 -55.938  1.00  0.00     0.251 C 
HETATM   14  N   UNL     1     -43.303  56.076 -57.030  1.00  0.00    -0.355 N 
HETATM   15  H   UNL     1     -43.927  56.865 -56.881  1.00  0.00     0.162 HD
HETATM   16  O   UNL     1     -41.851  54.643 -55.999  1.00  0.00    -0.268 OA
BRANCH  14  17
HETATM   17  C   UNL     1     -43.410  55.390 -58.319  1.00  0.00     0.150 C 
BRANCH  17  18
HETATM   18  C   UNL     1     -43.242  56.235 -59.608  1.00  0.00     0.254 C 
BRANCH  18  19
HETATM   19  N   UNL     1     -44.548  56.718 -60.189  1.00  0.00    -0.066 N 
HETATM   20  H   UNL     1     -44.347  56.895 -61.197  1.00  0.00     0.280 HD
HETATM   21  C   UNL     1     -45.693  55.724 -60.160  1.00  0.00     0.261 C 
HETATM   22  C   UNL     1     -46.905  56.320 -60.888  1.00  0.00     0.195 C 
HETATM   23  O   UNL     1     -47.298  57.564 -60.299  1.00  0.00    -0.388 OA
HETATM   24  C   UNL     1     -46.247  58.535 -60.376  1.00  0.00     0.195 C 
HETATM   25  C   UNL     1     -44.998  58.056 -59.626  1.00  0.00     0.261 C 
ENDBRANCH  18  19
ENDBRANCH  17  18
ENDBRANCH  14  17
ENDBRANCH  10  13
ENDBRANCH   4   7
BRANCH   1  26
HETATM   26  N   UNL     1     -45.301  62.406 -50.396  1.00  0.00    -0.056 N 
HETATM   27  C   UNL     1     -46.566  62.880 -49.633  1.00  0.00     0.257 C 
HETATM   28  C   UNL     1     -46.980  64.277 -50.112  1.00  0.00     0.041 C 
HETATM   29  C   UNL     1     -47.192  64.312 -51.619  1.00  0.00     0.004 C 
HETATM   30  C   UNL     1     -45.932  63.853 -52.332  1.00  0.00     0.028 C 
HETATM   31  C   UNL     1     -45.512  62.459 -51.890  1.00  0.00     0.236 C 
HETATM   32  H   UNL     1     -44.586  63.110 -50.180  1.00  0.00     0.281 HD
BRANCH  27  33
HETATM   33  C   UNL     1     -46.493  62.758 -48.130  1.00  0.00     0.136 A 
HETATM   34  N   UNL     1     -45.633  63.393 -47.259  1.00  0.00    -0.346 N 
HETATM   35  C   UNL     1     -44.563  64.317 -47.546  1.00  0.00     0.157 C 
HETATM   36  C   UNL     1     -45.951  62.985 -45.991  1.00  0.00     0.111 A 
HETATM   37  C   UNL     1     -46.983  62.095 -46.134  1.00  0.00     0.136 A 
HETATM   38  N   UNL     1     -47.289  61.944 -47.457  1.00  0.00    -0.244 NA
ENDBRANCH  27  33
ENDBRANCH   1  26
TORSDOF 7
ENDMDL
MODEL 9
REMARK VINA RESULT:      -6.9      3.485     11.924
REMARK  7 active torsions:
REMARK  status: ('A' for Active; 'I' for Inactive)
REMARK    1  A    between atoms: C_3  and  C_4 
REMARK    2  A    between atoms: N_5  and  C_7 
REMARK    3  A    between atoms: N_10  and  C_11 
REMARK    4  A    between atoms: C_14  and  C_15 
REMARK       I    between atoms: C_15  and  N_16 
REMARK    5  A    between atoms: N_16  and  C_17 
REMARK    6  A    between atoms: C_17  and  C_18 
REMARK    7  A    between atoms: C_18  and  N_19 
ROOT
HETATM    1  C   UNL     1     -41.747  54.489 -52.711  1.00  0.00     0.191 C 
HETATM    2  C   UNL     1     -41.027  55.633 -53.427  1.00  0.00     0.048 C 
HETATM    3  C   UNL     1     -41.544  55.921 -54.817  1.00  0.00     0.098 C 
HETATM    4  N   UNL     1     -43.001  56.098 -54.761  1.00  0.00    -0.283 NA
HETATM    5  C   UNL     1     -43.737  54.912 -54.332  1.00  0.00     0.098 C 
HETATM    6  C   UNL     1     -43.275  54.499 -52.927  1.00  0.00     0.048 C 
ENDROOT
BRANCH   4   7
HETATM    7  C   UNL     1     -43.443  56.787 -55.908  1.00  0.00     0.010 A 
HETATM    8  C   UNL     1     -44.473  57.739 -55.905  1.00  0.00     0.024 A 
HETATM    9  C   UNL     1     -45.014  58.220 -57.109  1.00  0.00     0.019 A 
HETATM   10  C   UNL     1     -44.512  57.755 -58.329  1.00  0.00     0.032 A 
HETATM   11  C   UNL     1     -43.431  56.878 -58.350  1.00  0.00     0.019 A 
HETATM   12  C   UNL     1     -42.895  56.417 -57.149  1.00  0.00     0.024 A 
BRANCH  10  13
HETATM   13  C   UNL     1     -45.209  58.023 -59.605  1.00  0.00     0.251 C 
HETATM   14  N   UNL     1     -45.399  59.332 -59.970  1.00  0.00    -0.355 N 
HETATM   15  H   UNL     1     -45.034  60.048 -59.347  1.00  0.00     0.162 HD
HETATM   16  O   UNL     1     -45.606  57.077 -60.279  1.00  0.00    -0.268 OA
BRANCH  14  17
HETATM   17  C   UNL     1     -46.309  59.783 -61.025  1.00  0.00     0.150 C 
BRANCH  17  18
HETATM   18  C   UNL     1     -47.833  59.672 -60.765  1.00  0.00     0.254 C 
BRANCH  18  19
HETATM   19  N   UNL     1     -48.646  59.442 -62.015  1.00  0.00    -0.066 N 
HETATM   20  H   UNL     1     -48.302  60.153 -62.695  1.00  0.00     0.280 HD
HETATM   21  C   UNL     1     -48.458  58.096 -62.687  1.00  0.00     0.261 C 
HETATM   22  C   UNL     1     -49.256  58.063 -63.997  1.00  0.00     0.195 C 
HETATM   23  O   UNL     1     -50.643  58.323 -63.760  1.00  0.00    -0.388 OA
HETATM   24  C   UNL     1     -50.842  59.620 -63.182  1.00  0.00     0.195 C 
HETATM   25  C   UNL     1     -50.125  59.738 -61.832  1.00  0.00     0.261 C 
ENDBRANCH  18  19
ENDBRANCH  17  18
ENDBRANCH  14  17
ENDBRANCH  10  13
ENDBRANCH   4   7
BRANCH   1  26
HETATM   26  N   UNL     1     -41.122  53.078 -52.932  1.00  0.00    -0.056 N 
HETATM   27  C   UNL     1     -39.925  52.770 -51.994  1.00  0.00     0.257 C 
HETATM   28  C   UNL     1     -39.495  51.306 -52.149  1.00  0.00     0.041 C 
HETATM   29  C   UNL     1     -39.169  50.969 -53.597  1.00  0.00     0.004 C 
HETATM   30  C   UNL     1     -40.364  51.272 -54.484  1.00  0.00     0.028 C 
HETATM   31  C   UNL     1     -40.798  52.725 -54.364  1.00  0.00     0.236 C 
HETATM   32  H   UNL     1     -41.860  52.430 -52.635  1.00  0.00     0.281 HD
BRANCH  27  33
HETATM   33  C   UNL     1     -40.110  53.191 -50.557  1.00  0.00     0.136 A 
HETATM   34  N   UNL     1     -40.453  52.412 -49.471  1.00  0.00    -0.346 N 
HETATM   35  C   UNL     1     -40.748  51.000 -49.420  1.00  0.00     0.157 C 
HETATM   36  C   UNL     1     -40.487  53.225 -48.370  1.00  0.00     0.111 A 
HETATM   37  C   UNL     1     -40.186  54.482 -48.826  1.00  0.00     0.136 A 
HETATM   38  N   UNL     1     -39.983  54.452 -50.177  1.00  0.00    -0.244 NA
ENDBRANCH  27  33
ENDBRANCH   1  26
TORSDOF 7
ENDMDL
MODEL 10
REMARK VINA RESULT:      -6.9      6.237      8.411
REMARK  7 active torsions:
REMARK  status: ('A' for Active; 'I' for Inactive)
REMARK    1  A    between atoms: C_3  and  C_4 
REMARK    2  A    between atoms: N_5  and  C_7 
REMARK    3  A    between atoms: N_10  and  C_11 
REMARK    4  A    between atoms: C_14  and  C_15 
REMARK       I    between atoms: C_15  and  N_16 
REMARK    5  A    between atoms: N_16  and  C_17 
REMARK    6  A    between atoms: C_17  and  C_18 
REMARK    7  A    between atoms: C_18  and  N_19 
ROOT
HETATM    1  C   UNL     1     -45.112  60.678 -50.378  1.00  0.00     0.191 C 
HETATM    2  C   UNL     1     -45.574  59.227 -50.520  1.00  0.00     0.048 C 
HETATM    3  C   UNL     1     -45.056  58.526 -51.754  1.00  0.00     0.098 C 
HETATM    4  N   UNL     1     -43.596  58.678 -51.816  1.00  0.00    -0.283 NA
HETATM    5  C   UNL     1     -43.139  60.057 -51.955  1.00  0.00     0.098 C 
HETATM    6  C   UNL     1     -43.632  60.887 -50.761  1.00  0.00     0.048 C 
ENDROOT
BRANCH   4   7
HETATM    7  C   UNL     1     -43.049  57.697 -52.668  1.00  0.00     0.010 A 
HETATM    8  C   UNL     1     -43.691  56.494 -52.994  1.00  0.00     0.024 A 
HETATM    9  C   UNL     1     -43.002  55.467 -53.662  1.00  0.00     0.019 A 
HETATM   10  C   UNL     1     -41.662  55.650 -54.019  1.00  0.00     0.032 A 
HETATM   11  C   UNL     1     -41.037  56.871 -53.781  1.00  0.00     0.019 A 
HETATM   12  C   UNL     1     -41.735  57.886 -53.130  1.00  0.00     0.024 A 
BRANCH  10  13
HETATM   13  C   UNL     1     -40.824  54.523 -54.480  1.00  0.00     0.251 C 
HETATM   14  N   UNL     1     -41.281  53.249 -54.254  1.00  0.00    -0.355 N 
HETATM   15  H   UNL     1     -42.182  53.152 -53.792  1.00  0.00     0.162 HD
HETATM   16  O   UNL     1     -39.752  54.761 -55.029  1.00  0.00    -0.268 OA
BRANCH  14  17
HETATM   17  C   UNL     1     -40.469  52.036 -54.369  1.00  0.00     0.150 C 
BRANCH  17  18
HETATM   18  C   UNL     1     -39.492  51.704 -53.213  1.00  0.00     0.254 C 
BRANCH  18  19
HETATM   19  N   UNL     1     -40.107  51.843 -51.842  1.00  0.00    -0.066 N 
HETATM   20  H   UNL     1     -41.137  51.836 -52.005  1.00  0.00     0.280 HD
HETATM   21  C   UNL     1     -39.829  50.708 -50.875  1.00  0.00     0.261 C 
HETATM   22  C   UNL     1     -40.614  50.939 -49.577  1.00  0.00     0.195 C 
HETATM   23  O   UNL     1     -40.276  52.201 -48.991  1.00  0.00    -0.388 OA
HETATM   24  C   UNL     1     -40.592  53.288 -49.868  1.00  0.00     0.195 C 
HETATM   25  C   UNL     1     -39.811  53.180 -51.183  1.00  0.00     0.261 C 
ENDBRANCH  18  19
ENDBRANCH  17  18
ENDBRANCH  14  17
ENDBRANCH  10  13
ENDBRANCH   4   7
BRANCH   1  26
HETATM   26  N   UNL     1     -46.053  61.735 -51.032  1.00  0.00    -0.056 N 
HETATM   27  C   UNL     1     -46.808  62.620 -50.005  1.00  0.00     0.257 C 
HETATM   28  C   UNL     1     -47.560  63.744 -50.728  1.00  0.00     0.041 C 
HETATM   29  C   UNL     1     -48.503  63.195 -51.790  1.00  0.00     0.004 C 
HETATM   30  C   UNL     1     -47.729  62.344 -52.782  1.00  0.00     0.028 C 
HETATM   31  C   UNL     1     -46.991  61.207 -52.091  1.00  0.00     0.236 C 
HETATM   32  H   UNL     1     -45.411  62.378 -51.509  1.00  0.00     0.281 HD
BRANCH  27  33
HETATM   33  C   UNL     1     -45.978  63.106 -48.842  1.00  0.00     0.136 A 
HETATM   34  N   UNL     1     -46.050  62.725 -47.518  1.00  0.00    -0.346 N 
HETATM   35  C   UNL     1     -46.946  61.787 -46.888  1.00  0.00     0.157 C 
HETATM   36  C   UNL     1     -45.089  63.420 -46.834  1.00  0.00     0.111 A 
HETATM   37  C   UNL     1     -44.477  64.221 -47.761  1.00  0.00     0.136 A 
HETATM   38  N   UNL     1     -45.050  64.039 -48.987  1.00  0.00    -0.244 NA
ENDBRANCH  27  33
ENDBRANCH   1  26
TORSDOF 7
ENDMDL
