MODEL 1
REMARK VINA RESULT:      -6.7      0.000      0.000
REMARK  4 active torsions:
REMARK  status: ('A' for Active; 'I' for Inactive)
REMARK    1  A    between atoms: C_2  and  O_3 
REMARK    2  A    between atoms: O_3  and  C_4 
REMARK    3  A    between atoms: C_7  and  N_8 
REMARK       I    between atoms: N_8  and  C_9 
REMARK    4  A    between atoms: C_9  and  C_10 
ROOT
HETATM    1  N   UNL     1     -43.170  54.969 -56.247  1.00  0.00    -0.323 N 
HETATM    2  C   UNL     1     -42.895  56.182 -56.855  1.00  0.00     0.257 C 
HETATM    3  O   UNL     1     -42.157  57.060 -56.425  1.00  0.00    -0.267 OA
HETATM    4  H   UNL     1     -43.730  54.300 -56.755  1.00  0.00     0.169 HD
ENDROOT
BRANCH   1   5
HETATM    5  C   UNL     1     -42.720  54.525 -54.982  1.00  0.00     0.035 A 
HETATM    6  C   UNL     1     -41.512  53.860 -54.768  1.00  0.00     0.032 A 
HETATM    7  C   UNL     1     -41.131  53.473 -53.477  1.00  0.00     0.039 A 
HETATM    8  C   UNL     1     -41.943  53.775 -52.388  1.00  0.00     0.069 A 
HETATM    9  C   UNL     1     -43.167  54.403 -52.596  1.00  0.00     0.039 A 
HETATM   10  C   UNL     1     -43.552  54.782 -53.884  1.00  0.00     0.032 A 
BRANCH   8  11
HETATM   11  O   UNL     1     -41.650  53.421 -51.101  1.00  0.00    -0.347 OA
BRANCH  11  12
HETATM   12  C   UNL     1     -40.275  53.090 -50.855  1.00  0.00     0.120 C 
HETATM   13  C   UNL     1     -40.228  51.650 -50.358  1.00  0.00     0.040 C 
HETATM   14  C   UNL     1     -39.747  54.047 -49.791  1.00  0.00     0.040 C 
ENDBRANCH  11  12
ENDBRANCH   8  11
ENDBRANCH   1   5
BRANCH   2  15
HETATM   15  C   UNL     1     -43.560  56.419 -58.163  1.00  0.00     0.051 A 
HETATM   16  C   UNL     1     -43.051  55.774 -59.288  1.00  0.00     0.133 A 
HETATM   17  N   UNL     1     -43.562  55.908 -60.538  1.00  0.00    -0.271 NA
HETATM   18  C   UNL     1     -44.620  56.738 -60.675  1.00  0.00     0.135 A 
HETATM   19  C   UNL     1     -45.184  57.437 -59.618  1.00  0.00     0.029 A 
HETATM   20 BR   UNL     1     -46.653  58.586 -59.899  1.00  0.00    -0.050 Br
HETATM   21  C   UNL     1     -44.644  57.283 -58.342  1.00  0.00     0.039 A 
ENDBRANCH   2  15
TORSDOF 4
ENDMDL
MODEL 2
REMARK VINA RESULT:      -6.7      4.927      6.218
REMARK  4 active torsions:
REMARK  status: ('A' for Active; 'I' for Inactive)
REMARK    1  A    between atoms: C_2  and  O_3 
REMARK    2  A    between atoms: O_3  and  C_4 
REMARK    3  A    between atoms: C_7  and  N_8 
REMARK       I    between atoms: N_8  and  C_9 
REMARK    4  A    between atoms: C_9  and  C_10 
ROOT
HETATM    1  N   UNL     1     -42.774  55.803 -51.983  1.00  0.00    -0.323 N 
HETATM    2  C   UNL     1     -42.449  57.149 -51.982  1.00  0.00     0.257 C 
HETATM    3  O   UNL     1     -41.408  57.646 -52.395  1.00  0.00    -0.267 OA
HETATM    4  H   UNL     1     -43.704  55.540 -51.692  1.00  0.00     0.169 HD
ENDROOT
BRANCH   1   5
HETATM    5  C   UNL     1     -41.952  54.726 -52.383  1.00  0.00     0.035 A 
HETATM    6  C   UNL     1     -41.812  54.293 -53.703  1.00  0.00     0.032 A 
HETATM    7  C   UNL     1     -40.958  53.228 -54.018  1.00  0.00     0.039 A 
HETATM    8  C   UNL     1     -40.215  52.609 -53.017  1.00  0.00     0.069 A 
HETATM    9  C   UNL     1     -40.376  53.007 -51.694  1.00  0.00     0.039 A 
HETATM   10  C   UNL     1     -41.235  54.063 -51.378  1.00  0.00     0.032 A 
BRANCH   8  11
HETATM   11  O   UNL     1     -39.372  51.558 -53.239  1.00  0.00    -0.347 OA
BRANCH  11  12
HETATM   12  C   UNL     1     -40.012  50.284 -53.413  1.00  0.00     0.120 C 
HETATM   13  C   UNL     1     -39.554  49.376 -52.278  1.00  0.00     0.040 C 
HETATM   14  C   UNL     1     -39.580  49.723 -54.764  1.00  0.00     0.040 C 
ENDBRANCH  11  12
ENDBRANCH   8  11
ENDBRANCH   1   5
BRANCH   2  15
HETATM   15  C   UNL     1     -43.484  58.068 -51.439  1.00  0.00     0.051 A 
HETATM   16  C   UNL     1     -44.748  57.551 -51.166  1.00  0.00     0.133 A 
HETATM   17  N   UNL     1     -45.779  58.283 -50.673  1.00  0.00    -0.271 NA
HETATM   18  C   UNL     1     -45.541  59.596 -50.457  1.00  0.00     0.135 A 
HETATM   19  C   UNL     1     -44.322  60.205 -50.715  1.00  0.00     0.029 A 
HETATM   20 BR   UNL     1     -44.080  62.048 -50.398  1.00  0.00    -0.050 Br
HETATM   21  C   UNL     1     -43.276  59.433 -51.220  1.00  0.00     0.039 A 
ENDBRANCH   2  15
TORSDOF 4
ENDMDL
MODEL 3
REMARK VINA RESULT:      -6.5      3.598      8.225
REMARK  4 active torsions:
REMARK  status: ('A' for Active; 'I' for Inactive)
REMARK    1  A    between atoms: C_2  and  O_3 
REMARK    2  A    between atoms: O_3  and  C_4 
REMARK    3  A    between atoms: C_7  and  N_8 
REMARK       I    between atoms: N_8  and  C_9 
REMARK    4  A    between atoms: C_9  and  C_10 
ROOT
HETATM    1  N   UNL     1     -42.333  54.775 -54.862  1.00  0.00    -0.323 N 
HETATM    2  C   UNL     1     -41.253  54.966 -54.018  1.00  0.00     0.257 C 
HETATM    3  O   UNL     1     -40.729  56.038 -53.737  1.00  0.00    -0.267 OA
HETATM    4  H   UNL     1     -42.719  53.846 -54.936  1.00  0.00     0.169 HD
ENDROOT
BRANCH   1   5
HETATM    5  C   UNL     1     -43.003  55.756 -55.628  1.00  0.00     0.035 A 
HETATM    6  C   UNL     1     -43.830  56.743 -55.089  1.00  0.00     0.032 A 
HETATM    7  C   UNL     1     -44.441  57.693 -55.918  1.00  0.00     0.039 A 
HETATM    8  C   UNL     1     -44.204  57.679 -57.289  1.00  0.00     0.069 A 
HETATM    9  C   UNL     1     -43.413  56.676 -57.840  1.00  0.00     0.039 A 
HETATM   10  C   UNL     1     -42.811  55.723 -57.015  1.00  0.00     0.032 A 
BRANCH   8  11
HETATM   11  O   UNL     1     -44.771  58.560 -58.166  1.00  0.00    -0.347 OA
BRANCH  11  12
HETATM   12  C   UNL     1     -45.539  57.964 -59.222  1.00  0.00     0.120 C 
HETATM   13  C   UNL     1     -45.610  58.967 -60.367  1.00  0.00     0.040 C 
HETATM   14  C   UNL     1     -46.933  57.667 -58.676  1.00  0.00     0.040 C 
ENDBRANCH  11  12
ENDBRANCH   8  11
ENDBRANCH   1   5
BRANCH   2  15
HETATM   15  C   UNL     1     -40.696  53.740 -53.387  1.00  0.00     0.051 A 
HETATM   16  C   UNL     1     -40.375  53.783 -52.032  1.00  0.00     0.133 A 
HETATM   17  N   UNL     1     -39.858  52.736 -51.340  1.00  0.00    -0.271 NA
HETATM   18  C   UNL     1     -39.634  51.599 -52.036  1.00  0.00     0.135 A 
HETATM   19  C   UNL     1     -39.904  51.468 -53.390  1.00  0.00     0.029 A 
HETATM   20 BR   UNL     1     -39.550  49.848 -54.289  1.00  0.00    -0.050 Br
HETATM   21  C   UNL     1     -40.437  52.555 -54.082  1.00  0.00     0.039 A 
ENDBRANCH   2  15
TORSDOF 4
ENDMDL
MODEL 4
REMARK VINA RESULT:      -6.4     15.724     18.412
REMARK  4 active torsions:
REMARK  status: ('A' for Active; 'I' for Inactive)
REMARK    1  A    between atoms: C_2  and  O_3 
REMARK    2  A    between atoms: O_3  and  C_4 
REMARK    3  A    between atoms: C_7  and  N_8 
REMARK       I    between atoms: N_8  and  C_9 
REMARK    4  A    between atoms: C_9  and  C_10 
ROOT
HETATM    1  N   UNL     1     -34.605  40.473 -53.220  1.00  0.00    -0.323 N 
HETATM    2  C   UNL     1     -34.357  41.163 -52.046  1.00  0.00     0.257 C 
HETATM    3  O   UNL     1     -34.691  42.314 -51.795  1.00  0.00    -0.267 OA
HETATM    4  H   UNL     1     -34.348  39.498 -53.261  1.00  0.00     0.169 HD
ENDROOT
BRANCH   1   5
HETATM    5  C   UNL     1     -35.222  40.971 -54.391  1.00  0.00     0.035 A 
HETATM    6  C   UNL     1     -34.531  41.544 -55.459  1.00  0.00     0.032 A 
HETATM    7  C   UNL     1     -35.218  41.994 -56.594  1.00  0.00     0.039 A 
HETATM    8  C   UNL     1     -36.600  41.845 -56.679  1.00  0.00     0.069 A 
HETATM    9  C   UNL     1     -37.302  41.311 -55.603  1.00  0.00     0.039 A 
HETATM   10  C   UNL     1     -36.618  40.871 -54.467  1.00  0.00     0.032 A 
BRANCH   8  11
HETATM   11  O   UNL     1     -37.344  42.269 -57.742  1.00  0.00    -0.347 OA
BRANCH  11  12
HETATM   12  C   UNL     1     -37.021  41.656 -59.000  1.00  0.00     0.120 C 
HETATM   13  C   UNL     1     -37.366  42.650 -60.103  1.00  0.00     0.040 C 
HETATM   14  C   UNL     1     -37.861  40.389 -59.131  1.00  0.00     0.040 C 
ENDBRANCH  11  12
ENDBRANCH   8  11
ENDBRANCH   1   5
BRANCH   2  15
HETATM   15  C   UNL     1     -33.624  40.412 -50.993  1.00  0.00     0.051 A 
HETATM   16  C   UNL     1     -32.232  40.461 -50.993  1.00  0.00     0.133 A 
HETATM   17  N   UNL     1     -31.448  39.819 -50.091  1.00  0.00    -0.271 NA
HETATM   18  C   UNL     1     -32.082  39.080 -49.153  1.00  0.00     0.135 A 
HETATM   19  C   UNL     1     -33.462  38.955 -49.084  1.00  0.00     0.029 A 
HETATM   20 BR   UNL     1     -34.266  37.890 -47.751  1.00  0.00    -0.050 Br
HETATM   21  C   UNL     1     -34.249  39.624 -50.020  1.00  0.00     0.039 A 
ENDBRANCH   2  15
TORSDOF 4
ENDMDL
MODEL 5
REMARK VINA RESULT:      -6.3      5.625      8.002
REMARK  4 active torsions:
REMARK  status: ('A' for Active; 'I' for Inactive)
REMARK    1  A    between atoms: C_2  and  O_3 
REMARK    2  A    between atoms: O_3  and  C_4 
REMARK    3  A    between atoms: C_7  and  N_8 
REMARK       I    between atoms: N_8  and  C_9 
REMARK    4  A    between atoms: C_9  and  C_10 
ROOT
HETATM    1  N   UNL     1     -41.652  55.268 -51.545  1.00  0.00    -0.323 N 
HETATM    2  C   UNL     1     -40.989  54.659 -52.597  1.00  0.00     0.257 C 
HETATM    3  O   UNL     1     -40.743  55.158 -53.688  1.00  0.00    -0.267 OA
HETATM    4  H   UNL     1     -41.710  54.770 -50.669  1.00  0.00     0.169 HD
ENDROOT
BRANCH   1   5
HETATM    5  C   UNL     1     -42.245  56.552 -51.537  1.00  0.00     0.035 A 
HETATM    6  C   UNL     1     -43.601  56.792 -51.761  1.00  0.00     0.032 A 
HETATM    7  C   UNL     1     -44.112  58.095 -51.713  1.00  0.00     0.039 A 
HETATM    8  C   UNL     1     -43.274  59.164 -51.411  1.00  0.00     0.069 A 
HETATM    9  C   UNL     1     -41.914  58.940 -51.225  1.00  0.00     0.039 A 
HETATM   10  C   UNL     1     -41.401  57.641 -51.281  1.00  0.00     0.032 A 
BRANCH   8  11
HETATM   11  O   UNL     1     -43.691  60.463 -51.359  1.00  0.00    -0.347 OA
BRANCH  11  12
HETATM   12  C   UNL     1     -43.519  61.112 -50.090  1.00  0.00     0.120 C 
HETATM   13  C   UNL     1     -44.857  61.068 -49.361  1.00  0.00     0.040 C 
HETATM   14  C   UNL     1     -43.094  62.553 -50.355  1.00  0.00     0.040 C 
ENDBRANCH  11  12
ENDBRANCH   8  11
ENDBRANCH   1   5
BRANCH   2  15
HETATM   15  C   UNL     1     -40.523  53.268 -52.354  1.00  0.00     0.051 A 
HETATM   16  C   UNL     1     -40.288  52.871 -51.040  1.00  0.00     0.133 A 
HETATM   17  N   UNL     1     -39.859  51.633 -50.685  1.00  0.00    -0.271 NA
HETATM   18  C   UNL     1     -39.638  50.756 -51.690  1.00  0.00     0.135 A 
HETATM   19  C   UNL     1     -39.825  51.066 -53.029  1.00  0.00     0.029 A 
HETATM   20 BR   UNL     1     -39.480  49.786 -54.370  1.00  0.00    -0.050 Br
HETATM   21  C   UNL     1     -40.269  52.343 -53.371  1.00  0.00     0.039 A 
ENDBRANCH   2  15
TORSDOF 4
ENDMDL
MODEL 6
REMARK VINA RESULT:      -6.2      1.456      2.135
REMARK  4 active torsions:
REMARK  status: ('A' for Active; 'I' for Inactive)
REMARK    1  A    between atoms: C_2  and  O_3 
REMARK    2  A    between atoms: O_3  and  C_4 
REMARK    3  A    between atoms: C_7  and  N_8 
REMARK       I    between atoms: N_8  and  C_9 
REMARK    4  A    between atoms: C_9  and  C_10 
ROOT
HETATM    1  N   UNL     1     -43.003  55.248 -55.942  1.00  0.00    -0.323 N 
HETATM    2  C   UNL     1     -42.912  56.482 -56.560  1.00  0.00     0.257 C 
HETATM    3  O   UNL     1     -42.137  57.386 -56.270  1.00  0.00    -0.267 OA
HETATM    4  H   UNL     1     -43.629  54.563 -56.340  1.00  0.00     0.169 HD
ENDROOT
BRANCH   1   5
HETATM    5  C   UNL     1     -42.281  54.803 -54.810  1.00  0.00     0.035 A 
HETATM    6  C   UNL     1     -42.711  54.964 -53.492  1.00  0.00     0.032 A 
HETATM    7  C   UNL     1     -41.944  54.474 -52.428  1.00  0.00     0.039 A 
HETATM    8  C   UNL     1     -40.757  53.792 -52.677  1.00  0.00     0.069 A 
HETATM    9  C   UNL     1     -40.301  53.660 -53.984  1.00  0.00     0.039 A 
HETATM   10  C   UNL     1     -41.060  54.157 -55.047  1.00  0.00     0.032 A 
BRANCH   8  11
HETATM   11  O   UNL     1     -39.947  53.296 -51.695  1.00  0.00    -0.347 OA
BRANCH  11  12
HETATM   12  C   UNL     1     -40.622  52.852 -50.509  1.00  0.00     0.120 C 
HETATM   13  C   UNL     1     -40.079  53.661 -49.336  1.00  0.00     0.040 C 
HETATM   14  C   UNL     1     -40.323  51.367 -50.328  1.00  0.00     0.040 C 
ENDBRANCH  11  12
ENDBRANCH   8  11
ENDBRANCH   1   5
BRANCH   2  15
HETATM   15  C   UNL     1     -43.844  56.712 -57.696  1.00  0.00     0.051 A 
HETATM   16  C   UNL     1     -44.680  57.825 -57.649  1.00  0.00     0.133 A 
HETATM   17  N   UNL     1     -45.576  58.144 -58.617  1.00  0.00    -0.271 NA
HETATM   18  C   UNL     1     -45.653  57.304 -59.674  1.00  0.00     0.135 A 
HETATM   19  C   UNL     1     -44.876  56.162 -59.799  1.00  0.00     0.029 A 
HETATM   20 BR   UNL     1     -45.056  55.036 -61.301  1.00  0.00    -0.050 Br
HETATM   21  C   UNL     1     -43.960  55.854 -58.794  1.00  0.00     0.039 A 
ENDBRANCH   2  15
TORSDOF 4
ENDMDL
MODEL 7
REMARK VINA RESULT:      -6.2      3.992      8.479
REMARK  4 active torsions:
REMARK  status: ('A' for Active; 'I' for Inactive)
REMARK    1  A    between atoms: C_2  and  O_3 
REMARK    2  A    between atoms: O_3  and  C_4 
REMARK    3  A    between atoms: C_7  and  N_8 
REMARK       I    between atoms: N_8  and  C_9 
REMARK    4  A    between atoms: C_9  and  C_10 
ROOT
HETATM    1  N   UNL     1     -41.800  55.130 -53.882  1.00  0.00    -0.323 N 
HETATM    2  C   UNL     1     -40.713  54.277 -53.789  1.00  0.00     0.257 C 
HETATM    3  O   UNL     1     -39.865  54.083 -54.652  1.00  0.00    -0.267 OA
HETATM    4  H   UNL     1     -42.372  55.259 -53.060  1.00  0.00     0.169 HD
ENDROOT
BRANCH   1   5
HETATM    5  C   UNL     1     -42.197  55.890 -55.005  1.00  0.00     0.035 A 
HETATM    6  C   UNL     1     -42.138  57.283 -55.072  1.00  0.00     0.032 A 
HETATM    7  C   UNL     1     -42.532  57.958 -56.234  1.00  0.00     0.039 A 
HETATM    8  C   UNL     1     -42.960  57.242 -57.348  1.00  0.00     0.069 A 
HETATM    9  C   UNL     1     -43.060  55.857 -57.278  1.00  0.00     0.039 A 
HETATM   10  C   UNL     1     -42.675  55.182 -56.116  1.00  0.00     0.032 A 
BRANCH   8  11
HETATM   11  O   UNL     1     -43.373  57.826 -58.511  1.00  0.00    -0.347 OA
BRANCH  11  12
HETATM   12  C   UNL     1     -42.935  57.174 -59.713  1.00  0.00     0.120 C 
HETATM   13  C   UNL     1     -42.021  58.139 -60.458  1.00  0.00     0.040 C 
HETATM   14  C   UNL     1     -44.172  56.848 -60.546  1.00  0.00     0.040 C 
ENDBRANCH  11  12
ENDBRANCH   8  11
ENDBRANCH   1   5
BRANCH   2  15
HETATM   15  C   UNL     1     -40.569  53.544 -52.504  1.00  0.00     0.051 A 
HETATM   16  C   UNL     1     -40.828  54.231 -51.320  1.00  0.00     0.133 A 
HETATM   17  N   UNL     1     -40.730  53.679 -50.084  1.00  0.00    -0.271 NA
HETATM   18  C   UNL     1     -40.337  52.386 -50.026  1.00  0.00     0.135 A 
HETATM   19  C   UNL     1     -40.039  51.628 -51.148  1.00  0.00     0.029 A 
HETATM   20 BR   UNL     1     -39.485  49.833 -50.977  1.00  0.00    -0.050 Br
HETATM   21  C   UNL     1     -40.149  52.214 -52.408  1.00  0.00     0.039 A 
ENDBRANCH   2  15
TORSDOF 4
ENDMDL
MODEL 8
REMARK VINA RESULT:      -6.1      4.732      6.297
REMARK  4 active torsions:
REMARK  status: ('A' for Active; 'I' for Inactive)
REMARK    1  A    between atoms: C_2  and  O_3 
REMARK    2  A    between atoms: O_3  and  C_4 
REMARK    3  A    between atoms: C_7  and  N_8 
REMARK       I    between atoms: N_8  and  C_9 
REMARK    4  A    between atoms: C_9  and  C_10 
ROOT
HETATM    1  N   UNL     1     -42.253  57.117 -52.705  1.00  0.00    -0.323 N 
HETATM    2  C   UNL     1     -42.005  57.771 -51.511  1.00  0.00     0.257 C 
HETATM    3  O   UNL     1     -41.245  57.403 -50.624  1.00  0.00    -0.267 OA
HETATM    4  H   UNL     1     -42.838  57.577 -53.386  1.00  0.00     0.169 HD
ENDROOT
BRANCH   1   5
HETATM    5  C   UNL     1     -41.745  55.862 -53.114  1.00  0.00     0.035 A 
HETATM    6  C   UNL     1     -42.129  54.641 -52.557  1.00  0.00     0.032 A 
HETATM    7  C   UNL     1     -41.592  53.439 -53.036  1.00  0.00     0.039 A 
HETATM    8  C   UNL     1     -40.690  53.449 -54.095  1.00  0.00     0.069 A 
HETATM    9  C   UNL     1     -40.271  54.663 -54.630  1.00  0.00     0.039 A 
HETATM   10  C   UNL     1     -40.799  55.864 -54.147  1.00  0.00     0.032 A 
BRANCH   8  11
HETATM   11  O   UNL     1     -40.111  52.324 -54.610  1.00  0.00    -0.347 OA
BRANCH  11  12
HETATM   12  C   UNL     1     -40.213  51.152 -53.788  1.00  0.00     0.120 C 
HETATM   13  C   UNL     1     -39.226  51.305 -52.637  1.00  0.00     0.040 C 
HETATM   14  C   UNL     1     -39.857  49.944 -54.649  1.00  0.00     0.040 C 
ENDBRANCH  11  12
ENDBRANCH   8  11
ENDBRANCH   1   5
BRANCH   2  15
HETATM   15  C   UNL     1     -42.730  59.054 -51.310  1.00  0.00     0.051 A 
HETATM   16  C   UNL     1     -42.055  60.104 -50.692  1.00  0.00     0.133 A 
HETATM   17  N   UNL     1     -42.603  61.321 -50.447  1.00  0.00    -0.271 NA
HETATM   18  C   UNL     1     -43.891  61.493 -50.822  1.00  0.00     0.135 A 
HETATM   19  C   UNL     1     -44.649  60.502 -51.426  1.00  0.00     0.029 A 
HETATM   20 BR   UNL     1     -46.445  60.822 -51.906  1.00  0.00    -0.050 Br
HETATM   21  C   UNL     1     -44.066  59.259 -51.670  1.00  0.00     0.039 A 
ENDBRANCH   2  15
TORSDOF 4
ENDMDL
MODEL 9
REMARK VINA RESULT:      -6.0      2.179      2.195
REMARK  4 active torsions:
REMARK  status: ('A' for Active; 'I' for Inactive)
REMARK    1  A    between atoms: C_2  and  O_3 
REMARK    2  A    between atoms: O_3  and  C_4 
REMARK    3  A    between atoms: C_7  and  N_8 
REMARK       I    between atoms: N_8  and  C_9 
REMARK    4  A    between atoms: C_9  and  C_10 
ROOT
HETATM    1  N   UNL     1     -42.049  56.234 -56.568  1.00  0.00    -0.323 N 
HETATM    2  C   UNL     1     -42.254  57.596 -56.704  1.00  0.00     0.257 C 
HETATM    3  O   UNL     1     -42.311  58.417 -55.797  1.00  0.00    -0.267 OA
HETATM    4  H   UNL     1     -41.937  55.686 -57.408  1.00  0.00     0.169 HD
ENDROOT
BRANCH   1   5
HETATM    5  C   UNL     1     -41.941  55.502 -55.364  1.00  0.00     0.035 A 
HETATM    6  C   UNL     1     -40.731  55.107 -54.791  1.00  0.00     0.032 A 
HETATM    7  C   UNL     1     -40.712  54.401 -53.582  1.00  0.00     0.039 A 
HETATM    8  C   UNL     1     -41.902  54.111 -52.923  1.00  0.00     0.069 A 
HETATM    9  C   UNL     1     -43.115  54.465 -53.505  1.00  0.00     0.039 A 
HETATM   10  C   UNL     1     -43.136  55.161 -54.716  1.00  0.00     0.032 A 
BRANCH   8  11
HETATM   11  O   UNL     1     -41.969  53.415 -51.749  1.00  0.00    -0.347 OA
BRANCH  11  12
HETATM   12  C   UNL     1     -40.872  53.627 -50.847  1.00  0.00     0.120 C 
HETATM   13  C   UNL     1     -40.324  52.260 -50.455  1.00  0.00     0.040 C 
HETATM   14  C   UNL     1     -41.408  54.367 -49.625  1.00  0.00     0.040 C 
ENDBRANCH  11  12
ENDBRANCH   8  11
ENDBRANCH   1   5
BRANCH   2  15
HETATM   15  C   UNL     1     -42.401  58.097 -58.097  1.00  0.00     0.051 A 
HETATM   16  C   UNL     1     -42.962  57.247 -59.048  1.00  0.00     0.133 A 
HETATM   17  N   UNL     1     -43.148  57.581 -60.350  1.00  0.00    -0.271 NA
HETATM   18  C   UNL     1     -42.739  58.814 -60.725  1.00  0.00     0.135 A 
HETATM   19  C   UNL     1     -42.153  59.721 -59.855  1.00  0.00     0.029 A 
HETATM   20 BR   UNL     1     -41.598  61.418 -60.464  1.00  0.00    -0.050 Br
HETATM   21  C   UNL     1     -41.973  59.359 -58.521  1.00  0.00     0.039 A 
ENDBRANCH   2  15
TORSDOF 4
ENDMDL
MODEL 10
REMARK VINA RESULT:      -6.0     16.105     19.850
REMARK  4 active torsions:
REMARK  status: ('A' for Active; 'I' for Inactive)
REMARK    1  A    between atoms: C_2  and  O_3 
REMARK    2  A    between atoms: O_3  and  C_4 
REMARK    3  A    between atoms: C_7  and  N_8 
REMARK       I    between atoms: N_8  and  C_9 
REMARK    4  A    between atoms: C_9  and  C_10 
ROOT
HETATM    1  N   UNL     1     -33.736  40.004 -50.069  1.00  0.00    -0.323 N 
HETATM    2  C   UNL     1     -32.366  39.895 -49.909  1.00  0.00     0.257 C 
HETATM    3  O   UNL     1     -31.509  40.250 -50.710  1.00  0.00    -0.267 OA
HETATM    4  H   UNL     1     -34.326  39.750 -49.290  1.00  0.00     0.169 HD
ENDROOT
BRANCH   1   5
HETATM    5  C   UNL     1     -34.430  40.472 -51.208  1.00  0.00     0.035 A 
HETATM    6  C   UNL     1     -34.943  39.645 -52.209  1.00  0.00     0.032 A 
HETATM    7  C   UNL     1     -35.638  40.190 -53.297  1.00  0.00     0.039 A 
HETATM    8  C   UNL     1     -35.849  41.563 -53.374  1.00  0.00     0.069 A 
HETATM    9  C   UNL     1     -35.307  42.399 -52.403  1.00  0.00     0.039 A 
HETATM   10  C   UNL     1     -34.606  41.857 -51.322  1.00  0.00     0.032 A 
BRANCH   8  11
HETATM   11  O   UNL     1     -36.503  42.173 -54.407  1.00  0.00    -0.347 OA
BRANCH  11  12
HETATM   12  C   UNL     1     -36.222  41.640 -55.710  1.00  0.00     0.120 C 
HETATM   13  C   UNL     1     -34.978  42.344 -56.241  1.00  0.00     0.040 C 
HETATM   14  C   UNL     1     -37.427  41.925 -56.602  1.00  0.00     0.040 C 
ENDBRANCH  11  12
ENDBRANCH   8  11
ENDBRANCH   1   5
BRANCH   2  15
HETATM   15  C   UNL     1     -31.906  39.300 -48.626  1.00  0.00     0.051 A 
HETATM   16  C   UNL     1     -32.268  37.986 -48.340  1.00  0.00     0.133 A 
HETATM   17  N   UNL     1     -31.917  37.330 -47.206  1.00  0.00    -0.271 NA
HETATM   18  C   UNL     1     -31.183  38.023 -46.306  1.00  0.00     0.135 A 
HETATM   19  C   UNL     1     -30.791  39.340 -46.494  1.00  0.00     0.029 A 
HETATM   20 BR   UNL     1     -29.778  40.239 -45.181  1.00  0.00    -0.050 Br
HETATM   21  C   UNL     1     -31.161  39.994 -47.668  1.00  0.00     0.039 A 
ENDBRANCH   2  15
TORSDOF 4
ENDMDL
