MODEL 1
REMARK VINA RESULT:      -7.6      0.000      0.000
REMARK  4 active torsions:
REMARK  status: ('A' for Active; 'I' for Inactive)
REMARK    1  A    between atoms: C_2  and  C_3 
REMARK    2  A    between atoms: C_8  and  C_9 
REMARK       I    between atoms: C_9  and  N_10 
REMARK    3  A    between atoms: C_20  and  C_21 
REMARK    4  A    between atoms: C_23  and  O_24 
ROOT
HETATM    1  C   UNL     1     -37.980  40.517 -57.101  1.00  0.00     0.258 C 
HETATM    2  N   UNL     1     -36.842  40.783 -56.332  1.00  0.00    -0.340 N 
HETATM    3  C   UNL     1     -35.456  40.543 -56.704  1.00  0.00     0.123 C 
HETATM    4  C   UNL     1     -34.605  41.293 -55.644  1.00  0.00     0.221 C 
HETATM    5  N   UNL     1     -33.575  40.324 -55.044  1.00  0.00    -0.064 N 
HETATM    6  H   UNL     1     -32.998  40.822 -54.352  1.00  0.00     0.280 HD
HETATM    7  C   UNL     1     -34.151  39.093 -54.360  1.00  0.00     0.236 C 
HETATM    8  C   UNL     1     -35.172  38.460 -55.295  1.00  0.00     0.034 C 
HETATM    9  C   UNL     1     -35.035  39.054 -56.708  1.00  0.00     0.014 C 
HETATM   10  C   UNL     1     -33.547  38.979 -57.118  1.00  0.00     0.034 C 
HETATM   11  C   UNL     1     -32.677  39.825 -56.176  1.00  0.00     0.236 C 
HETATM   12  C   UNL     1     -35.592  42.020 -54.687  1.00  0.00     0.070 C 
HETATM   13  C   UNL     1     -36.945  41.903 -55.409  1.00  0.00     0.138 C 
HETATM   14  O   UNL     1     -39.108  40.643 -56.635  1.00  0.00    -0.267 OA
ENDROOT
BRANCH   1  15
HETATM   15  C   UNL     1     -37.771  40.295 -58.510  1.00  0.00     0.090 C 
HETATM   16  C   UNL     1     -37.415  41.160 -59.574  1.00  0.00     0.080 C 
HETATM   17  N   UNL     1     -37.411  40.498 -60.742  1.00  0.00    -0.132 NA
HETATM   18  O   UNL     1     -37.600  39.170 -60.430  1.00  0.00    -0.217 OA
HETATM   19  C   UNL     1     -37.778  39.044 -59.092  1.00  0.00     0.092 C 
HETATM   20  C   UNL     1     -37.916  37.671 -58.568  1.00  0.00     0.080 C 
BRANCH  16  21
HETATM   21  C   UNL     1     -37.103  42.618 -59.555  1.00  0.00     0.058 C 
HETATM   22  C   UNL     1     -37.426  43.321 -60.865  1.00  0.00     0.011 C 
ENDBRANCH  16  21
ENDBRANCH   1  15
BRANCH  12  23
HETATM   23  C   UNL     1     -35.585  41.664 -53.217  1.00  0.00    -0.048 A 
HETATM   24  C   UNL     1     -36.642  40.889 -52.701  1.00  0.00     0.044 A 
HETATM   25  C   UNL     1     -36.681  40.571 -51.346  1.00  0.00     0.066 A 
HETATM   26  C   UNL     1     -35.683  40.999 -50.483  1.00  0.00     0.036 A 
HETATM   27  C   UNL     1     -34.613  41.735 -50.983  1.00  0.00     0.003 A 
HETATM   28  C   UNL     1     -34.562  42.064 -52.340  1.00  0.00     0.008 A 
BRANCH  25  29
HETATM   29  O   UNL     1     -37.704  39.843 -50.821  1.00  0.00    -0.361 OA
HETATM   30  H   UNL     1     -37.443  39.496 -49.951  1.00  0.00     0.217 HD
ENDBRANCH  25  29
ENDBRANCH  12  23
TORSDOF 4
ENDMDL
MODEL 2
REMARK VINA RESULT:      -7.4     17.226     18.919
REMARK  4 active torsions:
REMARK  status: ('A' for Active; 'I' for Inactive)
REMARK    1  A    between atoms: C_2  and  C_3 
REMARK    2  A    between atoms: C_8  and  C_9 
REMARK       I    between atoms: C_9  and  N_10 
REMARK    3  A    between atoms: C_20  and  C_21 
REMARK    4  A    between atoms: C_23  and  O_24 
ROOT
HETATM    1  C   UNL     1     -42.735  55.031 -51.037  1.00  0.00     0.258 C 
HETATM    2  N   UNL     1     -42.982  56.230 -51.714  1.00  0.00    -0.340 N 
HETATM    3  C   UNL     1     -42.080  56.931 -52.615  1.00  0.00     0.123 C 
HETATM    4  C   UNL     1     -42.948  58.009 -53.318  1.00  0.00     0.221 C 
HETATM    5  N   UNL     1     -42.271  59.380 -53.169  1.00  0.00    -0.064 N 
HETATM    6  H   UNL     1     -42.836  60.095 -53.648  1.00  0.00     0.280 HD
HETATM    7  C   UNL     1     -42.049  59.851 -51.739  1.00  0.00     0.236 C 
HETATM    8  C   UNL     1     -41.401  58.718 -50.956  1.00  0.00     0.034 C 
HETATM    9  C   UNL     1     -40.888  57.634 -51.922  1.00  0.00     0.014 C 
HETATM   10  C   UNL     1     -40.041  58.325 -53.013  1.00  0.00     0.034 C 
HETATM   11  C   UNL     1     -40.896  59.304 -53.831  1.00  0.00     0.236 C 
HETATM   12  C   UNL     1     -44.406  57.837 -52.804  1.00  0.00     0.070 C 
HETATM   13  C   UNL     1     -44.370  56.489 -52.065  1.00  0.00     0.138 C 
HETATM   14  O   UNL     1     -43.522  54.596 -50.202  1.00  0.00    -0.267 OA
ENDROOT
BRANCH   1  15
HETATM   15  C   UNL     1     -41.631  54.235 -51.513  1.00  0.00     0.090 C 
HETATM   16  C   UNL     1     -41.363  53.618 -52.760  1.00  0.00     0.080 C 
HETATM   17  N   UNL     1     -40.224  52.911 -52.703  1.00  0.00    -0.132 NA
HETATM   18  O   UNL     1     -39.658  53.193 -51.479  1.00  0.00    -0.217 OA
HETATM   19  C   UNL     1     -40.482  54.014 -50.783  1.00  0.00     0.092 C 
HETATM   20  C   UNL     1     -39.994  54.488 -49.472  1.00  0.00     0.080 C 
BRANCH  16  21
HETATM   21  C   UNL     1     -42.156  53.632 -54.022  1.00  0.00     0.058 C 
HETATM   22  C   UNL     1     -41.446  54.330 -55.173  1.00  0.00     0.011 C 
ENDBRANCH  16  21
ENDBRANCH   1  15
BRANCH  12  23
HETATM   23  C   UNL     1     -45.067  58.983 -52.073  1.00  0.00    -0.048 A 
HETATM   24  C   UNL     1     -45.082  58.972 -50.664  1.00  0.00     0.044 A 
HETATM   25  C   UNL     1     -45.710  59.998 -49.962  1.00  0.00     0.066 A 
HETATM   26  C   UNL     1     -46.322  61.049 -50.629  1.00  0.00     0.036 A 
HETATM   27  C   UNL     1     -46.285  61.095 -52.019  1.00  0.00     0.003 A 
HETATM   28  C   UNL     1     -45.661  60.071 -52.737  1.00  0.00     0.008 A 
BRANCH  25  29
HETATM   29  O   UNL     1     -45.756  59.997 -48.602  1.00  0.00    -0.361 OA
HETATM   30  H   UNL     1     -45.306  60.787 -48.261  1.00  0.00     0.217 HD
ENDBRANCH  25  29
ENDBRANCH  12  23
TORSDOF 4
ENDMDL
MODEL 3
REMARK VINA RESULT:      -7.4      1.897      6.657
REMARK  4 active torsions:
REMARK  status: ('A' for Active; 'I' for Inactive)
REMARK    1  A    between atoms: C_2  and  C_3 
REMARK    2  A    between atoms: C_8  and  C_9 
REMARK       I    between atoms: C_9  and  N_10 
REMARK    3  A    between atoms: C_20  and  C_21 
REMARK    4  A    between atoms: C_23  and  O_24 
ROOT
HETATM    1  C   UNL     1     -36.313  41.151 -52.976  1.00  0.00     0.258 C 
HETATM    2  N   UNL     1     -36.352  40.468 -54.196  1.00  0.00    -0.340 N 
HETATM    3  C   UNL     1     -35.643  39.244 -54.540  1.00  0.00     0.123 C 
HETATM    4  C   UNL     1     -36.273  38.759 -55.874  1.00  0.00     0.221 C 
HETATM    5  N   UNL     1     -35.157  38.519 -56.903  1.00  0.00    -0.064 N 
HETATM    6  H   UNL     1     -35.570  38.183 -57.783  1.00  0.00     0.280 HD
HETATM    7  C   UNL     1     -34.296  39.730 -57.232  1.00  0.00     0.236 C 
HETATM    8  C   UNL     1     -33.849  40.370 -55.925  1.00  0.00     0.034 C 
HETATM    9  C   UNL     1     -34.119  39.414 -54.749  1.00  0.00     0.014 C 
HETATM   10  C   UNL     1     -33.529  38.033 -55.108  1.00  0.00     0.034 C 
HETATM   11  C   UNL     1     -34.222  37.446 -56.347  1.00  0.00     0.236 C 
HETATM   12  C   UNL     1     -37.418  39.749 -56.232  1.00  0.00     0.070 C 
HETATM   13  C   UNL     1     -37.592  40.577 -54.948  1.00  0.00     0.138 C 
HETATM   14  O   UNL     1     -36.853  42.243 -52.840  1.00  0.00    -0.267 OA
ENDROOT
BRANCH   1  15
HETATM   15  C   UNL     1     -35.797  40.422 -51.844  1.00  0.00     0.090 C 
HETATM   16  C   UNL     1     -34.547  40.446 -51.178  1.00  0.00     0.080 C 
HETATM   17  N   UNL     1     -34.509  39.520 -50.207  1.00  0.00    -0.132 NA
HETATM   18  O   UNL     1     -35.782  39.001 -50.122  1.00  0.00    -0.217 OA
HETATM   19  C   UNL     1     -36.561  39.567 -51.077  1.00  0.00     0.092 C 
HETATM   20  C   UNL     1     -37.987  39.185 -51.081  1.00  0.00     0.080 C 
BRANCH  16  21
HETATM   21  C   UNL     1     -33.346  41.292 -51.433  1.00  0.00     0.058 C 
HETATM   22  C   UNL     1     -32.064  40.487 -51.596  1.00  0.00     0.011 C 
ENDBRANCH  16  21
ENDBRANCH   1  15
BRANCH  12  23
HETATM   23  C   UNL     1     -37.337  40.528 -57.525  1.00  0.00    -0.048 A 
HETATM   24  C   UNL     1     -37.519  39.845 -58.743  1.00  0.00     0.044 A 
HETATM   25  C   UNL     1     -37.418  40.529 -59.952  1.00  0.00     0.066 A 
HETATM   26  C   UNL     1     -37.149  41.889 -59.983  1.00  0.00     0.036 A 
HETATM   27  C   UNL     1     -37.002  42.587 -58.788  1.00  0.00     0.003 A 
HETATM   28  C   UNL     1     -37.097  41.913 -57.568  1.00  0.00     0.008 A 
BRANCH  25  29
HETATM   29  O   UNL     1     -37.568  39.885 -61.142  1.00  0.00    -0.361 OA
HETATM   30  H   UNL     1     -38.305  39.254 -61.079  1.00  0.00     0.217 HD
ENDBRANCH  25  29
ENDBRANCH  12  23
TORSDOF 4
ENDMDL
MODEL 4
REMARK VINA RESULT:      -7.2     17.635     19.289
REMARK  4 active torsions:
REMARK  status: ('A' for Active; 'I' for Inactive)
REMARK    1  A    between atoms: C_2  and  C_3 
REMARK    2  A    between atoms: C_8  and  C_9 
REMARK       I    between atoms: C_9  and  N_10 
REMARK    3  A    between atoms: C_20  and  C_21 
REMARK    4  A    between atoms: C_23  and  O_24 
ROOT
HETATM    1  C   UNL     1     -43.333  55.282 -51.332  1.00  0.00     0.258 C 
HETATM    2  N   UNL     1     -43.443  56.591 -51.815  1.00  0.00    -0.340 N 
HETATM    3  C   UNL     1     -42.508  57.285 -52.688  1.00  0.00     0.123 C 
HETATM    4  C   UNL     1     -43.251  58.565 -53.159  1.00  0.00     0.221 C 
HETATM    5  N   UNL     1     -42.368  59.792 -52.885  1.00  0.00    -0.064 N 
HETATM    6  H   UNL     1     -42.850  60.640 -53.210  1.00  0.00     0.280 HD
HETATM    7  C   UNL     1     -41.983  60.012 -51.429  1.00  0.00     0.236 C 
HETATM    8  C   UNL     1     -41.461  58.697 -50.867  1.00  0.00     0.034 C 
HETATM    9  C   UNL     1     -41.181  57.707 -52.012  1.00  0.00     0.014 C 
HETATM   10  C   UNL     1     -40.315  58.427 -53.068  1.00  0.00     0.034 C 
HETATM   11  C   UNL     1     -41.067  59.625 -53.668  1.00  0.00     0.236 C 
HETATM   12  C   UNL     1     -44.680  58.522 -52.548  1.00  0.00     0.070 C 
HETATM   13  C   UNL     1     -44.796  57.087 -52.005  1.00  0.00     0.138 C 
HETATM   14  O   UNL     1     -44.119  54.842 -50.499  1.00  0.00    -0.267 OA
ENDROOT
BRANCH   1  15
HETATM   15  C   UNL     1     -42.394  54.421 -52.007  1.00  0.00     0.090 C 
HETATM   16  C   UNL     1     -41.279  53.675 -51.551  1.00  0.00     0.080 C 
HETATM   17  N   UNL     1     -40.658  53.075 -52.578  1.00  0.00    -0.132 NA
HETATM   18  O   UNL     1     -41.454  53.285 -53.682  1.00  0.00    -0.217 OA
HETATM   19  C   UNL     1     -42.511  54.059 -53.333  1.00  0.00     0.092 C 
HETATM   20  C   UNL     1     -43.517  54.321 -54.381  1.00  0.00     0.080 C 
BRANCH  16  21
HETATM   21  C   UNL     1     -40.734  53.521 -50.172  1.00  0.00     0.058 C 
HETATM   22  C   UNL     1     -40.031  54.769 -49.658  1.00  0.00     0.011 C 
ENDBRANCH  16  21
ENDBRANCH   1  15
BRANCH  12  23
HETATM   23  C   UNL     1     -45.112  59.628 -51.613  1.00  0.00    -0.048 A 
HETATM   24  C   UNL     1     -45.206  59.355 -50.234  1.00  0.00     0.044 A 
HETATM   25  C   UNL     1     -45.631  60.344 -49.351  1.00  0.00     0.066 A 
HETATM   26  C   UNL     1     -45.960  61.613 -49.804  1.00  0.00     0.036 A 
HETATM   27  C   UNL     1     -45.839  61.911 -51.157  1.00  0.00     0.003 A 
HETATM   28  C   UNL     1     -45.416  60.928 -52.056  1.00  0.00     0.008 A 
BRANCH  25  29
HETATM   29  O   UNL     1     -45.750  60.096 -48.018  1.00  0.00    -0.361 OA
HETATM   30  H   UNL     1     -44.917  60.320 -47.570  1.00  0.00     0.217 HD
ENDBRANCH  25  29
ENDBRANCH  12  23
TORSDOF 4
ENDMDL
MODEL 5
REMARK VINA RESULT:      -7.2     16.458     18.924
REMARK  4 active torsions:
REMARK  status: ('A' for Active; 'I' for Inactive)
REMARK    1  A    between atoms: C_2  and  C_3 
REMARK    2  A    between atoms: C_8  and  C_9 
REMARK       I    between atoms: C_9  and  N_10 
REMARK    3  A    between atoms: C_20  and  C_21 
REMARK    4  A    between atoms: C_23  and  O_24 
ROOT
HETATM    1  C   UNL     1     -42.955  54.747 -54.612  1.00  0.00     0.258 C 
HETATM    2  N   UNL     1     -42.849  56.112 -54.899  1.00  0.00    -0.340 N 
HETATM    3  C   UNL     1     -42.230  57.138 -54.072  1.00  0.00     0.123 C 
HETATM    4  C   UNL     1     -42.110  58.390 -54.983  1.00  0.00     0.221 C 
HETATM    5  N   UNL     1     -42.739  59.596 -54.270  1.00  0.00    -0.064 N 
HETATM    6  H   UNL     1     -42.646  60.431 -54.864  1.00  0.00     0.280 HD
HETATM    7  C   UNL     1     -44.210  59.451 -53.907  1.00  0.00     0.236 C 
HETATM    8  C   UNL     1     -44.401  58.112 -53.210  1.00  0.00     0.034 C 
HETATM    9  C   UNL     1     -43.036  57.524 -52.809  1.00  0.00     0.014 C 
HETATM   10  C   UNL     1     -42.247  58.617 -52.054  1.00  0.00     0.034 C 
HETATM   11  C   UNL     1     -41.979  59.825 -52.964  1.00  0.00     0.236 C 
HETATM   12  C   UNL     1     -42.641  57.992 -56.389  1.00  0.00     0.070 C 
HETATM   13  C   UNL     1     -42.763  56.461 -56.309  1.00  0.00     0.138 C 
HETATM   14  O   UNL     1     -43.610  53.995 -55.326  1.00  0.00    -0.267 OA
ENDROOT
BRANCH   1  15
HETATM   15  C   UNL     1     -42.097  54.237 -53.572  1.00  0.00     0.090 C 
HETATM   16  C   UNL     1     -42.334  53.887 -52.219  1.00  0.00     0.080 C 
HETATM   17  N   UNL     1     -41.191  53.524 -51.616  1.00  0.00    -0.132 NA
HETATM   18  O   UNL     1     -40.234  53.475 -52.605  1.00  0.00    -0.217 OA
HETATM   19  C   UNL     1     -40.784  53.866 -53.782  1.00  0.00     0.092 C 
HETATM   20  C   UNL     1     -39.918  53.797 -54.975  1.00  0.00     0.080 C 
BRANCH  16  21
HETATM   21  C   UNL     1     -43.603  53.908 -51.437  1.00  0.00     0.058 C 
HETATM   22  C   UNL     1     -43.593  54.917 -50.298  1.00  0.00     0.011 C 
ENDBRANCH  16  21
ENDBRANCH   1  15
BRANCH  12  23
HETATM   23  C   UNL     1     -43.833  58.729 -56.958  1.00  0.00    -0.048 A 
HETATM   24  C   UNL     1     -45.108  58.138 -56.860  1.00  0.00     0.044 A 
HETATM   25  C   UNL     1     -46.220  58.777 -57.401  1.00  0.00     0.066 A 
HETATM   26  C   UNL     1     -46.100  60.004 -58.037  1.00  0.00     0.036 A 
HETATM   27  C   UNL     1     -44.854  60.619 -58.112  1.00  0.00     0.003 A 
HETATM   28  C   UNL     1     -43.728  59.988 -57.575  1.00  0.00     0.008 A 
BRANCH  25  29
HETATM   29  O   UNL     1     -47.458  58.214 -57.338  1.00  0.00    -0.361 OA
HETATM   30  H   UNL     1     -48.103  58.799 -57.768  1.00  0.00     0.217 HD
ENDBRANCH  25  29
ENDBRANCH  12  23
TORSDOF 4
ENDMDL
MODEL 6
REMARK VINA RESULT:      -7.2     16.700     18.827
REMARK  4 active torsions:
REMARK  status: ('A' for Active; 'I' for Inactive)
REMARK    1  A    between atoms: C_2  and  C_3 
REMARK    2  A    between atoms: C_8  and  C_9 
REMARK       I    between atoms: C_9  and  N_10 
REMARK    3  A    between atoms: C_20  and  C_21 
REMARK    4  A    between atoms: C_23  and  O_24 
ROOT
HETATM    1  C   UNL     1     -42.552  54.869 -53.390  1.00  0.00     0.258 C 
HETATM    2  N   UNL     1     -42.168  56.208 -53.523  1.00  0.00    -0.340 N 
HETATM    3  C   UNL     1     -41.238  56.943 -52.677  1.00  0.00     0.123 C 
HETATM    4  C   UNL     1     -40.938  58.263 -53.438  1.00  0.00     0.221 C 
HETATM    5  N   UNL     1     -41.185  59.454 -52.501  1.00  0.00    -0.064 N 
HETATM    6  H   UNL     1     -40.971  60.330 -52.996  1.00  0.00     0.280 HD
HETATM    7  C   UNL     1     -42.597  59.572 -51.946  1.00  0.00     0.236 C 
HETATM    8  C   UNL     1     -43.011  58.215 -51.395  1.00  0.00     0.034 C 
HETATM    9  C   UNL     1     -41.781  57.297 -51.272  1.00  0.00     0.014 C 
HETATM   10  C   UNL     1     -40.679  58.071 -50.515  1.00  0.00     0.034 C 
HETATM   11  C   UNL     1     -40.246  59.317 -51.302  1.00  0.00     0.236 C 
HETATM   12  C   UNL     1     -41.706  58.203 -54.789  1.00  0.00     0.070 C 
HETATM   13  C   UNL     1     -42.168  56.739 -54.877  1.00  0.00     0.138 C 
HETATM   14  O   UNL     1     -43.441  54.390 -54.085  1.00  0.00    -0.267 OA
ENDROOT
BRANCH   1  15
HETATM   15  C   UNL     1     -41.720  54.038 -52.556  1.00  0.00     0.090 C 
HETATM   16  C   UNL     1     -41.718  53.775 -51.163  1.00  0.00     0.080 C 
HETATM   17  N   UNL     1     -40.690  52.979 -50.833  1.00  0.00    -0.132 NA
HETATM   18  O   UNL     1     -40.114  52.584 -52.020  1.00  0.00    -0.217 OA
HETATM   19  C   UNL     1     -40.753  53.188 -53.052  1.00  0.00     0.092 C 
HETATM   20  C   UNL     1     -40.318  52.816 -54.412  1.00  0.00     0.080 C 
BRANCH  16  21
HETATM   21  C   UNL     1     -42.635  54.272 -50.097  1.00  0.00     0.058 C 
HETATM   22  C   UNL     1     -44.088  54.354 -50.542  1.00  0.00     0.011 C 
ENDBRANCH  16  21
ENDBRANCH   1  15
BRANCH  12  23
HETATM   23  C   UNL     1     -42.753  59.254 -55.084  1.00  0.00    -0.048 A 
HETATM   24  C   UNL     1     -42.335  60.536 -55.489  1.00  0.00     0.044 A 
HETATM   25  C   UNL     1     -43.274  61.534 -55.738  1.00  0.00     0.066 A 
HETATM   26  C   UNL     1     -44.632  61.287 -55.601  1.00  0.00     0.036 A 
HETATM   27  C   UNL     1     -45.064  60.016 -55.236  1.00  0.00     0.003 A 
HETATM   28  C   UNL     1     -44.134  59.005 -54.981  1.00  0.00     0.008 A 
BRANCH  25  29
HETATM   29  O   UNL     1     -42.892  62.786 -56.109  1.00  0.00    -0.361 OA
HETATM   30  H   UNL     1     -42.514  63.251 -55.344  1.00  0.00     0.217 HD
ENDBRANCH  25  29
ENDBRANCH  12  23
TORSDOF 4
ENDMDL
MODEL 7
REMARK VINA RESULT:      -7.1     16.767     18.839
REMARK  4 active torsions:
REMARK  status: ('A' for Active; 'I' for Inactive)
REMARK    1  A    between atoms: C_2  and  C_3 
REMARK    2  A    between atoms: C_8  and  C_9 
REMARK       I    between atoms: C_9  and  N_10 
REMARK    3  A    between atoms: C_20  and  C_21 
REMARK    4  A    between atoms: C_23  and  O_24 
ROOT
HETATM    1  C   UNL     1     -42.975  54.987 -53.481  1.00  0.00     0.258 C 
HETATM    2  N   UNL     1     -42.504  56.295 -53.633  1.00  0.00    -0.340 N 
HETATM    3  C   UNL     1     -41.432  56.935 -52.884  1.00  0.00     0.123 C 
HETATM    4  C   UNL     1     -41.114  58.247 -53.652  1.00  0.00     0.221 C 
HETATM    5  N   UNL     1     -41.163  59.430 -52.673  1.00  0.00    -0.064 N 
HETATM    6  H   UNL     1     -40.937  60.299 -53.175  1.00  0.00     0.280 HD
HETATM    7  C   UNL     1     -42.493  59.642 -51.964  1.00  0.00     0.236 C 
HETATM    8  C   UNL     1     -42.949  58.307 -51.393  1.00  0.00     0.034 C 
HETATM    9  C   UNL     1     -41.789  57.295 -51.422  1.00  0.00     0.014 C 
HETATM   10  C   UNL     1     -40.554  57.963 -50.779  1.00  0.00     0.034 C 
HETATM   11  C   UNL     1     -40.113  59.192 -51.588  1.00  0.00     0.236 C 
HETATM   12  C   UNL     1     -42.027  58.281 -54.910  1.00  0.00     0.070 C 
HETATM   13  C   UNL     1     -42.610  56.858 -54.970  1.00  0.00     0.138 C 
HETATM   14  O   UNL     1     -43.969  54.594 -54.081  1.00  0.00    -0.267 OA
ENDROOT
BRANCH   1  15
HETATM   15  C   UNL     1     -42.125  54.074 -52.758  1.00  0.00     0.090 C 
HETATM   16  C   UNL     1     -41.025  53.272 -53.152  1.00  0.00     0.080 C 
HETATM   17  N   UNL     1     -40.596  52.521 -52.127  1.00  0.00    -0.132 NA
HETATM   18  O   UNL     1     -41.297  52.944 -51.020  1.00  0.00    -0.217 OA
HETATM   19  C   UNL     1     -42.186  53.898 -51.391  1.00  0.00     0.092 C 
HETATM   20  C   UNL     1     -42.974  54.526 -50.312  1.00  0.00     0.080 C 
BRANCH  16  21
HETATM   21  C   UNL     1     -40.363  53.149 -54.482  1.00  0.00     0.058 C 
HETATM   22  C   UNL     1     -39.888  54.481 -55.045  1.00  0.00     0.011 C 
ENDBRANCH  16  21
ENDBRANCH   1  15
BRANCH  12  23
HETATM   23  C   UNL     1     -43.015  59.415 -55.070  1.00  0.00    -0.048 A 
HETATM   24  C   UNL     1     -42.541  60.675 -55.484  1.00  0.00     0.044 A 
HETATM   25  C   UNL     1     -43.421  61.747 -55.609  1.00  0.00     0.066 A 
HETATM   26  C   UNL     1     -44.773  61.597 -55.341  1.00  0.00     0.036 A 
HETATM   27  C   UNL     1     -45.264  60.351 -54.966  1.00  0.00     0.003 A 
HETATM   28  C   UNL     1     -44.393  59.266 -54.832  1.00  0.00     0.008 A 
BRANCH  25  29
HETATM   29  O   UNL     1     -42.982  62.979 -55.986  1.00  0.00    -0.361 OA
HETATM   30  H   UNL     1     -42.610  62.932 -56.883  1.00  0.00     0.217 HD
ENDBRANCH  25  29
ENDBRANCH  12  23
TORSDOF 4
ENDMDL
MODEL 8
REMARK VINA RESULT:      -7.1     16.984     18.653
REMARK  4 active torsions:
REMARK  status: ('A' for Active; 'I' for Inactive)
REMARK    1  A    between atoms: C_2  and  C_3 
REMARK    2  A    between atoms: C_8  and  C_9 
REMARK       I    between atoms: C_9  and  N_10 
REMARK    3  A    between atoms: C_20  and  C_21 
REMARK    4  A    between atoms: C_23  and  O_24 
ROOT
HETATM    1  C   UNL     1     -43.331  57.293 -56.363  1.00  0.00     0.258 C 
HETATM    2  N   UNL     1     -43.239  57.248 -54.967  1.00  0.00    -0.340 N 
HETATM    3  C   UNL     1     -43.269  58.377 -54.049  1.00  0.00     0.123 C 
HETATM    4  C   UNL     1     -43.446  57.759 -52.635  1.00  0.00     0.221 C 
HETATM    5  N   UNL     1     -42.353  58.304 -51.704  1.00  0.00    -0.064 N 
HETATM    6  H   UNL     1     -42.477  57.909 -50.762  1.00  0.00     0.280 HD
HETATM    7  C   UNL     1     -40.921  58.022 -52.136  1.00  0.00     0.236 C 
HETATM    8  C   UNL     1     -40.778  58.408 -53.601  1.00  0.00     0.034 C 
HETATM    9  C   UNL     1     -41.989  59.247 -54.049  1.00  0.00     0.014 C 
HETATM   10  C   UNL     1     -42.186  60.387 -53.025  1.00  0.00     0.034 C 
HETATM   11  C   UNL     1     -42.505  59.823 -51.632  1.00  0.00     0.236 C 
HETATM   12  C   UNL     1     -43.574  56.220 -52.816  1.00  0.00     0.070 C 
HETATM   13  C   UNL     1     -43.764  56.050 -54.333  1.00  0.00     0.138 C 
HETATM   14  O   UNL     1     -43.167  56.287 -57.044  1.00  0.00    -0.267 OA
ENDROOT
BRANCH   1  15
HETATM   15  C   UNL     1     -43.829  58.517 -56.938  1.00  0.00     0.090 C 
HETATM   16  C   UNL     1     -43.183  59.636 -57.518  1.00  0.00     0.080 C 
HETATM   17  N   UNL     1     -44.077  60.580 -57.852  1.00  0.00    -0.132 NA
HETATM   18  O   UNL     1     -45.319  60.021 -57.647  1.00  0.00    -0.217 OA
HETATM   19  C   UNL     1     -45.171  58.774 -57.135  1.00  0.00     0.092 C 
HETATM   20  C   UNL     1     -46.405  57.991 -56.927  1.00  0.00     0.080 C 
BRANCH  16  21
HETATM   21  C   UNL     1     -41.731  59.885 -57.751  1.00  0.00     0.058 C 
HETATM   22  C   UNL     1     -41.418  61.328 -58.119  1.00  0.00     0.011 C 
ENDBRANCH  16  21
ENDBRANCH   1  15
BRANCH  12  23
HETATM   23  C   UNL     1     -42.550  55.317 -52.165  1.00  0.00    -0.048 A 
HETATM   24  C   UNL     1     -42.566  55.170 -50.764  1.00  0.00     0.044 A 
HETATM   25  C   UNL     1     -41.616  54.372 -50.132  1.00  0.00     0.066 A 
HETATM   26  C   UNL     1     -40.647  53.701 -50.863  1.00  0.00     0.036 A 
HETATM   27  C   UNL     1     -40.638  53.806 -52.250  1.00  0.00     0.003 A 
HETATM   28  C   UNL     1     -41.583  54.606 -52.898  1.00  0.00     0.008 A 
BRANCH  25  29
HETATM   29  O   UNL     1     -41.599  54.233 -48.779  1.00  0.00    -0.361 OA
HETATM   30  H   UNL     1     -41.767  53.305 -48.545  1.00  0.00     0.217 HD
ENDBRANCH  25  29
ENDBRANCH  12  23
TORSDOF 4
ENDMDL
MODEL 9
REMARK VINA RESULT:      -6.9     15.581     17.443
REMARK  4 active torsions:
REMARK  status: ('A' for Active; 'I' for Inactive)
REMARK    1  A    between atoms: C_2  and  C_3 
REMARK    2  A    between atoms: C_8  and  C_9 
REMARK       I    between atoms: C_9  and  N_10 
REMARK    3  A    between atoms: C_20  and  C_21 
REMARK    4  A    between atoms: C_23  and  O_24 
ROOT
HETATM    1  C   UNL     1     -41.160  57.766 -53.120  1.00  0.00     0.258 C 
HETATM    2  N   UNL     1     -41.643  56.455 -53.036  1.00  0.00    -0.340 N 
HETATM    3  C   UNL     1     -42.842  56.005 -52.345  1.00  0.00     0.123 C 
HETATM    4  C   UNL     1     -43.074  54.546 -52.824  1.00  0.00     0.221 C 
HETATM    5  N   UNL     1     -43.224  53.629 -51.600  1.00  0.00    -0.064 N 
HETATM    6  H   UNL     1     -43.394  52.664 -51.914  1.00  0.00     0.280 HD
HETATM    7  C   UNL     1     -42.034  53.601 -50.652  1.00  0.00     0.236 C 
HETATM    8  C   UNL     1     -41.633  55.036 -50.343  1.00  0.00     0.034 C 
HETATM    9  C   UNL     1     -42.739  56.005 -50.801  1.00  0.00     0.014 C 
HETATM   10  C   UNL     1     -44.083  55.500 -50.232  1.00  0.00     0.034 C 
HETATM   11  C   UNL     1     -44.427  54.111 -50.791  1.00  0.00     0.236 C 
HETATM   12  C   UNL     1     -41.971  54.220 -53.870  1.00  0.00     0.070 C 
HETATM   13  C   UNL     1     -41.340  55.592 -54.166  1.00  0.00     0.138 C 
HETATM   14  O   UNL     1     -40.069  58.011 -53.623  1.00  0.00    -0.267 OA
ENDROOT
BRANCH   1  15
HETATM   15  C   UNL     1     -42.085  58.818 -52.783  1.00  0.00     0.090 C 
HETATM   16  C   UNL     1     -43.281  59.274 -53.391  1.00  0.00     0.080 C 
HETATM   17  N   UNL     1     -43.762  60.348 -52.745  1.00  0.00    -0.132 NA
HETATM   18  O   UNL     1     -42.982  60.500 -51.620  1.00  0.00    -0.217 OA
HETATM   19  C   UNL     1     -42.002  59.563 -51.624  1.00  0.00     0.092 C 
HETATM   20  C   UNL     1     -41.114  59.526 -50.445  1.00  0.00     0.080 C 
BRANCH  16  21
HETATM   21  C   UNL     1     -43.995  58.761 -54.595  1.00  0.00     0.058 C 
HETATM   22  C   UNL     1     -44.911  59.792 -55.238  1.00  0.00     0.011 C 
ENDBRANCH  16  21
ENDBRANCH   1  15
BRANCH  12  23
HETATM   23  C   UNL     1     -41.008  53.087 -53.593  1.00  0.00    -0.048 A 
HETATM   24  C   UNL     1     -41.128  51.897 -54.336  1.00  0.00     0.044 A 
HETATM   25  C   UNL     1     -40.277  50.824 -54.083  1.00  0.00     0.066 A 
HETATM   26  C   UNL     1     -39.295  50.906 -53.108  1.00  0.00     0.036 A 
HETATM   27  C   UNL     1     -39.139  52.087 -52.389  1.00  0.00     0.003 A 
HETATM   28  C   UNL     1     -39.988  53.171 -52.629  1.00  0.00     0.008 A 
BRANCH  25  29
HETATM   29  O   UNL     1     -40.389  49.657 -54.774  1.00  0.00    -0.361 OA
HETATM   30  H   UNL     1     -41.006  49.775 -55.515  1.00  0.00     0.217 HD
ENDBRANCH  25  29
ENDBRANCH  12  23
TORSDOF 4
ENDMDL
MODEL 10
REMARK VINA RESULT:      -6.9     16.404     18.825
REMARK  4 active torsions:
REMARK  status: ('A' for Active; 'I' for Inactive)
REMARK    1  A    between atoms: C_2  and  C_3 
REMARK    2  A    between atoms: C_8  and  C_9 
REMARK       I    between atoms: C_9  and  N_10 
REMARK    3  A    between atoms: C_20  and  C_21 
REMARK    4  A    between atoms: C_23  and  O_24 
ROOT
HETATM    1  C   UNL     1     -43.394  54.738 -53.808  1.00  0.00     0.258 C 
HETATM    2  N   UNL     1     -43.078  56.016 -54.284  1.00  0.00    -0.340 N 
HETATM    3  C   UNL     1     -42.232  57.009 -53.637  1.00  0.00     0.123 C 
HETATM    4  C   UNL     1     -41.968  58.095 -54.716  1.00  0.00     0.221 C 
HETATM    5  N   UNL     1     -42.326  59.474 -54.142  1.00  0.00    -0.064 N 
HETATM    6  H   UNL     1     -42.137  60.198 -54.848  1.00  0.00     0.280 HD
HETATM    7  C   UNL     1     -43.768  59.642 -53.686  1.00  0.00     0.236 C 
HETATM    8  C   UNL     1     -44.133  58.457 -52.804  1.00  0.00     0.034 C 
HETATM    9  C   UNL     1     -42.862  57.688 -52.398  1.00  0.00     0.014 C 
HETATM   10  C   UNL     1     -41.843  58.707 -51.842  1.00  0.00     0.034 C 
HETATM   11  C   UNL     1     -41.442  59.724 -52.921  1.00  0.00     0.236 C 
HETATM   12  C   UNL     1     -42.665  57.627 -56.025  1.00  0.00     0.070 C 
HETATM   13  C   UNL     1     -43.041  56.165 -55.730  1.00  0.00     0.138 C 
HETATM   14  O   UNL     1     -44.220  54.033 -54.377  1.00  0.00    -0.267 OA
ENDROOT
BRANCH   1  15
HETATM   15  C   UNL     1     -42.560  54.217 -52.754  1.00  0.00     0.090 C 
HETATM   16  C   UNL     1     -41.247  53.683 -52.747  1.00  0.00     0.080 C 
HETATM   17  N   UNL     1     -40.918  53.252 -51.519  1.00  0.00    -0.132 NA
HETATM   18  O   UNL     1     -41.941  53.649 -50.686  1.00  0.00    -0.217 OA
HETATM   19  C   UNL     1     -42.905  54.258 -51.419  1.00  0.00     0.092 C 
HETATM   20  C   UNL     1     -44.048  54.823 -50.674  1.00  0.00     0.080 C 
BRANCH  16  21
HETATM   21  C   UNL     1     -40.276  53.523 -53.866  1.00  0.00     0.058 C 
HETATM   22  C   UNL     1     -40.259  52.120 -54.454  1.00  0.00     0.011 C 
ENDBRANCH  16  21
ENDBRANCH   1  15
BRANCH  12  23
HETATM   23  C   UNL     1     -43.753  58.489 -56.625  1.00  0.00    -0.048 A 
HETATM   24  C   UNL     1     -45.089  58.050 -56.547  1.00  0.00     0.044 A 
HETATM   25  C   UNL     1     -46.109  58.806 -57.118  1.00  0.00     0.066 A 
HETATM   26  C   UNL     1     -45.836  60.003 -57.764  1.00  0.00     0.036 A 
HETATM   27  C   UNL     1     -44.526  60.469 -57.820  1.00  0.00     0.003 A 
HETATM   28  C   UNL     1     -43.491  59.720 -57.254  1.00  0.00     0.008 A 
BRANCH  25  29
HETATM   29  O   UNL     1     -47.405  58.391 -57.073  1.00  0.00    -0.361 OA
HETATM   30  H   UNL     1     -47.699  58.342 -56.148  1.00  0.00     0.217 HD
ENDBRANCH  25  29
ENDBRANCH  12  23
TORSDOF 4
ENDMDL
