MODEL 1
REMARK VINA RESULT:      -9.0      0.000      0.000
REMARK  6 active torsions:
REMARK  status: ('A' for Active; 'I' for Inactive)
REMARK    1  A    between atoms: C_2  and  C_3 
REMARK    2  A    between atoms: C_3  and  C_4 
REMARK    3  A    between atoms: C_3  and  C_10 
REMARK    4  A    between atoms: C_10  and  C_11 
REMARK       I    between atoms: C_11  and  N_12 
REMARK    5  A    between atoms: N_12  and  C_13 
REMARK    6  A    between atoms: C_20  and  C_21 
REMARK       I    between atoms: C_21  and  N_22 
ROOT
HETATM    1  C   UNL     1     -42.510  56.324 -56.838  1.00  0.00     0.035 A 
HETATM    2  C   UNL     1     -43.176  55.689 -57.895  1.00  0.00     0.046 A 
HETATM    3  C   UNL     1     -44.050  56.434 -58.717  1.00  0.00     0.030 A 
HETATM    4  C   UNL     1     -44.243  57.782 -58.442  1.00  0.00     0.063 A 
HETATM    5  N   UNL     1     -45.134  58.219 -59.381  1.00  0.00    -0.277 N 
HETATM    6  H   UNL     1     -45.511  59.154 -59.480  1.00  0.00     0.189 HD
HETATM    7  N   UNL     1     -45.520  57.282 -60.262  1.00  0.00    -0.168 NA
HETATM    8  C   UNL     1     -44.854  56.172 -59.867  1.00  0.00     0.156 A 
HETATM    9  C   UNL     1     -43.601  58.445 -57.394  1.00  0.00     0.034 A 
HETATM   10  C   UNL     1     -42.722  57.688 -56.607  1.00  0.00     0.032 A 
ENDROOT
BRANCH   1  11
HETATM   11  N   UNL     1     -41.591  55.669 -55.989  1.00  0.00    -0.327 N 
HETATM   12  C   UNL     1     -41.791  54.501 -55.277  1.00  0.00     0.223 C 
HETATM   13  O   UNL     1     -42.846  53.884 -55.177  1.00  0.00    -0.273 OA
HETATM   14  H   UNL     1     -40.674  56.094 -55.919  1.00  0.00     0.169 HD
BRANCH  12  15
HETATM   15  C   UNL     1     -40.538  53.995 -54.583  1.00  0.00     0.116 C 
BRANCH  15  16
HETATM   16  C   UNL     1     -40.792  52.871 -53.561  1.00  0.00     0.049 C 
BRANCH  16  17
HETATM   17  C   UNL     1     -39.796  51.733 -53.665  1.00  0.00    -0.027 C 
HETATM   18  C   UNL     1     -40.035  50.568 -54.285  1.00  0.00     0.007 C 
ENDBRANCH  16  17
BRANCH  16  19
HETATM   19  C   UNL     1     -40.958  53.402 -52.142  1.00  0.00    -0.050 A 
HETATM   20  C   UNL     1     -42.168  53.941 -51.677  1.00  0.00     0.008 A 
HETATM   21  C   UNL     1     -42.291  54.394 -50.361  1.00  0.00     0.001 A 
HETATM   22  C   UNL     1     -41.205  54.322 -49.493  1.00  0.00     0.000 A 
HETATM   23  C   UNL     1     -39.996  53.794 -49.936  1.00  0.00     0.001 A 
HETATM   24  C   UNL     1     -39.874  53.333 -51.249  1.00  0.00     0.008 A 
ENDBRANCH  16  19
ENDBRANCH  15  16
ENDBRANCH  12  15
ENDBRANCH   1  11
BRANCH   8  25
HETATM   25  C   UNL     1     -44.988  54.904 -60.598  1.00  0.00     0.270 C 
HETATM   26  N   UNL     1     -45.207  53.817 -59.794  1.00  0.00    -0.365 N 
HETATM   27  H   UNL     1     -45.276  53.959 -58.794  1.00  0.00     0.159 HD
HETATM   28  H   UNL     1     -45.337  52.909 -60.212  1.00  0.00     0.159 HD
HETATM   29  O   UNL     1     -44.928  54.788 -61.816  1.00  0.00    -0.266 OA
ENDBRANCH   8  25
TORSDOF 6
ENDMDL
MODEL 2
REMARK VINA RESULT:      -8.9      0.939      2.556
REMARK  6 active torsions:
REMARK  status: ('A' for Active; 'I' for Inactive)
REMARK    1  A    between atoms: C_2  and  C_3 
REMARK    2  A    between atoms: C_3  and  C_4 
REMARK    3  A    between atoms: C_3  and  C_10 
REMARK    4  A    between atoms: C_10  and  C_11 
REMARK       I    between atoms: C_11  and  N_12 
REMARK    5  A    between atoms: N_12  and  C_13 
REMARK    6  A    between atoms: C_20  and  C_21 
REMARK       I    between atoms: C_21  and  N_22 
ROOT
HETATM    1  C   UNL     1     -42.636  56.416 -56.917  1.00  0.00     0.035 A 
HETATM    2  C   UNL     1     -43.248  55.746 -57.986  1.00  0.00     0.046 A 
HETATM    3  C   UNL     1     -44.223  56.412 -58.760  1.00  0.00     0.030 A 
HETATM    4  C   UNL     1     -44.569  57.716 -58.427  1.00  0.00     0.063 A 
HETATM    5  N   UNL     1     -45.528  58.078 -59.330  1.00  0.00    -0.277 N 
HETATM    6  H   UNL     1     -46.016  58.964 -59.384  1.00  0.00     0.189 HD
HETATM    7  N   UNL     1     -45.820  57.136 -60.241  1.00  0.00    -0.168 NA
HETATM    8  C   UNL     1     -45.018  56.100 -59.904  1.00  0.00     0.156 A 
HETATM    9  C   UNL     1     -43.985  58.411 -57.365  1.00  0.00     0.034 A 
HETATM   10  C   UNL     1     -43.004  57.736 -56.627  1.00  0.00     0.032 A 
ENDROOT
BRANCH   1  11
HETATM   11  N   UNL     1     -41.626  55.844 -56.113  1.00  0.00    -0.327 N 
HETATM   12  C   UNL     1     -41.663  54.629 -55.456  1.00  0.00     0.223 C 
HETATM   13  O   UNL     1     -42.630  53.880 -55.370  1.00  0.00    -0.273 OA
HETATM   14  H   UNL     1     -40.768  56.378 -56.035  1.00  0.00     0.169 HD
BRANCH  12  15
HETATM   15  C   UNL     1     -40.343  54.255 -54.804  1.00  0.00     0.116 C 
BRANCH  15  16
HETATM   16  C   UNL     1     -40.470  53.792 -53.341  1.00  0.00     0.049 C 
BRANCH  16  17
HETATM   17  C   UNL     1     -41.777  54.208 -52.694  1.00  0.00    -0.027 C 
HETATM   18  C   UNL     1     -41.874  54.831 -51.511  1.00  0.00     0.007 C 
ENDBRANCH  16  17
BRANCH  16  19
HETATM   19  C   UNL     1     -40.156  52.310 -53.169  1.00  0.00    -0.050 A 
HETATM   20  C   UNL     1     -39.731  51.767 -51.946  1.00  0.00     0.008 A 
HETATM   21  C   UNL     1     -39.477  50.399 -51.820  1.00  0.00     0.001 A 
HETATM   22  C   UNL     1     -39.634  49.555 -52.916  1.00  0.00     0.000 A 
HETATM   23  C   UNL     1     -40.051  50.075 -54.137  1.00  0.00     0.001 A 
HETATM   24  C   UNL     1     -40.314  51.440 -54.263  1.00  0.00     0.008 A 
ENDBRANCH  16  19
ENDBRANCH  15  16
ENDBRANCH  12  15
ENDBRANCH   1  11
BRANCH   8  25
HETATM   25  C   UNL     1     -45.017  54.853 -60.683  1.00  0.00     0.270 C 
HETATM   26  N   UNL     1     -45.162  53.722 -59.926  1.00  0.00    -0.365 N 
HETATM   27  H   UNL     1     -45.271  53.819 -58.924  1.00  0.00     0.159 HD
HETATM   28  H   UNL     1     -45.198  52.822 -60.379  1.00  0.00     0.159 HD
HETATM   29  O   UNL     1     -44.911  54.789 -61.902  1.00  0.00    -0.266 OA
ENDBRANCH   8  25
TORSDOF 6
ENDMDL
MODEL 3
REMARK VINA RESULT:      -8.6      1.941      3.351
REMARK  6 active torsions:
REMARK  status: ('A' for Active; 'I' for Inactive)
REMARK    1  A    between atoms: C_2  and  C_3 
REMARK    2  A    between atoms: C_3  and  C_4 
REMARK    3  A    between atoms: C_3  and  C_10 
REMARK    4  A    between atoms: C_10  and  C_11 
REMARK       I    between atoms: C_11  and  N_12 
REMARK    5  A    between atoms: N_12  and  C_13 
REMARK    6  A    between atoms: C_20  and  C_21 
REMARK       I    between atoms: C_21  and  N_22 
ROOT
HETATM    1  C   UNL     1     -43.329  56.036 -55.074  1.00  0.00     0.035 A 
HETATM    2  C   UNL     1     -43.029  55.967 -56.442  1.00  0.00     0.046 A 
HETATM    3  C   UNL     1     -43.464  56.997 -57.304  1.00  0.00     0.030 A 
HETATM    4  C   UNL     1     -44.200  58.050 -56.774  1.00  0.00     0.063 A 
HETATM    5  N   UNL     1     -44.482  58.864 -57.834  1.00  0.00    -0.277 N 
HETATM    6  H   UNL     1     -45.012  59.727 -57.821  1.00  0.00     0.189 HD
HETATM    7  N   UNL     1     -43.973  58.450 -59.006  1.00  0.00    -0.168 NA
HETATM    8  C   UNL     1     -43.336  57.298 -58.694  1.00  0.00     0.156 A 
HETATM    9  C   UNL     1     -44.521  58.148 -55.419  1.00  0.00     0.034 A 
HETATM   10  C   UNL     1     -44.059  57.124 -54.580  1.00  0.00     0.032 A 
ENDROOT
BRANCH   1  11
HETATM   11  N   UNL     1     -42.904  55.073 -54.132  1.00  0.00    -0.327 N 
HETATM   12  C   UNL     1     -41.819  55.155 -53.280  1.00  0.00     0.223 C 
HETATM   13  O   UNL     1     -40.969  56.039 -53.269  1.00  0.00    -0.273 OA
HETATM   14  H   UNL     1     -43.479  54.243 -54.059  1.00  0.00     0.169 HD
BRANCH  12  15
HETATM   15  C   UNL     1     -41.740  54.005 -52.290  1.00  0.00     0.116 C 
BRANCH  15  16
HETATM   16  C   UNL     1     -40.311  53.504 -52.016  1.00  0.00     0.049 C 
BRANCH  16  17
HETATM   17  C   UNL     1     -39.888  53.665 -50.569  1.00  0.00    -0.027 C 
HETATM   18  C   UNL     1     -40.200  54.717 -49.799  1.00  0.00     0.007 C 
ENDBRANCH  16  17
BRANCH  16  19
HETATM   19  C   UNL     1     -40.069  52.101 -52.564  1.00  0.00    -0.050 A 
HETATM   20  C   UNL     1     -40.192  51.795 -53.929  1.00  0.00     0.008 A 
HETATM   21  C   UNL     1     -39.938  50.504 -54.398  1.00  0.00     0.001 A 
HETATM   22  C   UNL     1     -39.566  49.499 -53.511  1.00  0.00     0.000 A 
HETATM   23  C   UNL     1     -39.442  49.782 -52.154  1.00  0.00     0.001 A 
HETATM   24  C   UNL     1     -39.687  51.074 -51.684  1.00  0.00     0.008 A 
ENDBRANCH  16  19
ENDBRANCH  15  16
ENDBRANCH  12  15
ENDBRANCH   1  11
BRANCH   8  25
HETATM   25  C   UNL     1     -42.615  56.525 -59.715  1.00  0.00     0.270 C 
HETATM   26  N   UNL     1     -41.369  57.010 -60.006  1.00  0.00    -0.365 N 
HETATM   27  H   UNL     1     -41.036  57.825 -59.507  1.00  0.00     0.159 HD
HETATM   28  H   UNL     1     -40.792  56.528 -60.677  1.00  0.00     0.159 HD
HETATM   29  O   UNL     1     -43.050  55.523 -60.272  1.00  0.00    -0.266 OA
ENDBRANCH   8  25
TORSDOF 6
ENDMDL
MODEL 4
REMARK VINA RESULT:      -8.3      3.907      5.985
REMARK  6 active torsions:
REMARK  status: ('A' for Active; 'I' for Inactive)
REMARK    1  A    between atoms: C_2  and  C_3 
REMARK    2  A    between atoms: C_3  and  C_4 
REMARK    3  A    between atoms: C_3  and  C_10 
REMARK    4  A    between atoms: C_10  and  C_11 
REMARK       I    between atoms: C_11  and  N_12 
REMARK    5  A    between atoms: N_12  and  C_13 
REMARK    6  A    between atoms: C_20  and  C_21 
REMARK       I    between atoms: C_21  and  N_22 
ROOT
HETATM    1  C   UNL     1     -43.829  56.873 -54.218  1.00  0.00     0.035 A 
HETATM    2  C   UNL     1     -44.118  57.518 -53.008  1.00  0.00     0.046 A 
HETATM    3  C   UNL     1     -44.875  58.710 -53.016  1.00  0.00     0.030 A 
HETATM    4  C   UNL     1     -45.300  59.227 -54.233  1.00  0.00     0.063 A 
HETATM    5  N   UNL     1     -45.984  60.368 -53.924  1.00  0.00    -0.277 N 
HETATM    6  H   UNL     1     -46.429  61.010 -54.568  1.00  0.00     0.189 HD
HETATM    7  N   UNL     1     -46.066  60.630 -52.609  1.00  0.00    -0.168 NA
HETATM    8  C   UNL     1     -45.388  59.610 -52.033  1.00  0.00     0.156 A 
HETATM    9  C   UNL     1     -45.025  58.614 -55.458  1.00  0.00     0.034 A 
HETATM   10  C   UNL     1     -44.291  57.421 -55.421  1.00  0.00     0.032 A 
ENDROOT
BRANCH   1  11
HETATM   11  N   UNL     1     -43.111  55.659 -54.304  1.00  0.00    -0.327 N 
HETATM   12  C   UNL     1     -41.744  55.484 -54.208  1.00  0.00     0.223 C 
HETATM   13  O   UNL     1     -40.902  56.373 -54.136  1.00  0.00    -0.273 OA
HETATM   14  H   UNL     1     -43.671  54.823 -54.423  1.00  0.00     0.169 HD
BRANCH  12  15
HETATM   15  C   UNL     1     -41.322  54.024 -54.193  1.00  0.00     0.116 C 
BRANCH  15  16
HETATM   16  C   UNL     1     -40.593  53.591 -52.909  1.00  0.00     0.049 C 
BRANCH  16  17
HETATM   17  C   UNL     1     -41.328  53.983 -51.643  1.00  0.00    -0.027 C 
HETATM   18  C   UNL     1     -40.830  54.787 -50.692  1.00  0.00     0.007 C 
ENDBRANCH  16  17
BRANCH  16  19
HETATM   19  C   UNL     1     -40.182  52.123 -52.940  1.00  0.00    -0.050 A 
HETATM   20  C   UNL     1     -39.759  51.435 -51.791  1.00  0.00     0.008 A 
HETATM   21  C   UNL     1     -39.414  50.083 -51.852  1.00  0.00     0.001 A 
HETATM   22  C   UNL     1     -39.479  49.400 -53.064  1.00  0.00     0.000 A 
HETATM   23  C   UNL     1     -39.893  50.065 -54.214  1.00  0.00     0.001 A 
HETATM   24  C   UNL     1     -40.245  51.415 -54.153  1.00  0.00     0.008 A 
ENDBRANCH  16  19
ENDBRANCH  15  16
ENDBRANCH  12  15
ENDBRANCH   1  11
BRANCH   8  25
HETATM   25  C   UNL     1     -45.259  59.510 -50.572  1.00  0.00     0.270 C 
HETATM   26  N   UNL     1     -44.118  60.077 -50.073  1.00  0.00    -0.365 N 
HETATM   27  H   UNL     1     -43.475  60.522 -50.715  1.00  0.00     0.159 HD
HETATM   28  H   UNL     1     -43.958  60.078 -49.077  1.00  0.00     0.159 HD
HETATM   29  O   UNL     1     -46.082  58.986 -49.831  1.00  0.00    -0.266 OA
ENDBRANCH   8  25
TORSDOF 6
ENDMDL
MODEL 5
REMARK VINA RESULT:      -8.2      1.890      2.798
REMARK  6 active torsions:
REMARK  status: ('A' for Active; 'I' for Inactive)
REMARK    1  A    between atoms: C_2  and  C_3 
REMARK    2  A    between atoms: C_3  and  C_4 
REMARK    3  A    between atoms: C_3  and  C_10 
REMARK    4  A    between atoms: C_10  and  C_11 
REMARK       I    between atoms: C_11  and  N_12 
REMARK    5  A    between atoms: N_12  and  C_13 
REMARK    6  A    between atoms: C_20  and  C_21 
REMARK       I    between atoms: C_21  and  N_22 
ROOT
HETATM    1  C   UNL     1     -43.047  56.238 -57.749  1.00  0.00     0.035 A 
HETATM    2  C   UNL     1     -44.023  57.231 -57.584  1.00  0.00     0.046 A 
HETATM    3  C   UNL     1     -44.892  57.539 -58.654  1.00  0.00     0.030 A 
HETATM    4  C   UNL     1     -44.742  56.861 -59.857  1.00  0.00     0.063 A 
HETATM    5  N   UNL     1     -45.698  57.378 -60.686  1.00  0.00    -0.277 N 
HETATM    6  H   UNL     1     -45.876  57.123 -61.650  1.00  0.00     0.189 HD
HETATM    7  N   UNL     1     -46.476  58.316 -60.122  1.00  0.00    -0.168 NA
HETATM    8  C   UNL     1     -45.993  58.424 -58.863  1.00  0.00     0.156 A 
HETATM    9  C   UNL     1     -43.778  55.871 -60.058  1.00  0.00     0.034 A 
HETATM   10  C   UNL     1     -42.943  55.568 -58.975  1.00  0.00     0.032 A 
ENDROOT
BRANCH   1  11
HETATM   11  N   UNL     1     -42.161  55.837 -56.725  1.00  0.00    -0.327 N 
HETATM   12  C   UNL     1     -42.324  54.791 -55.837  1.00  0.00     0.223 C 
HETATM   13  O   UNL     1     -43.324  54.091 -55.716  1.00  0.00    -0.273 OA
HETATM   14  H   UNL     1     -41.298  56.363 -56.657  1.00  0.00     0.169 HD
BRANCH  12  15
HETATM   15  C   UNL     1     -41.106  54.545 -54.963  1.00  0.00     0.116 C 
BRANCH  15  16
HETATM   16  C   UNL     1     -41.218  53.304 -54.059  1.00  0.00     0.049 C 
BRANCH  16  17
HETATM   17  C   UNL     1     -40.105  52.299 -54.283  1.00  0.00    -0.027 C 
HETATM   18  C   UNL     1     -40.274  50.969 -54.301  1.00  0.00     0.007 C 
ENDBRANCH  16  17
BRANCH  16  19
HETATM   19  C   UNL     1     -41.416  53.668 -52.592  1.00  0.00    -0.050 A 
HETATM   20  C   UNL     1     -40.369  53.627 -51.657  1.00  0.00     0.008 A 
HETATM   21  C   UNL     1     -40.583  53.992 -50.326  1.00  0.00     0.001 A 
HETATM   22  C   UNL     1     -41.848  54.397 -49.907  1.00  0.00     0.000 A 
HETATM   23  C   UNL     1     -42.899  54.441 -50.818  1.00  0.00     0.001 A 
HETATM   24  C   UNL     1     -42.685  54.084 -52.151  1.00  0.00     0.008 A 
ENDBRANCH  16  19
ENDBRANCH  15  16
ENDBRANCH  12  15
ENDBRANCH   1  11
BRANCH   8  25
HETATM   25  C   UNL     1     -46.595  59.350 -57.893  1.00  0.00     0.270 C 
HETATM   26  N   UNL     1     -47.777  58.910 -57.361  1.00  0.00    -0.365 N 
HETATM   27  H   UNL     1     -48.132  58.007 -57.649  1.00  0.00     0.159 HD
HETATM   28  H   UNL     1     -48.249  59.469 -56.668  1.00  0.00     0.159 HD
HETATM   29  O   UNL     1     -46.110  60.423 -57.554  1.00  0.00    -0.266 OA
ENDBRANCH   8  25
TORSDOF 6
ENDMDL
MODEL 6
REMARK VINA RESULT:      -8.1      2.828      4.662
REMARK  6 active torsions:
REMARK  status: ('A' for Active; 'I' for Inactive)
REMARK    1  A    between atoms: C_2  and  C_3 
REMARK    2  A    between atoms: C_3  and  C_4 
REMARK    3  A    between atoms: C_3  and  C_10 
REMARK    4  A    between atoms: C_10  and  C_11 
REMARK       I    between atoms: C_11  and  N_12 
REMARK    5  A    between atoms: N_12  and  C_13 
REMARK    6  A    between atoms: C_20  and  C_21 
REMARK       I    between atoms: C_21  and  N_22 
ROOT
HETATM    1  C   UNL     1     -42.118  55.470 -54.857  1.00  0.00     0.035 A 
HETATM    2  C   UNL     1     -41.993  56.865 -54.921  1.00  0.00     0.046 A 
HETATM    3  C   UNL     1     -42.383  57.547 -56.094  1.00  0.00     0.030 A 
HETATM    4  C   UNL     1     -42.866  56.811 -57.169  1.00  0.00     0.063 A 
HETATM    5  N   UNL     1     -43.142  57.730 -58.142  1.00  0.00    -0.277 N 
HETATM    6  H   UNL     1     -43.505  57.550 -59.070  1.00  0.00     0.189 HD
HETATM    7  N   UNL     1     -42.907  59.004 -57.788  1.00  0.00    -0.168 NA
HETATM    8  C   UNL     1     -42.441  58.908 -56.522  1.00  0.00     0.156 A 
HETATM    9  C   UNL     1     -42.999  55.421 -57.142  1.00  0.00     0.034 A 
HETATM   10  C   UNL     1     -42.626  54.770 -55.959  1.00  0.00     0.032 A 
ENDROOT
BRANCH   1  11
HETATM   11  N   UNL     1     -41.789  54.708 -53.714  1.00  0.00    -0.327 N 
HETATM   12  C   UNL     1     -42.448  54.691 -52.499  1.00  0.00     0.223 C 
HETATM   13  O   UNL     1     -43.377  55.420 -52.167  1.00  0.00    -0.273 OA
HETATM   14  H   UNL     1     -40.996  54.086 -53.811  1.00  0.00     0.169 HD
BRANCH  12  15
HETATM   15  C   UNL     1     -41.915  53.642 -51.538  1.00  0.00     0.116 C 
BRANCH  15  16
HETATM   16  C   UNL     1     -40.397  53.406 -51.639  1.00  0.00     0.049 C 
BRANCH  16  17
HETATM   17  C   UNL     1     -39.648  53.787 -50.377  1.00  0.00    -0.027 C 
HETATM   18  C   UNL     1     -40.114  54.623 -49.439  1.00  0.00     0.007 C 
ENDBRANCH  16  17
BRANCH  16  19
HETATM   19  C   UNL     1     -40.056  52.009 -52.146  1.00  0.00    -0.050 A 
HETATM   20  C   UNL     1     -39.815  50.932 -51.279  1.00  0.00     0.008 A 
HETATM   21  C   UNL     1     -39.531  49.659 -51.781  1.00  0.00     0.001 A 
HETATM   22  C   UNL     1     -39.476  49.447 -53.155  1.00  0.00     0.000 A 
HETATM   23  C   UNL     1     -39.709  50.503 -54.031  1.00  0.00     0.001 A 
HETATM   24  C   UNL     1     -40.002  51.773 -53.532  1.00  0.00     0.008 A 
ENDBRANCH  16  19
ENDBRANCH  15  16
ENDBRANCH  12  15
ENDBRANCH   1  11
BRANCH   8  25
HETATM   25  C   UNL     1     -42.079  60.106 -55.751  1.00  0.00     0.270 C 
HETATM   26  N   UNL     1     -42.395  61.285 -56.370  1.00  0.00    -0.365 N 
HETATM   27  H   UNL     1     -42.852  61.252 -57.272  1.00  0.00     0.159 HD
HETATM   28  H   UNL     1     -42.206  62.158 -55.902  1.00  0.00     0.159 HD
HETATM   29  O   UNL     1     -41.551  60.094 -54.644  1.00  0.00    -0.266 OA
ENDBRANCH   8  25
TORSDOF 6
ENDMDL
MODEL 7
REMARK VINA RESULT:      -7.9      2.357      4.123
REMARK  6 active torsions:
REMARK  status: ('A' for Active; 'I' for Inactive)
REMARK    1  A    between atoms: C_2  and  C_3 
REMARK    2  A    between atoms: C_3  and  C_4 
REMARK    3  A    between atoms: C_3  and  C_10 
REMARK    4  A    between atoms: C_10  and  C_11 
REMARK       I    between atoms: C_11  and  N_12 
REMARK    5  A    between atoms: N_12  and  C_13 
REMARK    6  A    between atoms: C_20  and  C_21 
REMARK       I    between atoms: C_21  and  N_22 
ROOT
HETATM    1  C   UNL     1     -42.685  56.087 -56.805  1.00  0.00     0.035 A 
HETATM    2  C   UNL     1     -42.378  57.442 -56.999  1.00  0.00     0.046 A 
HETATM    3  C   UNL     1     -42.588  58.030 -58.265  1.00  0.00     0.030 A 
HETATM    4  C   UNL     1     -43.076  57.241 -59.299  1.00  0.00     0.063 A 
HETATM    5  N   UNL     1     -43.158  58.071 -60.381  1.00  0.00    -0.277 N 
HETATM    6  H   UNL     1     -43.469  57.832 -61.315  1.00  0.00     0.189 HD
HETATM    7  N   UNL     1     -42.790  59.340 -60.139  1.00  0.00    -0.168 NA
HETATM    8  C   UNL     1     -42.439  59.332 -58.833  1.00  0.00     0.156 A 
HETATM    9  C   UNL     1     -43.387  55.888 -59.143  1.00  0.00     0.034 A 
HETATM   10  C   UNL     1     -43.191  55.334 -57.871  1.00  0.00     0.032 A 
ENDROOT
BRANCH   1  11
HETATM   11  N   UNL     1     -42.544  55.425 -55.566  1.00  0.00    -0.327 N 
HETATM   12  C   UNL     1     -43.392  55.492 -54.477  1.00  0.00     0.223 C 
HETATM   13  O   UNL     1     -44.366  56.229 -54.360  1.00  0.00    -0.273 OA
HETATM   14  H   UNL     1     -41.742  54.811 -55.482  1.00  0.00     0.169 HD
BRANCH  12  15
HETATM   15  C   UNL     1     -43.018  54.532 -53.360  1.00  0.00     0.116 C 
BRANCH  15  16
HETATM   16  C   UNL     1     -41.546  54.621 -52.917  1.00  0.00     0.049 C 
BRANCH  16  17
HETATM   17  C   UNL     1     -41.364  55.322 -51.586  1.00  0.00    -0.027 C 
HETATM   18  C   UNL     1     -42.350  55.551 -50.706  1.00  0.00     0.007 C 
ENDBRANCH  16  17
BRANCH  16  19
HETATM   19  C   UNL     1     -40.833  53.276 -52.996  1.00  0.00    -0.050 A 
HETATM   20  C   UNL     1     -40.115  52.740 -51.914  1.00  0.00     0.008 A 
HETATM   21  C   UNL     1     -39.495  51.493 -52.014  1.00  0.00     0.001 A 
HETATM   22  C   UNL     1     -39.576  50.765 -53.198  1.00  0.00     0.000 A 
HETATM   23  C   UNL     1     -40.281  51.280 -54.282  1.00  0.00     0.001 A 
HETATM   24  C   UNL     1     -40.908  52.523 -54.181  1.00  0.00     0.008 A 
ENDBRANCH  16  19
ENDBRANCH  15  16
ENDBRANCH  12  15
ENDBRANCH   1  11
BRANCH   8  25
HETATM   25  C   UNL     1     -41.987  60.557 -58.158  1.00  0.00     0.270 C 
HETATM   26  N   UNL     1     -42.886  61.587 -58.211  1.00  0.00    -0.365 N 
HETATM   27  H   UNL     1     -43.771  61.436 -58.677  1.00  0.00     0.159 HD
HETATM   28  H   UNL     1     -42.671  62.459 -57.752  1.00  0.00     0.159 HD
HETATM   29  O   UNL     1     -40.915  60.682 -57.577  1.00  0.00    -0.266 OA
ENDBRANCH   8  25
TORSDOF 6
ENDMDL
MODEL 8
REMARK VINA RESULT:      -7.9      2.855      4.314
REMARK  6 active torsions:
REMARK  status: ('A' for Active; 'I' for Inactive)
REMARK    1  A    between atoms: C_2  and  C_3 
REMARK    2  A    between atoms: C_3  and  C_4 
REMARK    3  A    between atoms: C_3  and  C_10 
REMARK    4  A    between atoms: C_10  and  C_11 
REMARK       I    between atoms: C_11  and  N_12 
REMARK    5  A    between atoms: N_12  and  C_13 
REMARK    6  A    between atoms: C_20  and  C_21 
REMARK       I    between atoms: C_21  and  N_22 
ROOT
HETATM    1  C   UNL     1     -44.128  56.878 -53.038  1.00  0.00     0.035 A 
HETATM    2  C   UNL     1     -44.348  57.002 -54.417  1.00  0.00     0.046 A 
HETATM    3  C   UNL     1     -44.893  58.199 -54.931  1.00  0.00     0.030 A 
HETATM    4  C   UNL     1     -45.218  59.222 -54.049  1.00  0.00     0.063 A 
HETATM    5  N   UNL     1     -45.727  60.223 -54.826  1.00  0.00    -0.277 N 
HETATM    6  H   UNL     1     -46.075  61.123 -54.517  1.00  0.00     0.189 HD
HETATM    7  N   UNL     1     -45.739  59.956 -56.142  1.00  0.00    -0.168 NA
HETATM    8  C   UNL     1     -45.222  58.708 -56.224  1.00  0.00     0.156 A 
HETATM    9  C   UNL     1     -45.018  59.129 -52.670  1.00  0.00     0.034 A 
HETATM   10  C   UNL     1     -44.455  57.940 -52.187  1.00  0.00     0.032 A 
ENDROOT
BRANCH   1  11
HETATM   11  N   UNL     1     -43.553  55.735 -52.440  1.00  0.00    -0.327 N 
HETATM   12  C   UNL     1     -42.220  55.371 -52.435  1.00  0.00     0.223 C 
HETATM   13  O   UNL     1     -41.313  55.928 -53.046  1.00  0.00    -0.273 OA
HETATM   14  H   UNL     1     -44.192  55.132 -51.935  1.00  0.00     0.169 HD
BRANCH  12  15
HETATM   15  C   UNL     1     -41.928  54.159 -51.567  1.00  0.00     0.116 C 
BRANCH  15  16
HETATM   16  C   UNL     1     -40.445  53.746 -51.538  1.00  0.00     0.049 C 
BRANCH  16  17
HETATM   17  C   UNL     1     -39.830  53.824 -50.155  1.00  0.00    -0.027 C 
HETATM   18  C   UNL     1     -40.504  54.141 -49.040  1.00  0.00     0.007 C 
ENDBRANCH  16  17
BRANCH  16  19
HETATM   19  C   UNL     1     -40.198  52.412 -52.235  1.00  0.00    -0.050 A 
HETATM   20  C   UNL     1     -40.363  52.244 -53.619  1.00  0.00     0.008 A 
HETATM   21  C   UNL     1     -40.102  51.013 -54.226  1.00  0.00     0.001 A 
HETATM   22  C   UNL     1     -39.681  49.931 -53.459  1.00  0.00     0.000 A 
HETATM   23  C   UNL     1     -39.514  50.077 -52.085  1.00  0.00     0.001 A 
HETATM   24  C   UNL     1     -39.766  51.308 -51.477  1.00  0.00     0.008 A 
ENDBRANCH  16  19
ENDBRANCH  15  16
ENDBRANCH  12  15
ENDBRANCH   1  11
BRANCH   8  25
HETATM   25  C   UNL     1     -45.041  58.042 -57.522  1.00  0.00     0.270 C 
HETATM   26  N   UNL     1     -43.735  57.782 -57.839  1.00  0.00    -0.365 N 
HETATM   27  H   UNL     1     -43.014  58.040 -57.177  1.00  0.00     0.159 HD
HETATM   28  H   UNL     1     -43.519  57.304 -58.699  1.00  0.00     0.159 HD
HETATM   29  O   UNL     1     -45.951  57.720 -58.277  1.00  0.00    -0.266 OA
ENDBRANCH   8  25
TORSDOF 6
ENDMDL
MODEL 9
REMARK VINA RESULT:      -7.8      5.126      6.875
REMARK  6 active torsions:
REMARK  status: ('A' for Active; 'I' for Inactive)
REMARK    1  A    between atoms: C_2  and  C_3 
REMARK    2  A    between atoms: C_3  and  C_4 
REMARK    3  A    between atoms: C_3  and  C_10 
REMARK    4  A    between atoms: C_10  and  C_11 
REMARK       I    between atoms: C_11  and  N_12 
REMARK    5  A    between atoms: N_12  and  C_13 
REMARK    6  A    between atoms: C_20  and  C_21 
REMARK       I    between atoms: C_21  and  N_22 
ROOT
HETATM    1  C   UNL     1     -42.312  57.593 -51.300  1.00  0.00     0.035 A 
HETATM    2  C   UNL     1     -43.415  58.403 -51.607  1.00  0.00     0.046 A 
HETATM    3  C   UNL     1     -43.386  59.775 -51.273  1.00  0.00     0.030 A 
HETATM    4  C   UNL     1     -42.267  60.285 -50.627  1.00  0.00     0.063 A 
HETATM    5  N   UNL     1     -42.536  61.610 -50.429  1.00  0.00    -0.277 N 
HETATM    6  H   UNL     1     -41.942  62.295 -49.976  1.00  0.00     0.189 HD
HETATM    7  N   UNL     1     -43.721  62.016 -50.912  1.00  0.00    -0.168 NA
HETATM    8  C   UNL     1     -44.258  60.893 -51.441  1.00  0.00     0.156 A 
HETATM    9  C   UNL     1     -41.155  59.506 -50.302  1.00  0.00     0.034 A 
HETATM   10  C   UNL     1     -41.199  58.153 -50.663  1.00  0.00     0.032 A 
ENDROOT
BRANCH   1  11
HETATM   11  N   UNL     1     -42.236  56.221 -51.629  1.00  0.00    -0.327 N 
HETATM   12  C   UNL     1     -41.514  55.643 -52.655  1.00  0.00     0.223 C 
HETATM   13  O   UNL     1     -40.893  56.238 -53.530  1.00  0.00    -0.273 OA
HETATM   14  H   UNL     1     -42.751  55.593 -51.023  1.00  0.00     0.169 HD
BRANCH  12  15
HETATM   15  C   UNL     1     -41.537  54.124 -52.629  1.00  0.00     0.116 C 
BRANCH  15  16
HETATM   16  C   UNL     1     -40.329  53.486 -51.919  1.00  0.00     0.049 C 
BRANCH  16  17
HETATM   17  C   UNL     1     -40.400  53.593 -50.408  1.00  0.00    -0.027 C 
HETATM   18  C   UNL     1     -39.592  54.359 -49.662  1.00  0.00     0.007 C 
ENDBRANCH  16  17
BRANCH  16  19
HETATM   19  C   UNL     1     -40.043  52.073 -52.413  1.00  0.00    -0.050 A 
HETATM   20  C   UNL     1     -40.040  51.738 -53.777  1.00  0.00     0.008 A 
HETATM   21  C   UNL     1     -39.748  50.437 -54.194  1.00  0.00     0.001 A 
HETATM   22  C   UNL     1     -39.462  49.450 -53.255  1.00  0.00     0.000 A 
HETATM   23  C   UNL     1     -39.463  49.762 -51.898  1.00  0.00     0.001 A 
HETATM   24  C   UNL     1     -39.747  51.063 -51.480  1.00  0.00     0.008 A 
ENDBRANCH  16  19
ENDBRANCH  15  16
ENDBRANCH  12  15
ENDBRANCH   1  11
BRANCH   8  25
HETATM   25  C   UNL     1     -45.570  60.915 -52.103  1.00  0.00     0.270 C 
HETATM   26  N   UNL     1     -45.508  60.870 -53.469  1.00  0.00    -0.365 N 
HETATM   27  H   UNL     1     -44.600  60.810 -53.912  1.00  0.00     0.159 HD
HETATM   28  H   UNL     1     -46.362  60.854 -54.005  1.00  0.00     0.159 HD
HETATM   29  O   UNL     1     -46.648  60.956 -51.520  1.00  0.00    -0.266 OA
ENDBRANCH   8  25
TORSDOF 6
ENDMDL
MODEL 10
REMARK VINA RESULT:      -7.7      3.725      5.580
REMARK  6 active torsions:
REMARK  status: ('A' for Active; 'I' for Inactive)
REMARK    1  A    between atoms: C_2  and  C_3 
REMARK    2  A    between atoms: C_3  and  C_4 
REMARK    3  A    between atoms: C_3  and  C_10 
REMARK    4  A    between atoms: C_10  and  C_11 
REMARK       I    between atoms: C_11  and  N_12 
REMARK    5  A    between atoms: N_12  and  C_13 
REMARK    6  A    between atoms: C_20  and  C_21 
REMARK       I    between atoms: C_21  and  N_22 
ROOT
HETATM    1  C   UNL     1     -42.190  58.223 -51.739  1.00  0.00     0.035 A 
HETATM    2  C   UNL     1     -42.246  58.452 -53.121  1.00  0.00     0.046 A 
HETATM    3  C   UNL     1     -42.484  59.758 -53.602  1.00  0.00     0.030 A 
HETATM    4  C   UNL     1     -42.679  60.786 -52.687  1.00  0.00     0.063 A 
HETATM    5  N   UNL     1     -42.895  61.905 -53.440  1.00  0.00    -0.277 N 
HETATM    6  H   UNL     1     -43.082  62.843 -53.105  1.00  0.00     0.189 HD
HETATM    7  N   UNL     1     -42.834  61.705 -54.766  1.00  0.00    -0.168 NA
HETATM    8  C   UNL     1     -42.576  60.382 -54.883  1.00  0.00     0.156 A 
HETATM    9  C   UNL     1     -42.635  60.592 -51.305  1.00  0.00     0.034 A 
HETATM   10  C   UNL     1     -42.375  59.291 -50.853  1.00  0.00     0.032 A 
ENDROOT
BRANCH   1  11
HETATM   11  N   UNL     1     -41.920  56.960 -51.168  1.00  0.00    -0.327 N 
HETATM   12  C   UNL     1     -42.837  56.006 -50.768  1.00  0.00     0.223 C 
HETATM   13  O   UNL     1     -44.056  56.137 -50.743  1.00  0.00    -0.273 OA
HETATM   14  H   UNL     1     -40.940  56.721 -51.067  1.00  0.00     0.169 HD
BRANCH  12  15
HETATM   15  C   UNL     1     -42.197  54.698 -50.335  1.00  0.00     0.116 C 
BRANCH  15  16
HETATM   16  C   UNL     1     -40.705  54.576 -50.693  1.00  0.00     0.049 C 
BRANCH  16  17
HETATM   17  C   UNL     1     -39.819  54.330 -49.487  1.00  0.00    -0.027 C 
HETATM   18  C   UNL     1     -40.271  54.053 -48.256  1.00  0.00     0.007 C 
ENDBRANCH  16  17
BRANCH  16  19
HETATM   19  C   UNL     1     -40.458  53.596 -51.835  1.00  0.00    -0.050 A 
HETATM   20  C   UNL     1     -40.861  53.860 -53.154  1.00  0.00     0.008 A 
HETATM   21  C   UNL     1     -40.595  52.949 -54.179  1.00  0.00     0.001 A 
HETATM   22  C   UNL     1     -39.930  51.758 -53.900  1.00  0.00     0.000 A 
HETATM   23  C   UNL     1     -39.526  51.477 -52.598  1.00  0.00     0.001 A 
HETATM   24  C   UNL     1     -39.784  52.389 -51.574  1.00  0.00     0.008 A 
ENDBRANCH  16  19
ENDBRANCH  15  16
ENDBRANCH  12  15
ENDBRANCH   1  11
BRANCH   8  25
HETATM   25  C   UNL     1     -42.410  59.752 -56.201  1.00  0.00     0.270 C 
HETATM   26  N   UNL     1     -43.375  58.830 -56.504  1.00  0.00    -0.365 N 
HETATM   27  H   UNL     1     -44.116  58.664 -55.835  1.00  0.00     0.159 HD
HETATM   28  H   UNL     1     -43.355  58.366 -57.399  1.00  0.00     0.159 HD
HETATM   29  O   UNL     1     -41.510  60.010 -56.992  1.00  0.00    -0.266 OA
ENDBRANCH   8  25
TORSDOF 6
ENDMDL
