MODEL 1
REMARK VINA RESULT:      -8.5      0.000      0.000
REMARK  2 active torsions:
REMARK  status: ('A' for Active; 'I' for Inactive)
REMARK    1  A    between atoms: C_6  and  N_7 
REMARK    2  A    between atoms: N_7  and  C_8 
ROOT
HETATM    1  C   UNL     1     -40.885  54.667 -48.381  1.00  0.00     0.093 C 
HETATM    2  C   UNL     1     -40.661  53.898 -49.646  1.00  0.00     0.125 A 
HETATM    3  N   UNL     1     -40.337  52.607 -49.530  1.00  0.00    -0.226 NA
HETATM    4  C   UNL     1     -40.150  52.008 -50.716  1.00  0.00     0.114 A 
HETATM    5  C   UNL     1     -40.262  52.600 -51.974  1.00  0.00     0.053 A 
HETATM    6  C   UNL     1     -40.603  53.970 -51.989  1.00  0.00     0.143 A 
HETATM    7  N   UNL     1     -40.800  54.582 -50.797  1.00  0.00    -0.215 NA
HETATM    8  S   UNL     1     -39.722  50.342 -50.782  1.00  0.00    -0.073 SA
HETATM    9  C   UNL     1     -39.697  50.396 -52.451  1.00  0.00    -0.008 A 
HETATM   10  C   UNL     1     -39.997  51.623 -52.977  1.00  0.00    -0.028 A 
HETATM   11  C   UNL     1     -39.964  51.577 -54.462  1.00  0.00     0.041 C 
HETATM   12  C   UNL     1     -39.936  50.043 -54.751  1.00  0.00     0.010 C 
HETATM   13  C   UNL     1     -39.413  49.349 -53.459  1.00  0.00     0.047 C 
ENDROOT
BRANCH   6  14
HETATM   14  N   UNL     1     -40.693  54.688 -53.192  1.00  0.00    -0.340 N 
HETATM   15  H   UNL     1     -39.968  54.457 -53.855  1.00  0.00     0.167 HD
BRANCH  14  16
HETATM   16  C   UNL     1     -41.570  55.702 -53.615  1.00  0.00     0.036 A 
HETATM   17  C   UNL     1     -41.048  56.982 -53.864  1.00  0.00     0.069 A 
HETATM   18  C   UNL     1     -41.877  58.036 -54.253  1.00  0.00     0.104 A 
HETATM   19  C   UNL     1     -43.253  57.834 -54.374  1.00  0.00     0.102 A 
HETATM   20  O   UNL     1     -41.271  59.244 -54.484  1.00  0.00    -0.346 OA
HETATM   21  O   UNL     1     -44.133  58.828 -54.717  1.00  0.00    -0.346 OA
HETATM   22  C   UNL     1     -43.787  56.572 -54.147  1.00  0.00     0.042 A 
HETATM   23  C   UNL     1     -43.537  60.121 -54.560  1.00  0.00     0.202 C 
HETATM   24  C   UNL     1     -42.146  60.146 -55.172  1.00  0.00     0.202 C 
HETATM   25  C   UNL     1     -42.950  55.518 -53.762  1.00  0.00     0.032 A 
ENDBRANCH  14  16
ENDBRANCH   6  14
TORSDOF 2
ENDMDL
MODEL 2
REMARK VINA RESULT:      -8.4      3.858      7.056
REMARK  2 active torsions:
REMARK  status: ('A' for Active; 'I' for Inactive)
REMARK    1  A    between atoms: C_6  and  N_7 
REMARK    2  A    between atoms: N_7  and  C_8 
ROOT
HETATM    1  C   UNL     1     -40.222  59.533 -50.588  1.00  0.00     0.093 C 
HETATM    2  C   UNL     1     -40.832  58.838 -51.767  1.00  0.00     0.125 A 
HETATM    3  N   UNL     1     -41.025  59.562 -52.873  1.00  0.00    -0.226 NA
HETATM    4  C   UNL     1     -41.581  58.855 -53.868  1.00  0.00     0.114 A 
HETATM    5  C   UNL     1     -41.948  57.509 -53.828  1.00  0.00     0.053 A 
HETATM    6  C   UNL     1     -41.708  56.834 -52.612  1.00  0.00     0.143 A 
HETATM    7  N   UNL     1     -41.141  57.539 -51.603  1.00  0.00    -0.215 NA
HETATM    8  S   UNL     1     -41.915  59.609 -55.379  1.00  0.00    -0.073 SA
HETATM    9  C   UNL     1     -42.524  58.175 -55.980  1.00  0.00    -0.008 A 
HETATM   10  C   UNL     1     -42.494  57.136 -55.091  1.00  0.00    -0.028 A 
HETATM   11  C   UNL     1     -43.041  55.901 -55.711  1.00  0.00     0.041 C 
HETATM   12  C   UNL     1     -43.085  56.276 -57.226  1.00  0.00     0.010 C 
HETATM   13  C   UNL     1     -43.086  57.831 -57.306  1.00  0.00     0.047 C 
ENDROOT
BRANCH   6  14
HETATM   14  N   UNL     1     -42.083  55.494 -52.434  1.00  0.00    -0.340 N 
HETATM   15  H   UNL     1     -43.079  55.361 -52.343  1.00  0.00     0.167 HD
BRANCH  14  16
HETATM   16  C   UNL     1     -41.324  54.317 -52.305  1.00  0.00     0.036 A 
HETATM   17  C   UNL     1     -41.297  53.413 -53.380  1.00  0.00     0.069 A 
HETATM   18  C   UNL     1     -40.589  52.213 -53.294  1.00  0.00     0.104 A 
HETATM   19  C   UNL     1     -39.914  51.882 -52.118  1.00  0.00     0.102 A 
HETATM   20  O   UNL     1     -40.613  51.403 -54.401  1.00  0.00    -0.346 OA
HETATM   21  O   UNL     1     -39.227  50.707 -51.948  1.00  0.00    -0.346 OA
HETATM   22  C   UNL     1     -39.916  52.769 -51.049  1.00  0.00     0.042 A 
HETATM   23  C   UNL     1     -39.600  49.744 -52.940  1.00  0.00     0.202 C 
HETATM   24  C   UNL     1     -39.615  50.378 -54.322  1.00  0.00     0.202 C 
HETATM   25  C   UNL     1     -40.624  53.973 -51.142  1.00  0.00     0.032 A 
ENDBRANCH  14  16
ENDBRANCH   6  14
TORSDOF 2
ENDMDL
MODEL 3
REMARK VINA RESULT:      -8.3      3.131      3.748
REMARK  2 active torsions:
REMARK  status: ('A' for Active; 'I' for Inactive)
REMARK    1  A    between atoms: C_6  and  N_7 
REMARK    2  A    between atoms: N_7  and  C_8 
ROOT
HETATM    1  C   UNL     1     -44.269  56.828 -50.986  1.00  0.00     0.093 C 
HETATM    2  C   UNL     1     -43.360  55.810 -51.603  1.00  0.00     0.125 A 
HETATM    3  N   UNL     1     -42.583  55.102 -50.779  1.00  0.00    -0.226 NA
HETATM    4  C   UNL     1     -41.802  54.224 -51.425  1.00  0.00     0.114 A 
HETATM    5  C   UNL     1     -41.747  54.016 -52.804  1.00  0.00     0.053 A 
HETATM    6  C   UNL     1     -42.603  54.818 -53.589  1.00  0.00     0.143 A 
HETATM    7  N   UNL     1     -43.401  55.704 -52.944  1.00  0.00    -0.215 NA
HETATM    8  S   UNL     1     -40.722  53.215 -50.541  1.00  0.00    -0.073 SA
HETATM    9  C   UNL     1     -40.199  52.503 -51.957  1.00  0.00    -0.008 A 
HETATM   10  C   UNL     1     -40.800  52.989 -53.086  1.00  0.00    -0.028 A 
HETATM   11  C   UNL     1     -40.285  52.293 -54.293  1.00  0.00     0.041 C 
HETATM   12  C   UNL     1     -39.533  51.069 -53.683  1.00  0.00     0.010 C 
HETATM   13  C   UNL     1     -39.204  51.434 -52.205  1.00  0.00     0.047 C 
ENDROOT
BRANCH   6  14
HETATM   14  N   UNL     1     -42.600  54.738 -54.990  1.00  0.00    -0.340 N 
HETATM   15  H   UNL     1     -42.481  53.800 -55.341  1.00  0.00     0.167 HD
BRANCH  14  16
HETATM   16  C   UNL     1     -42.677  55.727 -55.985  1.00  0.00     0.036 A 
HETATM   17  C   UNL     1     -43.022  55.342 -57.292  1.00  0.00     0.069 A 
HETATM   18  C   UNL     1     -43.080  56.276 -58.327  1.00  0.00     0.104 A 
HETATM   19  C   UNL     1     -42.766  57.614 -58.081  1.00  0.00     0.102 A 
HETATM   20  O   UNL     1     -43.438  55.804 -59.564  1.00  0.00    -0.346 OA
HETATM   21  O   UNL     1     -42.766  58.580 -59.053  1.00  0.00    -0.346 OA
HETATM   22  C   UNL     1     -42.436  58.018 -56.793  1.00  0.00     0.042 A 
HETATM   23  C   UNL     1     -42.751  57.996 -60.360  1.00  0.00     0.202 C 
HETATM   24  C   UNL     1     -43.771  56.874 -60.457  1.00  0.00     0.202 C 
HETATM   25  C   UNL     1     -42.385  57.078 -55.757  1.00  0.00     0.032 A 
ENDBRANCH  14  16
ENDBRANCH   6  14
TORSDOF 2
ENDMDL
MODEL 4
REMARK VINA RESULT:      -8.2      2.750      3.397
REMARK  2 active torsions:
REMARK  status: ('A' for Active; 'I' for Inactive)
REMARK    1  A    between atoms: C_6  and  N_7 
REMARK    2  A    between atoms: N_7  and  C_8 
ROOT
HETATM    1  C   UNL     1     -44.279  57.225 -51.365  1.00  0.00     0.093 C 
HETATM    2  C   UNL     1     -43.410  56.139 -51.922  1.00  0.00     0.125 A 
HETATM    3  N   UNL     1     -42.600  55.504 -51.070  1.00  0.00    -0.226 NA
HETATM    4  C   UNL     1     -41.859  54.557 -51.664  1.00  0.00     0.114 A 
HETATM    5  C   UNL     1     -41.873  54.215 -53.017  1.00  0.00     0.053 A 
HETATM    6  C   UNL     1     -42.758  54.949 -53.834  1.00  0.00     0.143 A 
HETATM    7  N   UNL     1     -43.516  55.904 -53.243  1.00  0.00    -0.215 NA
HETATM    8  S   UNL     1     -40.747  53.624 -50.737  1.00  0.00    -0.073 SA
HETATM    9  C   UNL     1     -40.299  52.771 -52.100  1.00  0.00    -0.008 A 
HETATM   10  C   UNL     1     -40.949  53.154 -53.241  1.00  0.00    -0.028 A 
HETATM   11  C   UNL     1     -40.499  52.336 -54.398  1.00  0.00     0.041 C 
HETATM   12  C   UNL     1     -39.729  51.168 -53.706  1.00  0.00     0.010 C 
HETATM   13  C   UNL     1     -39.326  51.670 -52.288  1.00  0.00     0.047 C 
ENDROOT
BRANCH   6  14
HETATM   14  N   UNL     1     -42.823  54.733 -55.220  1.00  0.00    -0.340 N 
HETATM   15  H   UNL     1     -42.874  53.758 -55.475  1.00  0.00     0.167 HD
BRANCH  14  16
HETATM   16  C   UNL     1     -42.775  55.619 -56.310  1.00  0.00     0.036 A 
HETATM   17  C   UNL     1     -42.408  56.955 -56.075  1.00  0.00     0.069 A 
HETATM   18  C   UNL     1     -42.376  57.887 -57.114  1.00  0.00     0.104 A 
HETATM   19  C   UNL     1     -42.738  57.506 -58.407  1.00  0.00     0.102 A 
HETATM   20  O   UNL     1     -41.993  59.163 -56.786  1.00  0.00    -0.346 OA
HETATM   21  O   UNL     1     -42.766  58.373 -59.469  1.00  0.00    -0.346 OA
HETATM   22  C   UNL     1     -43.091  56.187 -58.663  1.00  0.00     0.042 A 
HETATM   23  C   UNL     1     -42.752  59.734 -59.024  1.00  0.00     0.202 C 
HETATM   24  C   UNL     1     -41.692  59.936 -57.953  1.00  0.00     0.202 C 
HETATM   25  C   UNL     1     -43.116  55.255 -57.618  1.00  0.00     0.032 A 
ENDBRANCH  14  16
ENDBRANCH   6  14
TORSDOF 2
ENDMDL
MODEL 5
REMARK VINA RESULT:      -8.2      2.950      4.642
REMARK  2 active torsions:
REMARK  status: ('A' for Active; 'I' for Inactive)
REMARK    1  A    between atoms: C_6  and  N_7 
REMARK    2  A    between atoms: N_7  and  C_8 
ROOT
HETATM    1  C   UNL     1     -39.491  50.235 -54.340  1.00  0.00     0.093 C 
HETATM    2  C   UNL     1     -40.087  51.452 -53.703  1.00  0.00     0.125 A 
HETATM    3  N   UNL     1     -39.650  51.784 -52.485  1.00  0.00    -0.226 NA
HETATM    4  C   UNL     1     -40.248  52.881 -51.998  1.00  0.00     0.114 A 
HETATM    5  C   UNL     1     -41.228  53.646 -52.632  1.00  0.00     0.053 A 
HETATM    6  C   UNL     1     -41.626  53.209 -53.913  1.00  0.00     0.143 A 
HETATM    7  N   UNL     1     -41.024  52.105 -54.417  1.00  0.00    -0.215 NA
HETATM    8  S   UNL     1     -39.825  53.473 -50.437  1.00  0.00    -0.073 SA
HETATM    9  C   UNL     1     -40.912  54.730 -50.599  1.00  0.00    -0.008 A 
HETATM   10  C   UNL     1     -41.594  54.733 -51.786  1.00  0.00    -0.028 A 
HETATM   11  C   UNL     1     -42.526  55.888 -51.849  1.00  0.00     0.041 C 
HETATM   12  C   UNL     1     -42.046  56.776 -50.658  1.00  0.00     0.010 C 
HETATM   13  C   UNL     1     -41.263  55.843 -49.687  1.00  0.00     0.047 C 
ENDROOT
BRANCH   6  14
HETATM   14  N   UNL     1     -42.641  53.865 -54.627  1.00  0.00    -0.340 N 
HETATM   15  H   UNL     1     -43.552  53.448 -54.509  1.00  0.00     0.167 HD
BRANCH  14  16
HETATM   16  C   UNL     1     -42.609  54.956 -55.513  1.00  0.00     0.036 A 
HETATM   17  C   UNL     1     -43.124  54.785 -56.809  1.00  0.00     0.069 A 
HETATM   18  C   UNL     1     -43.088  55.824 -57.741  1.00  0.00     0.104 A 
HETATM   19  C   UNL     1     -42.508  57.048 -57.403  1.00  0.00     0.102 A 
HETATM   20  O   UNL     1     -43.627  55.563 -58.976  1.00  0.00    -0.346 OA
HETATM   21  O   UNL     1     -42.404  58.100 -58.276  1.00  0.00    -0.346 OA
HETATM   22  C   UNL     1     -42.006  57.242 -56.122  1.00  0.00     0.042 A 
HETATM   23  C   UNL     1     -42.604  57.670 -59.627  1.00  0.00     0.202 C 
HETATM   24  C   UNL     1     -43.822  56.767 -59.726  1.00  0.00     0.202 C 
HETATM   25  C   UNL     1     -42.050  56.199 -55.189  1.00  0.00     0.032 A 
ENDBRANCH  14  16
ENDBRANCH   6  14
TORSDOF 2
ENDMDL
MODEL 6
REMARK VINA RESULT:      -7.9      3.534      4.529
REMARK  2 active torsions:
REMARK  status: ('A' for Active; 'I' for Inactive)
REMARK    1  A    between atoms: C_6  and  N_7 
REMARK    2  A    between atoms: N_7  and  C_8 
ROOT
HETATM    1  C   UNL     1     -44.965  58.052 -51.344  1.00  0.00     0.093 C 
HETATM    2  C   UNL     1     -44.000  57.101 -51.983  1.00  0.00     0.125 A 
HETATM    3  N   UNL     1     -43.569  56.075 -51.244  1.00  0.00    -0.226 NA
HETATM    4  C   UNL     1     -42.705  55.286 -51.900  1.00  0.00     0.114 A 
HETATM    5  C   UNL     1     -42.255  55.454 -53.210  1.00  0.00     0.053 A 
HETATM    6  C   UNL     1     -42.764  56.572 -53.904  1.00  0.00     0.143 A 
HETATM    7  N   UNL     1     -43.642  57.372 -53.252  1.00  0.00    -0.215 NA
HETATM    8  S   UNL     1     -42.031  53.908 -51.118  1.00  0.00    -0.073 SA
HETATM    9  C   UNL     1     -41.165  53.529 -52.495  1.00  0.00    -0.008 A 
HETATM   10  C   UNL     1     -41.355  54.398 -53.534  1.00  0.00    -0.028 A 
HETATM   11  C   UNL     1     -40.559  53.978 -54.717  1.00  0.00     0.041 C 
HETATM   12  C   UNL     1     -40.131  52.526 -54.338  1.00  0.00     0.010 C 
HETATM   13  C   UNL     1     -40.235  52.415 -52.788  1.00  0.00     0.047 C 
ENDROOT
BRANCH   6  14
HETATM   14  N   UNL     1     -42.344  56.876 -55.209  1.00  0.00    -0.340 N 
HETATM   15  H   UNL     1     -41.443  57.327 -55.249  1.00  0.00     0.167 HD
BRANCH  14  16
HETATM   16  C   UNL     1     -42.972  56.715 -56.456  1.00  0.00     0.036 A 
HETATM   17  C   UNL     1     -43.794  57.750 -56.934  1.00  0.00     0.069 A 
HETATM   18  C   UNL     1     -44.469  57.631 -58.150  1.00  0.00     0.104 A 
HETATM   19  C   UNL     1     -44.357  56.460 -58.901  1.00  0.00     0.102 A 
HETATM   20  O   UNL     1     -45.237  58.701 -58.536  1.00  0.00    -0.346 OA
HETATM   21  O   UNL     1     -45.017  56.257 -60.085  1.00  0.00    -0.346 OA
HETATM   22  C   UNL     1     -43.538  55.430 -58.453  1.00  0.00     0.042 A 
HETATM   23  C   UNL     1     -46.086  57.197 -60.247  1.00  0.00     0.202 C 
HETATM   24  C   UNL     1     -45.616  58.603 -59.913  1.00  0.00     0.202 C 
HETATM   25  C   UNL     1     -42.859  55.557 -57.236  1.00  0.00     0.032 A 
ENDBRANCH  14  16
ENDBRANCH   6  14
TORSDOF 2
ENDMDL
MODEL 7
REMARK VINA RESULT:      -7.9      1.565      3.640
REMARK  2 active torsions:
REMARK  status: ('A' for Active; 'I' for Inactive)
REMARK    1  A    between atoms: C_6  and  N_7 
REMARK    2  A    between atoms: N_7  and  C_8 
ROOT
HETATM    1  C   UNL     1     -39.400  49.782 -54.752  1.00  0.00     0.093 C 
HETATM    2  C   UNL     1     -39.748  50.949 -53.881  1.00  0.00     0.125 A 
HETATM    3  N   UNL     1     -39.807  50.735 -52.563  1.00  0.00    -0.226 NA
HETATM    4  C   UNL     1     -40.133  51.836 -51.870  1.00  0.00     0.114 A 
HETATM    5  C   UNL     1     -40.398  53.102 -52.395  1.00  0.00     0.053 A 
HETATM    6  C   UNL     1     -40.315  53.223 -53.799  1.00  0.00     0.143 A 
HETATM    7  N   UNL     1     -39.981  52.117 -54.507  1.00  0.00    -0.215 NA
HETATM    8  S   UNL     1     -40.264  51.768 -50.155  1.00  0.00    -0.073 SA
HETATM    9  C   UNL     1     -40.653  53.391 -50.102  1.00  0.00    -0.008 A 
HETATM   10  C   UNL     1     -40.693  53.999 -51.328  1.00  0.00    -0.028 A 
HETATM   11  C   UNL     1     -41.032  55.438 -51.186  1.00  0.00     0.041 C 
HETATM   12  C   UNL     1     -40.850  55.679 -49.654  1.00  0.00     0.010 C 
HETATM   13  C   UNL     1     -40.956  54.288 -48.963  1.00  0.00     0.047 C 
ENDROOT
BRANCH   6  14
HETATM   14  N   UNL     1     -40.612  54.432 -54.447  1.00  0.00    -0.340 N 
HETATM   15  H   UNL     1     -39.810  54.868 -54.876  1.00  0.00     0.167 HD
BRANCH  14  16
HETATM   16  C   UNL     1     -41.805  55.167 -54.558  1.00  0.00     0.036 A 
HETATM   17  C   UNL     1     -41.724  56.544 -54.829  1.00  0.00     0.069 A 
HETATM   18  C   UNL     1     -42.874  57.330 -54.917  1.00  0.00     0.104 A 
HETATM   19  C   UNL     1     -44.130  56.758 -54.707  1.00  0.00     0.102 A 
HETATM   20  O   UNL     1     -42.692  58.660 -55.198  1.00  0.00    -0.346 OA
HETATM   21  O   UNL     1     -45.299  57.472 -54.741  1.00  0.00    -0.346 OA
HETATM   22  C   UNL     1     -44.233  55.396 -54.451  1.00  0.00     0.042 A 
HETATM   23  C   UNL     1     -45.048  58.878 -54.639  1.00  0.00     0.202 C 
HETATM   24  C   UNL     1     -43.922  59.289 -55.574  1.00  0.00     0.202 C 
HETATM   25  C   UNL     1     -43.076  54.611 -54.370  1.00  0.00     0.032 A 
ENDBRANCH  14  16
ENDBRANCH   6  14
TORSDOF 2
ENDMDL
MODEL 8
REMARK VINA RESULT:      -7.8      3.307      5.135
REMARK  2 active torsions:
REMARK  status: ('A' for Active; 'I' for Inactive)
REMARK    1  A    between atoms: C_6  and  N_7 
REMARK    2  A    between atoms: N_7  and  C_8 
ROOT
HETATM    1  C   UNL     1     -43.022  55.721 -57.422  1.00  0.00     0.093 C 
HETATM    2  C   UNL     1     -42.724  55.336 -56.006  1.00  0.00     0.125 A 
HETATM    3  N   UNL     1     -41.773  54.421 -55.805  1.00  0.00    -0.226 NA
HETATM    4  C   UNL     1     -41.585  54.139 -54.507  1.00  0.00     0.114 A 
HETATM    5  C   UNL     1     -42.270  54.697 -53.427  1.00  0.00     0.053 A 
HETATM    6  C   UNL     1     -43.261  55.651 -53.744  1.00  0.00     0.143 A 
HETATM    7  N   UNL     1     -43.454  55.946 -55.053  1.00  0.00    -0.215 NA
HETATM    8  S   UNL     1     -40.402  52.979 -54.038  1.00  0.00    -0.073 SA
HETATM    9  C   UNL     1     -40.779  53.218 -52.430  1.00  0.00    -0.008 A 
HETATM   10  C   UNL     1     -41.767  54.140 -52.215  1.00  0.00    -0.028 A 
HETATM   11  C   UNL     1     -42.028  54.298 -50.761  1.00  0.00     0.041 C 
HETATM   12  C   UNL     1     -40.800  53.580 -50.118  1.00  0.00     0.010 C 
HETATM   13  C   UNL     1     -40.228  52.612 -51.196  1.00  0.00     0.047 C 
ENDROOT
BRANCH   6  14
HETATM   14  N   UNL     1     -44.053  56.241 -52.748  1.00  0.00    -0.340 N 
HETATM   15  H   UNL     1     -44.827  55.666 -52.452  1.00  0.00     0.167 HD
BRANCH  14  16
HETATM   16  C   UNL     1     -43.995  57.503 -52.130  1.00  0.00     0.036 A 
HETATM   17  C   UNL     1     -44.985  57.838 -51.191  1.00  0.00     0.069 A 
HETATM   18  C   UNL     1     -44.997  59.090 -50.572  1.00  0.00     0.104 A 
HETATM   19  C   UNL     1     -44.033  60.043 -50.904  1.00  0.00     0.102 A 
HETATM   20  O   UNL     1     -45.996  59.316 -49.660  1.00  0.00    -0.346 OA
HETATM   21  O   UNL     1     -44.003  61.304 -50.365  1.00  0.00    -0.346 OA
HETATM   22  C   UNL     1     -43.038  59.727 -51.820  1.00  0.00     0.042 A 
HETATM   23  C   UNL     1     -45.252  61.629 -49.745  1.00  0.00     0.202 C 
HETATM   24  C   UNL     1     -45.730  60.482 -48.871  1.00  0.00     0.202 C 
HETATM   25  C   UNL     1     -43.027  58.469 -52.433  1.00  0.00     0.032 A 
ENDBRANCH  14  16
ENDBRANCH   6  14
TORSDOF 2
ENDMDL
MODEL 9
REMARK VINA RESULT:      -7.7      3.911      7.182
REMARK  2 active torsions:
REMARK  status: ('A' for Active; 'I' for Inactive)
REMARK    1  A    between atoms: C_6  and  N_7 
REMARK    2  A    between atoms: N_7  and  C_8 
ROOT
HETATM    1  C   UNL     1     -38.680  59.429 -50.354  1.00  0.00     0.093 C 
HETATM    2  C   UNL     1     -39.918  58.990 -51.073  1.00  0.00     0.125 A 
HETATM    3  N   UNL     1     -40.597  59.920 -51.749  1.00  0.00    -0.226 NA
HETATM    4  C   UNL     1     -41.691  59.432 -52.352  1.00  0.00     0.114 A 
HETATM    5  C   UNL     1     -42.138  58.110 -52.322  1.00  0.00     0.053 A 
HETATM    6  C   UNL     1     -41.354  57.205 -51.575  1.00  0.00     0.143 A 
HETATM    7  N   UNL     1     -40.243  57.688 -50.968  1.00  0.00    -0.215 NA
HETATM    8  S   UNL     1     -42.707  60.473 -53.273  1.00  0.00    -0.073 SA
HETATM    9  C   UNL     1     -43.717  59.196 -53.638  1.00  0.00    -0.008 A 
HETATM   10  C   UNL     1     -43.330  58.001 -53.096  1.00  0.00    -0.028 A 
HETATM   11  C   UNL     1     -44.275  56.921 -53.482  1.00  0.00     0.041 C 
HETATM   12  C   UNL     1     -45.100  57.588 -54.627  1.00  0.00     0.010 C 
HETATM   13  C   UNL     1     -44.954  59.128 -54.451  1.00  0.00     0.047 C 
ENDROOT
BRANCH   6  14
HETATM   14  N   UNL     1     -41.730  55.861 -51.427  1.00  0.00    -0.340 N 
HETATM   15  H   UNL     1     -42.308  55.690 -50.618  1.00  0.00     0.167 HD
BRANCH  14  16
HETATM   16  C   UNL     1     -41.405  54.710 -52.165  1.00  0.00     0.036 A 
HETATM   17  C   UNL     1     -40.649  53.702 -51.542  1.00  0.00     0.069 A 
HETATM   18  C   UNL     1     -40.268  52.553 -52.237  1.00  0.00     0.104 A 
HETATM   19  C   UNL     1     -40.614  52.402 -53.581  1.00  0.00     0.102 A 
HETATM   20  O   UNL     1     -39.543  51.622 -51.538  1.00  0.00    -0.346 OA
HETATM   21  O   UNL     1     -40.245  51.319 -54.337  1.00  0.00    -0.346 OA
HETATM   22  C   UNL     1     -41.372  53.380 -54.212  1.00  0.00     0.042 A 
HETATM   23  C   UNL     1     -39.185  50.589 -53.710  1.00  0.00     0.202 C 
HETATM   24  C   UNL     1     -39.485  50.372 -52.235  1.00  0.00     0.202 C 
HETATM   25  C   UNL     1     -41.756  54.528 -53.508  1.00  0.00     0.032 A 
ENDBRANCH  14  16
ENDBRANCH   6  14
TORSDOF 2
ENDMDL
MODEL 10
REMARK VINA RESULT:      -7.5     14.666     16.405
REMARK  2 active torsions:
REMARK  status: ('A' for Active; 'I' for Inactive)
REMARK    1  A    between atoms: C_6  and  N_7 
REMARK    2  A    between atoms: N_7  and  C_8 
ROOT
HETATM    1  C   UNL     1     -38.657  41.191 -52.564  1.00  0.00     0.093 C 
HETATM    2  C   UNL     1     -37.342  40.999 -53.256  1.00  0.00     0.125 A 
HETATM    3  N   UNL     1     -36.366  40.405 -52.564  1.00  0.00    -0.226 NA
HETATM    4  C   UNL     1     -35.229  40.286 -53.264  1.00  0.00     0.114 A 
HETATM    5  C   UNL     1     -35.010  40.712 -54.575  1.00  0.00     0.053 A 
HETATM    6  C   UNL     1     -36.102  41.333 -55.218  1.00  0.00     0.143 A 
HETATM    7  N   UNL     1     -37.258  41.453 -54.520  1.00  0.00    -0.215 NA
HETATM    8  S   UNL     1     -33.847  39.549 -52.548  1.00  0.00    -0.073 SA
HETATM    9  C   UNL     1     -32.975  39.777 -53.953  1.00  0.00    -0.008 A 
HETATM   10  C   UNL     1     -33.675  40.390 -54.956  1.00  0.00    -0.028 A 
HETATM   11  C   UNL     1     -32.828  40.540 -56.167  1.00  0.00     0.041 C 
HETATM   12  C   UNL     1     -31.617  39.607 -55.851  1.00  0.00     0.010 C 
HETATM   13  C   UNL     1     -31.580  39.426 -54.305  1.00  0.00     0.047 C 
ENDROOT
BRANCH   6  14
HETATM   14  N   UNL     1     -35.988  41.850 -56.517  1.00  0.00    -0.340 N 
HETATM   15  H   UNL     1     -35.551  42.759 -56.554  1.00  0.00     0.167 HD
BRANCH  14  16
HETATM   16  C   UNL     1     -36.419  41.361 -57.763  1.00  0.00     0.036 A 
HETATM   17  C   UNL     1     -36.162  40.017 -58.083  1.00  0.00     0.069 A 
HETATM   18  C   UNL     1     -36.537  39.486 -59.319  1.00  0.00     0.104 A 
HETATM   19  C   UNL     1     -37.153  40.299 -60.271  1.00  0.00     0.102 A 
HETATM   20  O   UNL     1     -36.253  38.161 -59.532  1.00  0.00    -0.346 OA
HETATM   21  O   UNL     1     -37.517  39.858 -61.517  1.00  0.00    -0.346 OA
HETATM   22  C   UNL     1     -37.429  41.627 -59.969  1.00  0.00     0.042 A 
HETATM   23  C   UNL     1     -36.863  38.626 -61.839  1.00  0.00     0.202 C 
HETATM   24  C   UNL     1     -36.952  37.653 -60.674  1.00  0.00     0.202 C 
HETATM   25  C   UNL     1     -37.056  42.153 -58.726  1.00  0.00     0.032 A 
ENDBRANCH  14  16
ENDBRANCH   6  14
TORSDOF 2
ENDMDL
