MODEL 1
REMARK VINA RESULT:      -8.6      0.000      0.000
REMARK  7 active torsions:
REMARK  status: ('A' for Active; 'I' for Inactive)
REMARK       I    between atoms: C_2  and  N_3 
REMARK    1  A    between atoms: N_3  and  C_4 
REMARK    2  A    between atoms: C_7  and  C_8 
REMARK    3  A    between atoms: C_8  and  N_9 
REMARK    4  A    between atoms: C_18  and  C_19 
REMARK    5  A    between atoms: C_19  and  N_20 
REMARK    6  A    between atoms: C_24  and  O_25 
REMARK    7  A    between atoms: O_25  and  C_26 
ROOT
HETATM    1  N   UNL     1     -44.222  61.643 -55.273  1.00  0.00    -0.061 N 
HETATM    2  H   UNL     1     -44.955  61.755 -55.982  1.00  0.00     0.280 HD
HETATM    3  C   UNL     1     -44.863  60.785 -54.205  1.00  0.00     0.276 C 
HETATM    4  C   UNL     1     -43.956  60.326 -53.099  1.00  0.00     0.002 A 
HETATM    5  C   UNL     1     -43.345  61.255 -52.255  1.00  0.00     0.076 A 
HETATM    6  O   UNL     1     -43.566  62.595 -52.406  1.00  0.00    -0.349 OA
HETATM    7  C   UNL     1     -42.962  63.109 -53.599  1.00  0.00     0.203 C 
HETATM    8  C   UNL     1     -43.928  63.059 -54.788  1.00  0.00     0.262 C 
HETATM    9  C   UNL     1     -43.752  58.956 -52.848  1.00  0.00     0.020 A 
HETATM   10  C   UNL     1     -42.943  58.519 -51.780  1.00  0.00    -0.032 A 
HETATM   11  C   UNL     1     -42.355  59.480 -50.946  1.00  0.00     0.011 A 
HETATM   12  C   UNL     1     -42.566  60.841 -51.177  1.00  0.00     0.038 A 
ENDROOT
BRANCH  10  13
HETATM   13  C   UNL     1     -42.726  57.043 -51.531  1.00  0.00     0.273 C 
BRANCH  13  14
HETATM   14  N   UNL     1     -42.442  56.233 -52.784  1.00  0.00    -0.067 N 
HETATM   15  H   UNL     1     -43.061  56.600 -53.518  1.00  0.00     0.280 HD
HETATM   16  C   UNL     1     -41.016  56.387 -53.263  1.00  0.00     0.237 C 
HETATM   17  C   UNL     1     -40.785  55.553 -54.515  1.00  0.00     0.060 C 
HETATM   18  C   UNL     1     -41.101  54.079 -54.266  1.00  0.00     0.132 C 
HETATM   19  C   UNL     1     -42.556  53.960 -53.809  1.00  0.00     0.060 C 
HETATM   20  C   UNL     1     -42.813  54.779 -52.553  1.00  0.00     0.237 C 
BRANCH  18  21
HETATM   21  O   UNL     1     -40.292  53.564 -53.201  1.00  0.00    -0.344 OA
BRANCH  21  22
HETATM   22  C   UNL     1     -40.068  52.218 -53.159  1.00  0.00     0.086 A 
HETATM   23  C   UNL     1     -39.786  51.678 -51.909  1.00  0.00     0.152 A 
HETATM   24  N   UNL     1     -39.503  50.377 -51.683  1.00  0.00    -0.270 NA
HETATM   25  C   UNL     1     -39.561  49.554 -52.752  1.00  0.00     0.116 A 
HETATM   26  C   UNL     1     -39.868  49.988 -54.032  1.00  0.00     0.022 A 
HETATM   27  C   UNL     1     -40.123  51.344 -54.238  1.00  0.00     0.039 A 
ENDBRANCH  21  22
ENDBRANCH  18  21
ENDBRANCH  13  14
ENDBRANCH  10  13
BRANCH   1  28
HETATM   28  C   UNL     1     -43.059  61.026 -56.023  1.00  0.00     0.273 C 
BRANCH  28  29
HETATM   29  C   UNL     1     -43.358  59.713 -56.696  1.00  0.00    -0.032 A 
HETATM   30  C   UNL     1     -44.418  59.565 -57.601  1.00  0.00     0.011 A 
HETATM   31  C   UNL     1     -44.692  58.316 -58.174  1.00  0.00     0.030 A 
HETATM   32  C   UNL     1     -43.924  57.195 -57.845  1.00  0.00     0.034 A 
HETATM   33  C   UNL     1     -42.843  57.352 -56.977  1.00  0.00     0.030 A 
HETATM   34  C   UNL     1     -42.556  58.598 -56.416  1.00  0.00     0.011 A 
BRANCH  32  35
HETATM   35  N   UNL     1     -44.250  55.963 -58.441  1.00  0.00    -0.328 N 
HETATM   36  C   UNL     1     -43.988  55.597 -59.751  1.00  0.00     0.218 C 
HETATM   37  C   UNL     1     -44.643  54.299 -60.150  1.00  0.00     0.117 C 
HETATM   38  O   UNL     1     -43.259  56.212 -60.528  1.00  0.00    -0.274 OA
HETATM   39  H   UNL     1     -44.643  55.248 -57.838  1.00  0.00     0.169 HD
ENDBRANCH  32  35
ENDBRANCH  28  29
ENDBRANCH   1  28
TORSDOF 7
ENDMDL
MODEL 2
REMARK VINA RESULT:      -8.0      4.881      8.803
REMARK  7 active torsions:
REMARK  status: ('A' for Active; 'I' for Inactive)
REMARK       I    between atoms: C_2  and  N_3 
REMARK    1  A    between atoms: N_3  and  C_4 
REMARK    2  A    between atoms: C_7  and  C_8 
REMARK    3  A    between atoms: C_8  and  N_9 
REMARK    4  A    between atoms: C_18  and  C_19 
REMARK    5  A    between atoms: C_19  and  N_20 
REMARK    6  A    between atoms: C_24  and  O_25 
REMARK    7  A    between atoms: O_25  and  C_26 
ROOT
HETATM    1  N   UNL     1     -44.889  62.631 -49.278  1.00  0.00    -0.061 N 
HETATM    2  H   UNL     1     -44.679  63.486 -48.752  1.00  0.00     0.280 HD
HETATM    3  C   UNL     1     -43.660  62.406 -50.131  1.00  0.00     0.276 C 
HETATM    4  C   UNL     1     -43.623  61.118 -50.904  1.00  0.00     0.002 A 
HETATM    5  C   UNL     1     -44.583  60.852 -51.881  1.00  0.00     0.076 A 
HETATM    6  O   UNL     1     -45.567  61.758 -52.165  1.00  0.00    -0.349 OA
HETATM    7  C   UNL     1     -46.517  61.873 -51.098  1.00  0.00     0.203 C 
HETATM    8  C   UNL     1     -46.122  62.974 -50.107  1.00  0.00     0.262 C 
HETATM    9  C   UNL     1     -42.588  60.183 -50.708  1.00  0.00     0.020 A 
HETATM   10  C   UNL     1     -42.520  58.996 -51.465  1.00  0.00    -0.032 A 
HETATM   11  C   UNL     1     -43.495  58.769 -52.446  1.00  0.00     0.011 A 
HETATM   12  C   UNL     1     -44.515  59.700 -52.660  1.00  0.00     0.038 A 
ENDROOT
BRANCH  10  13
HETATM   13  C   UNL     1     -41.409  57.998 -51.235  1.00  0.00     0.273 C 
BRANCH  13  14
HETATM   14  N   UNL     1     -41.889  56.594 -50.906  1.00  0.00    -0.067 N 
HETATM   15  H   UNL     1     -42.699  56.699 -50.282  1.00  0.00     0.280 HD
HETATM   16  C   UNL     1     -42.346  55.835 -52.132  1.00  0.00     0.237 C 
HETATM   17  C   UNL     1     -42.811  54.438 -51.747  1.00  0.00     0.060 C 
HETATM   18  C   UNL     1     -41.705  53.664 -51.028  1.00  0.00     0.132 C 
HETATM   19  C   UNL     1     -41.288  54.448 -49.783  1.00  0.00     0.060 C 
HETATM   20  C   UNL     1     -40.812  55.848 -50.140  1.00  0.00     0.237 C 
BRANCH  18  21
HETATM   21  O   UNL     1     -40.542  53.561 -51.859  1.00  0.00    -0.344 OA
BRANCH  21  22
HETATM   22  C   UNL     1     -40.251  52.345 -52.406  1.00  0.00     0.086 A 
HETATM   23  C   UNL     1     -39.834  51.355 -51.523  1.00  0.00     0.152 A 
HETATM   24  N   UNL     1     -39.470  50.107 -51.889  1.00  0.00    -0.270 NA
HETATM   25  C   UNL     1     -39.583  49.807 -53.200  1.00  0.00     0.116 A 
HETATM   26  C   UNL     1     -40.023  50.711 -54.154  1.00  0.00     0.022 A 
HETATM   27  C   UNL     1     -40.360  52.003 -53.749  1.00  0.00     0.039 A 
ENDBRANCH  21  22
ENDBRANCH  18  21
ENDBRANCH  13  14
ENDBRANCH  10  13
BRANCH   1  28
HETATM   28  C   UNL     1     -45.168  61.589 -48.213  1.00  0.00     0.273 C 
BRANCH  28  29
HETATM   29  C   UNL     1     -45.017  62.070 -46.795  1.00  0.00    -0.032 A 
HETATM   30  C   UNL     1     -44.689  61.202 -45.745  1.00  0.00     0.011 A 
HETATM   31  C   UNL     1     -44.600  61.681 -44.430  1.00  0.00     0.030 A 
HETATM   32  C   UNL     1     -44.851  63.025 -44.141  1.00  0.00     0.034 A 
HETATM   33  C   UNL     1     -45.137  63.896 -45.192  1.00  0.00     0.030 A 
HETATM   34  C   UNL     1     -45.209  63.429 -46.506  1.00  0.00     0.011 A 
BRANCH  32  35
HETATM   35  N   UNL     1     -44.760  63.449 -42.803  1.00  0.00    -0.328 N 
HETATM   36  C   UNL     1     -43.589  63.708 -42.108  1.00  0.00     0.218 C 
HETATM   37  C   UNL     1     -43.810  63.941 -40.635  1.00  0.00     0.117 C 
HETATM   38  O   UNL     1     -42.471  63.799 -42.611  1.00  0.00    -0.274 OA
HETATM   39  H   UNL     1     -45.630  63.659 -42.324  1.00  0.00     0.169 HD
ENDBRANCH  32  35
ENDBRANCH  28  29
ENDBRANCH   1  28
TORSDOF 7
ENDMDL
MODEL 3
REMARK VINA RESULT:      -8.0      1.958      5.043
REMARK  7 active torsions:
REMARK  status: ('A' for Active; 'I' for Inactive)
REMARK       I    between atoms: C_2  and  N_3 
REMARK    1  A    between atoms: N_3  and  C_4 
REMARK    2  A    between atoms: C_7  and  C_8 
REMARK    3  A    between atoms: C_8  and  N_9 
REMARK    4  A    between atoms: C_18  and  C_19 
REMARK    5  A    between atoms: C_19  and  N_20 
REMARK    6  A    between atoms: C_24  and  O_25 
REMARK    7  A    between atoms: O_25  and  C_26 
ROOT
HETATM    1  N   UNL     1     -44.314  61.607 -54.928  1.00  0.00    -0.061 N 
HETATM    2  H   UNL     1     -43.874  62.230 -54.243  1.00  0.00     0.280 HD
HETATM    3  C   UNL     1     -43.153  60.880 -55.571  1.00  0.00     0.276 C 
HETATM    4  C   UNL     1     -43.515  59.775 -56.522  1.00  0.00     0.002 A 
HETATM    5  C   UNL     1     -44.235  60.050 -57.685  1.00  0.00     0.076 A 
HETATM    6  O   UNL     1     -44.614  61.327 -57.992  1.00  0.00    -0.349 OA
HETATM    7  C   UNL     1     -45.633  61.813 -57.109  1.00  0.00     0.203 C 
HETATM    8  C   UNL     1     -45.032  62.538 -55.899  1.00  0.00     0.262 C 
HETATM    9  C   UNL     1     -43.085  58.453 -56.296  1.00  0.00     0.020 A 
HETATM   10  C   UNL     1     -43.378  57.421 -57.209  1.00  0.00    -0.032 A 
HETATM   11  C   UNL     1     -44.092  57.737 -58.373  1.00  0.00     0.011 A 
HETATM   12  C   UNL     1     -44.508  59.049 -58.614  1.00  0.00     0.038 A 
ENDROOT
BRANCH  10  13
HETATM   13  C   UNL     1     -42.917  56.005 -56.947  1.00  0.00     0.273 C 
BRANCH  13  14
HETATM   14  N   UNL     1     -42.631  55.702 -55.486  1.00  0.00    -0.067 N 
HETATM   15  H   UNL     1     -43.158  56.391 -54.934  1.00  0.00     0.280 HD
HETATM   16  C   UNL     1     -43.101  54.325 -55.077  1.00  0.00     0.237 C 
HETATM   17  C   UNL     1     -42.787  54.072 -53.609  1.00  0.00     0.060 C 
HETATM   18  C   UNL     1     -41.292  54.224 -53.328  1.00  0.00     0.132 C 
HETATM   19  C   UNL     1     -40.859  55.635 -53.730  1.00  0.00     0.060 C 
HETATM   20  C   UNL     1     -41.156  55.912 -55.196  1.00  0.00     0.237 C 
BRANCH  18  21
HETATM   21  O   UNL     1     -40.533  53.316 -54.136  1.00  0.00    -0.344 OA
BRANCH  21  22
HETATM   22  C   UNL     1     -40.195  52.108 -53.596  1.00  0.00     0.086 A 
HETATM   23  C   UNL     1     -39.926  52.095 -52.232  1.00  0.00     0.152 A 
HETATM   24  N   UNL     1     -39.542  51.003 -51.537  1.00  0.00    -0.270 NA
HETATM   25  C   UNL     1     -39.478  49.844 -52.226  1.00  0.00     0.116 A 
HETATM   26  C   UNL     1     -39.761  49.744 -53.579  1.00  0.00     0.022 A 
HETATM   27  C   UNL     1     -40.123  50.898 -54.276  1.00  0.00     0.039 A 
ENDBRANCH  21  22
ENDBRANCH  18  21
ENDBRANCH  13  14
ENDBRANCH  10  13
BRANCH   1  28
HETATM   28  C   UNL     1     -45.269  60.758 -54.113  1.00  0.00     0.273 C 
BRANCH  28  29
HETATM   29  C   UNL     1     -44.613  59.743 -53.215  1.00  0.00    -0.032 A 
HETATM   30  C   UNL     1     -44.777  58.364 -53.407  1.00  0.00     0.011 A 
HETATM   31  C   UNL     1     -44.184  57.450 -52.524  1.00  0.00     0.030 A 
HETATM   32  C   UNL     1     -43.433  57.896 -51.433  1.00  0.00     0.034 A 
HETATM   33  C   UNL     1     -43.236  59.267 -51.268  1.00  0.00     0.030 A 
HETATM   34  C   UNL     1     -43.809  60.181 -52.153  1.00  0.00     0.011 A 
BRANCH  32  35
HETATM   35  N   UNL     1     -42.871  56.935 -50.572  1.00  0.00    -0.328 N 
HETATM   36  C   UNL     1     -41.518  56.717 -50.367  1.00  0.00     0.218 C 
HETATM   37  C   UNL     1     -41.231  55.484 -49.548  1.00  0.00     0.117 C 
HETATM   38  O   UNL     1     -40.614  57.457 -50.751  1.00  0.00    -0.274 OA
HETATM   39  H   UNL     1     -43.512  56.405 -49.989  1.00  0.00     0.169 HD
ENDBRANCH  32  35
ENDBRANCH  28  29
ENDBRANCH   1  28
TORSDOF 7
ENDMDL
MODEL 4
REMARK VINA RESULT:      -7.8      2.257      7.696
REMARK  7 active torsions:
REMARK  status: ('A' for Active; 'I' for Inactive)
REMARK       I    between atoms: C_2  and  N_3 
REMARK    1  A    between atoms: N_3  and  C_4 
REMARK    2  A    between atoms: C_7  and  C_8 
REMARK    3  A    between atoms: C_8  and  N_9 
REMARK    4  A    between atoms: C_18  and  C_19 
REMARK    5  A    between atoms: C_19  and  N_20 
REMARK    6  A    between atoms: C_24  and  O_25 
REMARK    7  A    between atoms: O_25  and  C_26 
ROOT
HETATM    1  N   UNL     1     -43.154  57.307 -51.948  1.00  0.00    -0.061 N 
HETATM    2  H   UNL     1     -42.638  56.844 -51.192  1.00  0.00     0.280 HD
HETATM    3  C   UNL     1     -42.115  58.162 -52.640  1.00  0.00     0.276 C 
HETATM    4  C   UNL     1     -42.560  58.847 -53.901  1.00  0.00     0.002 A 
HETATM    5  C   UNL     1     -43.591  59.788 -53.868  1.00  0.00     0.076 A 
HETATM    6  O   UNL     1     -44.206  60.117 -52.693  1.00  0.00    -0.349 OA
HETATM    7  C   UNL     1     -45.014  59.045 -52.189  1.00  0.00     0.203 C 
HETATM    8  C   UNL     1     -44.220  58.137 -51.243  1.00  0.00     0.262 C 
HETATM    9  C   UNL     1     -41.912  58.605 -55.127  1.00  0.00     0.020 A 
HETATM   10  C   UNL     1     -42.292  59.281 -56.303  1.00  0.00    -0.032 A 
HETATM   11  C   UNL     1     -43.322  60.228 -56.230  1.00  0.00     0.011 A 
HETATM   12  C   UNL     1     -43.959  60.488 -55.014  1.00  0.00     0.038 A 
ENDROOT
BRANCH  10  13
HETATM   13  C   UNL     1     -41.591  59.002 -57.613  1.00  0.00     0.273 C 
BRANCH  13  14
HETATM   14  N   UNL     1     -42.112  57.781 -58.352  1.00  0.00    -0.067 N 
HETATM   15  H   UNL     1     -41.288  57.239 -58.643  1.00  0.00     0.280 HD
HETATM   16  C   UNL     1     -42.963  56.890 -57.474  1.00  0.00     0.237 C 
HETATM   17  C   UNL     1     -43.461  55.687 -58.263  1.00  0.00     0.060 C 
HETATM   18  C   UNL     1     -44.252  56.123 -59.497  1.00  0.00     0.132 C 
HETATM   19  C   UNL     1     -43.353  56.998 -60.371  1.00  0.00     0.060 C 
HETATM   20  C   UNL     1     -42.846  58.213 -59.609  1.00  0.00     0.237 C 
BRANCH  18  21
HETATM   21  O   UNL     1     -45.371  56.933 -59.117  1.00  0.00    -0.344 OA
BRANCH  21  22
HETATM   22  C   UNL     1     -46.333  57.177 -60.054  1.00  0.00     0.086 A 
HETATM   23  C   UNL     1     -46.680  58.510 -60.249  1.00  0.00     0.152 A 
HETATM   24  N   UNL     1     -47.634  58.935 -61.105  1.00  0.00    -0.270 NA
HETATM   25  C   UNL     1     -48.237  57.987 -61.853  1.00  0.00     0.116 A 
HETATM   26  C   UNL     1     -47.937  56.637 -61.760  1.00  0.00     0.022 A 
HETATM   27  C   UNL     1     -46.970  56.226 -60.842  1.00  0.00     0.039 A 
ENDBRANCH  21  22
ENDBRANCH  18  21
ENDBRANCH  13  14
ENDBRANCH  10  13
BRANCH   1  28
HETATM   28  C   UNL     1     -43.738  56.170 -52.762  1.00  0.00     0.273 C 
BRANCH  28  29
HETATM   29  C   UNL     1     -42.783  55.045 -53.063  1.00  0.00    -0.032 A 
HETATM   30  C   UNL     1     -42.026  54.423 -52.062  1.00  0.00     0.011 A 
HETATM   31  C   UNL     1     -41.117  53.408 -52.388  1.00  0.00     0.030 A 
HETATM   32  C   UNL     1     -40.938  53.008 -53.715  1.00  0.00     0.034 A 
HETATM   33  C   UNL     1     -41.722  53.599 -54.706  1.00  0.00     0.030 A 
HETATM   34  C   UNL     1     -42.642  54.598 -54.385  1.00  0.00     0.011 A 
BRANCH  32  35
HETATM   35  N   UNL     1     -40.003  51.992 -53.987  1.00  0.00    -0.328 N 
HETATM   36  C   UNL     1     -40.297  50.670 -54.274  1.00  0.00     0.218 C 
HETATM   37  C   UNL     1     -39.078  49.783 -54.313  1.00  0.00     0.117 C 
HETATM   38  O   UNL     1     -41.418  50.231 -54.529  1.00  0.00    -0.274 OA
HETATM   39  H   UNL     1     -39.029  52.268 -54.056  1.00  0.00     0.169 HD
ENDBRANCH  32  35
ENDBRANCH  28  29
ENDBRANCH   1  28
TORSDOF 7
ENDMDL
MODEL 5
REMARK VINA RESULT:      -7.7      2.818      8.462
REMARK  7 active torsions:
REMARK  status: ('A' for Active; 'I' for Inactive)
REMARK       I    between atoms: C_2  and  N_3 
REMARK    1  A    between atoms: N_3  and  C_4 
REMARK    2  A    between atoms: C_7  and  C_8 
REMARK    3  A    between atoms: C_8  and  N_9 
REMARK    4  A    between atoms: C_18  and  C_19 
REMARK    5  A    between atoms: C_19  and  N_20 
REMARK    6  A    between atoms: C_24  and  O_25 
REMARK    7  A    between atoms: O_25  and  C_26 
ROOT
HETATM    1  N   UNL     1     -40.891  58.264 -51.521  1.00  0.00    -0.061 N 
HETATM    2  H   UNL     1     -40.034  57.912 -51.081  1.00  0.00     0.280 HD
HETATM    3  C   UNL     1     -40.594  58.220 -53.003  1.00  0.00     0.276 C 
HETATM    4  C   UNL     1     -41.745  58.539 -53.914  1.00  0.00     0.002 A 
HETATM    5  C   UNL     1     -42.347  59.797 -53.878  1.00  0.00     0.076 A 
HETATM    6  O   UNL     1     -41.897  60.768 -53.028  1.00  0.00    -0.349 OA
HETATM    7  C   UNL     1     -42.189  60.462 -51.658  1.00  0.00     0.203 C 
HETATM    8  C   UNL     1     -41.044  59.687 -50.997  1.00  0.00     0.262 C 
HETATM    9  C   UNL     1     -42.201  57.604 -54.864  1.00  0.00     0.020 A 
HETATM   10  C   UNL     1     -43.248  57.915 -55.755  1.00  0.00    -0.032 A 
HETATM   11  C   UNL     1     -43.820  59.194 -55.698  1.00  0.00     0.011 A 
HETATM   12  C   UNL     1     -43.362  60.133 -54.771  1.00  0.00     0.038 A 
ENDROOT
BRANCH  10  13
HETATM   13  C   UNL     1     -43.732  56.897 -56.762  1.00  0.00     0.273 C 
BRANCH  13  14
HETATM   14  N   UNL     1     -43.524  57.304 -58.211  1.00  0.00    -0.067 N 
HETATM   15  H   UNL     1     -43.602  56.446 -58.771  1.00  0.00     0.280 HD
HETATM   16  C   UNL     1     -44.579  58.271 -58.698  1.00  0.00     0.237 C 
HETATM   17  C   UNL     1     -44.322  58.649 -60.151  1.00  0.00     0.060 C 
HETATM   18  C   UNL     1     -42.929  59.254 -60.328  1.00  0.00     0.132 C 
HETATM   19  C   UNL     1     -41.890  58.239 -59.849  1.00  0.00     0.060 C 
HETATM   20  C   UNL     1     -42.119  57.849 -58.397  1.00  0.00     0.237 C 
BRANCH  18  21
HETATM   21  O   UNL     1     -42.777  60.417 -59.505  1.00  0.00    -0.344 OA
BRANCH  21  22
HETATM   22  C   UNL     1     -41.755  61.275 -59.790  1.00  0.00     0.086 A 
HETATM   23  C   UNL     1     -41.020  61.741 -58.706  1.00  0.00     0.152 A 
HETATM   24  N   UNL     1     -40.000  62.622 -58.794  1.00  0.00    -0.270 NA
HETATM   25  C   UNL     1     -39.651  63.017 -60.036  1.00  0.00     0.116 A 
HETATM   26  C   UNL     1     -40.296  62.582 -61.184  1.00  0.00     0.022 A 
HETATM   27  C   UNL     1     -41.368  61.698 -61.057  1.00  0.00     0.039 A 
ENDBRANCH  21  22
ENDBRANCH  18  21
ENDBRANCH  13  14
ENDBRANCH  10  13
BRANCH   1  28
HETATM   28  C   UNL     1     -41.981  57.335 -51.026  1.00  0.00     0.273 C 
BRANCH  28  29
HETATM   29  C   UNL     1     -41.560  55.902 -50.835  1.00  0.00    -0.032 A 
HETATM   30  C   UNL     1     -40.631  55.523 -49.857  1.00  0.00     0.011 A 
HETATM   31  C   UNL     1     -40.232  54.184 -49.739  1.00  0.00     0.030 A 
HETATM   32  C   UNL     1     -40.742  53.208 -50.600  1.00  0.00     0.034 A 
HETATM   33  C   UNL     1     -41.699  53.579 -51.545  1.00  0.00     0.030 A 
HETATM   34  C   UNL     1     -42.112  54.908 -51.656  1.00  0.00     0.011 A 
BRANCH  32  35
HETATM   35  N   UNL     1     -40.299  51.882 -50.445  1.00  0.00    -0.328 N 
HETATM   36  C   UNL     1     -39.694  51.106 -51.420  1.00  0.00     0.218 C 
HETATM   37  C   UNL     1     -39.524  49.664 -51.014  1.00  0.00     0.117 C 
HETATM   38  O   UNL     1     -39.275  51.522 -52.500  1.00  0.00    -0.274 OA
HETATM   39  H   UNL     1     -40.356  51.481 -49.514  1.00  0.00     0.169 HD
ENDBRANCH  32  35
ENDBRANCH  28  29
ENDBRANCH   1  28
TORSDOF 7
ENDMDL
MODEL 6
REMARK VINA RESULT:      -7.7      1.883      6.187
REMARK  7 active torsions:
REMARK  status: ('A' for Active; 'I' for Inactive)
REMARK       I    between atoms: C_2  and  N_3 
REMARK    1  A    between atoms: N_3  and  C_4 
REMARK    2  A    between atoms: C_7  and  C_8 
REMARK    3  A    between atoms: C_8  and  N_9 
REMARK    4  A    between atoms: C_18  and  C_19 
REMARK    5  A    between atoms: C_19  and  N_20 
REMARK    6  A    between atoms: C_24  and  O_25 
REMARK    7  A    between atoms: O_25  and  C_26 
ROOT
HETATM    1  N   UNL     1     -43.311  56.815 -56.776  1.00  0.00    -0.061 N 
HETATM    2  H   UNL     1     -43.738  55.883 -56.750  1.00  0.00     0.280 HD
HETATM    3  C   UNL     1     -44.474  57.764 -56.593  1.00  0.00     0.276 C 
HETATM    4  C   UNL     1     -44.120  59.216 -56.434  1.00  0.00     0.002 A 
HETATM    5  C   UNL     1     -43.474  59.903 -57.463  1.00  0.00     0.076 A 
HETATM    6  O   UNL     1     -43.163  59.278 -58.638  1.00  0.00    -0.349 OA
HETATM    7  C   UNL     1     -42.118  58.310 -58.473  1.00  0.00     0.203 C 
HETATM    8  C   UNL     1     -42.682  56.919 -58.161  1.00  0.00     0.262 C 
HETATM    9  C   UNL     1     -44.486  59.930 -55.276  1.00  0.00     0.020 A 
HETATM   10  C   UNL     1     -44.200  61.303 -55.142  1.00  0.00    -0.032 A 
HETATM   11  C   UNL     1     -43.562  61.963 -56.202  1.00  0.00     0.011 A 
HETATM   12  C   UNL     1     -43.212  61.266 -57.361  1.00  0.00     0.038 A 
ENDROOT
BRANCH  10  13
HETATM   13  C   UNL     1     -44.591  62.053 -53.889  1.00  0.00     0.273 C 
BRANCH  13  14
HETATM   14  N   UNL     1     -44.116  61.404 -52.600  1.00  0.00    -0.067 N 
HETATM   15  H   UNL     1     -44.117  62.140 -51.882  1.00  0.00     0.280 HD
HETATM   16  C   UNL     1     -45.040  60.302 -52.132  1.00  0.00     0.237 C 
HETATM   17  C   UNL     1     -44.517  59.684 -50.842  1.00  0.00     0.060 C 
HETATM   18  C   UNL     1     -43.098  59.143 -51.022  1.00  0.00     0.132 C 
HETATM   19  C   UNL     1     -42.190  60.290 -51.469  1.00  0.00     0.060 C 
HETATM   20  C   UNL     1     -42.686  60.921 -52.761  1.00  0.00     0.237 C 
BRANCH  18  21
HETATM   21  O   UNL     1     -43.063  58.160 -52.063  1.00  0.00    -0.344 OA
BRANCH  21  22
HETATM   22  C   UNL     1     -42.664  56.896 -51.738  1.00  0.00     0.086 A 
HETATM   23  C   UNL     1     -43.667  56.010 -51.360  1.00  0.00     0.152 A 
HETATM   24  N   UNL     1     -43.455  54.734 -50.970  1.00  0.00    -0.270 NA
HETATM   25  C   UNL     1     -42.179  54.296 -51.014  1.00  0.00     0.116 A 
HETATM   26  C   UNL     1     -41.113  55.088 -51.411  1.00  0.00     0.022 A 
HETATM   27  C   UNL     1     -41.361  56.412 -51.776  1.00  0.00     0.039 A 
ENDBRANCH  21  22
ENDBRANCH  18  21
ENDBRANCH  13  14
ENDBRANCH  10  13
BRANCH   1  28
HETATM   28  C   UNL     1     -42.282  56.792 -55.664  1.00  0.00     0.273 C 
BRANCH  28  29
HETATM   29  C   UNL     1     -41.834  55.419 -55.237  1.00  0.00    -0.032 A 
HETATM   30  C   UNL     1     -40.481  55.059 -55.190  1.00  0.00     0.011 A 
HETATM   31  C   UNL     1     -40.105  53.758 -54.829  1.00  0.00     0.030 A 
HETATM   32  C   UNL     1     -41.071  52.795 -54.523  1.00  0.00     0.034 A 
HETATM   33  C   UNL     1     -42.416  53.166 -54.529  1.00  0.00     0.030 A 
HETATM   34  C   UNL     1     -42.794  54.466 -54.871  1.00  0.00     0.011 A 
BRANCH  32  35
HETATM   35  N   UNL     1     -40.639  51.501 -54.178  1.00  0.00    -0.328 N 
HETATM   36  C   UNL     1     -39.868  51.166 -53.077  1.00  0.00     0.218 C 
HETATM   37  C   UNL     1     -39.395  49.734 -53.095  1.00  0.00     0.117 C 
HETATM   38  O   UNL     1     -39.614  51.913 -52.134  1.00  0.00    -0.274 OA
HETATM   39  H   UNL     1     -40.987  50.732 -54.742  1.00  0.00     0.169 HD
ENDBRANCH  32  35
ENDBRANCH  28  29
ENDBRANCH   1  28
TORSDOF 7
ENDMDL
MODEL 7
REMARK VINA RESULT:      -7.5      2.741      8.382
REMARK  7 active torsions:
REMARK  status: ('A' for Active; 'I' for Inactive)
REMARK       I    between atoms: C_2  and  N_3 
REMARK    1  A    between atoms: N_3  and  C_4 
REMARK    2  A    between atoms: C_7  and  C_8 
REMARK    3  A    between atoms: C_8  and  N_9 
REMARK    4  A    between atoms: C_18  and  C_19 
REMARK    5  A    between atoms: C_19  and  N_20 
REMARK    6  A    between atoms: C_24  and  O_25 
REMARK    7  A    between atoms: O_25  and  C_26 
ROOT
HETATM    1  N   UNL     1     -40.597  58.058 -51.042  1.00  0.00    -0.061 N 
HETATM    2  H   UNL     1     -39.647  57.692 -50.913  1.00  0.00     0.280 HD
HETATM    3  C   UNL     1     -40.678  58.371 -52.520  1.00  0.00     0.276 C 
HETATM    4  C   UNL     1     -42.028  58.786 -53.031  1.00  0.00     0.002 A 
HETATM    5  C   UNL     1     -42.637  59.949 -52.557  1.00  0.00     0.076 A 
HETATM    6  O   UNL     1     -42.016  60.741 -51.632  1.00  0.00    -0.349 OA
HETATM    7  C   UNL     1     -41.949  60.114 -50.345  1.00  0.00     0.203 C 
HETATM    8  C   UNL     1     -40.654  59.311 -50.175  1.00  0.00     0.262 C 
HETATM    9  C   UNL     1     -42.680  58.051 -54.040  1.00  0.00     0.020 A 
HETATM   10  C   UNL     1     -43.924  58.462 -54.559  1.00  0.00    -0.032 A 
HETATM   11  C   UNL     1     -44.499  59.643 -54.067  1.00  0.00     0.011 A 
HETATM   12  C   UNL     1     -43.851  60.388 -53.079  1.00  0.00     0.038 A 
ENDROOT
BRANCH  10  13
HETATM   13  C   UNL     1     -44.616  57.657 -55.635  1.00  0.00     0.273 C 
BRANCH  13  14
HETATM   14  N   UNL     1     -44.475  58.232 -57.033  1.00  0.00    -0.067 N 
HETATM   15  H   UNL     1     -43.620  58.804 -57.032  1.00  0.00     0.280 HD
HETATM   16  C   UNL     1     -44.311  57.161 -58.088  1.00  0.00     0.237 C 
HETATM   17  C   UNL     1     -44.179  57.790 -59.468  1.00  0.00     0.060 C 
HETATM   18  C   UNL     1     -45.386  58.671 -59.793  1.00  0.00     0.132 C 
HETATM   19  C   UNL     1     -45.503  59.756 -58.721  1.00  0.00     0.060 C 
HETATM   20  C   UNL     1     -45.643  59.154 -57.332  1.00  0.00     0.237 C 
BRANCH  18  21
HETATM   21  O   UNL     1     -46.596  57.906 -59.738  1.00  0.00    -0.344 OA
BRANCH  21  22
HETATM   22  C   UNL     1     -47.360  57.835 -60.867  1.00  0.00     0.086 A 
HETATM   23  C   UNL     1     -47.496  56.576 -61.441  1.00  0.00     0.152 A 
HETATM   24  N   UNL     1     -48.182  56.322 -62.577  1.00  0.00    -0.270 NA
HETATM   25  C   UNL     1     -48.818  57.369 -63.142  1.00  0.00     0.116 A 
HETATM   26  C   UNL     1     -48.775  58.656 -62.628  1.00  0.00     0.022 A 
HETATM   27  C   UNL     1     -48.030  58.892 -61.472  1.00  0.00     0.039 A 
ENDBRANCH  21  22
ENDBRANCH  18  21
ENDBRANCH  13  14
ENDBRANCH  10  13
BRANCH   1  28
HETATM   28  C   UNL     1     -41.503  56.954 -50.538  1.00  0.00     0.273 C 
BRANCH  28  29
HETATM   29  C   UNL     1     -41.113  55.564 -50.967  1.00  0.00    -0.032 A 
HETATM   30  C   UNL     1     -40.237  54.771 -50.214  1.00  0.00     0.011 A 
HETATM   31  C   UNL     1     -39.865  53.498 -50.668  1.00  0.00     0.030 A 
HETATM   32  C   UNL     1     -40.348  53.003 -51.883  1.00  0.00     0.034 A 
HETATM   33  C   UNL     1     -41.253  53.776 -52.611  1.00  0.00     0.030 A 
HETATM   34  C   UNL     1     -41.641  55.037 -52.155  1.00  0.00     0.011 A 
BRANCH  32  35
HETATM   35  N   UNL     1     -39.932  51.724 -52.296  1.00  0.00    -0.328 N 
HETATM   36  C   UNL     1     -39.883  51.268 -53.603  1.00  0.00     0.218 C 
HETATM   37  C   UNL     1     -39.596  49.790 -53.708  1.00  0.00     0.117 C 
HETATM   38  O   UNL     1     -40.003  51.970 -54.606  1.00  0.00    -0.274 OA
HETATM   39  H   UNL     1     -39.562  51.105 -51.583  1.00  0.00     0.169 HD
ENDBRANCH  32  35
ENDBRANCH  28  29
ENDBRANCH   1  28
TORSDOF 7
ENDMDL
MODEL 8
REMARK VINA RESULT:      -7.2      2.168      7.061
REMARK  7 active torsions:
REMARK  status: ('A' for Active; 'I' for Inactive)
REMARK       I    between atoms: C_2  and  N_3 
REMARK    1  A    between atoms: N_3  and  C_4 
REMARK    2  A    between atoms: C_7  and  C_8 
REMARK    3  A    between atoms: C_8  and  N_9 
REMARK    4  A    between atoms: C_18  and  C_19 
REMARK    5  A    between atoms: C_19  and  N_20 
REMARK    6  A    between atoms: C_24  and  O_25 
REMARK    7  A    between atoms: O_25  and  C_26 
ROOT
HETATM    1  N   UNL     1     -44.381  59.492 -50.467  1.00  0.00    -0.061 N 
HETATM    2  H   UNL     1     -43.982  58.910 -49.723  1.00  0.00     0.280 HD
HETATM    3  C   UNL     1     -43.177  60.110 -51.143  1.00  0.00     0.276 C 
HETATM    4  C   UNL     1     -43.457  60.904 -52.388  1.00  0.00     0.002 A 
HETATM    5  C   UNL     1     -44.252  62.049 -52.332  1.00  0.00     0.076 A 
HETATM    6  O   UNL     1     -44.780  62.482 -51.148  1.00  0.00    -0.349 OA
HETATM    7  C   UNL     1     -45.807  61.606 -50.665  1.00  0.00     0.203 C 
HETATM    8  C   UNL     1     -45.237  60.524 -49.740  1.00  0.00     0.262 C 
HETATM    9  C   UNL     1     -42.876  60.550 -53.621  1.00  0.00     0.020 A 
HETATM   10  C   UNL     1     -43.094  61.318 -54.781  1.00  0.00    -0.032 A 
HETATM   11  C   UNL     1     -43.888  62.470 -54.685  1.00  0.00     0.011 A 
HETATM   12  C   UNL     1     -44.454  62.838 -53.462  1.00  0.00     0.038 A 
ENDROOT
BRANCH  10  13
HETATM   13  C   UNL     1     -42.471  60.919 -56.100  1.00  0.00     0.273 C 
BRANCH  13  14
HETATM   14  N   UNL     1     -42.722  59.474 -56.496  1.00  0.00    -0.067 N 
HETATM   15  H   UNL     1     -42.271  58.890 -55.780  1.00  0.00     0.280 HD
HETATM   16  C   UNL     1     -44.193  59.125 -56.517  1.00  0.00     0.237 C 
HETATM   17  C   UNL     1     -44.387  57.671 -56.923  1.00  0.00     0.060 C 
HETATM   18  C   UNL     1     -43.758  57.388 -58.288  1.00  0.00     0.132 C 
HETATM   19  C   UNL     1     -42.269  57.727 -58.220  1.00  0.00     0.060 C 
HETATM   20  C   UNL     1     -42.046  59.179 -57.823  1.00  0.00     0.237 C 
BRANCH  18  21
HETATM   21  O   UNL     1     -44.329  58.238 -59.291  1.00  0.00    -0.344 OA
BRANCH  21  22
HETATM   22  C   UNL     1     -45.441  57.796 -59.947  1.00  0.00     0.086 A 
HETATM   23  C   UNL     1     -46.276  58.775 -60.475  1.00  0.00     0.152 A 
HETATM   24  N   UNL     1     -47.435  58.525 -61.122  1.00  0.00    -0.270 NA
HETATM   25  C   UNL     1     -47.754  57.227 -61.307  1.00  0.00     0.116 A 
HETATM   26  C   UNL     1     -46.971  56.177 -60.851  1.00  0.00     0.022 A 
HETATM   27  C   UNL     1     -45.796  56.468 -60.157  1.00  0.00     0.039 A 
ENDBRANCH  21  22
ENDBRANCH  18  21
ENDBRANCH  13  14
ENDBRANCH  10  13
BRANCH   1  28
HETATM   28  C   UNL     1     -45.202  58.532 -51.304  1.00  0.00     0.273 C 
BRANCH  28  29
HETATM   29  C   UNL     1     -44.455  57.325 -51.807  1.00  0.00    -0.032 A 
HETATM   30  C   UNL     1     -44.218  57.112 -53.171  1.00  0.00     0.011 A 
HETATM   31  C   UNL     1     -43.556  55.954 -53.603  1.00  0.00     0.030 A 
HETATM   32  C   UNL     1     -43.134  54.988 -52.686  1.00  0.00     0.034 A 
HETATM   33  C   UNL     1     -43.333  55.221 -51.325  1.00  0.00     0.030 A 
HETATM   34  C   UNL     1     -43.976  56.381 -50.888  1.00  0.00     0.011 A 
BRANCH  32  35
HETATM   35  N   UNL     1     -42.485  53.839 -53.175  1.00  0.00    -0.328 N 
HETATM   36  C   UNL     1     -41.202  53.788 -53.696  1.00  0.00     0.218 C 
HETATM   37  C   UNL     1     -40.868  52.460 -54.328  1.00  0.00     0.117 C 
HETATM   38  O   UNL     1     -40.370  54.692 -53.625  1.00  0.00    -0.274 OA
HETATM   39  H   UNL     1     -42.969  52.954 -53.068  1.00  0.00     0.169 HD
ENDBRANCH  32  35
ENDBRANCH  28  29
ENDBRANCH   1  28
TORSDOF 7
ENDMDL
MODEL 9
REMARK VINA RESULT:      -6.9     16.942     19.027
REMARK  7 active torsions:
REMARK  status: ('A' for Active; 'I' for Inactive)
REMARK       I    between atoms: C_2  and  N_3 
REMARK    1  A    between atoms: N_3  and  C_4 
REMARK    2  A    between atoms: C_7  and  C_8 
REMARK    3  A    between atoms: C_8  and  N_9 
REMARK    4  A    between atoms: C_18  and  C_19 
REMARK    5  A    between atoms: C_19  and  N_20 
REMARK    6  A    between atoms: C_24  and  O_25 
REMARK    7  A    between atoms: O_25  and  C_26 
ROOT
HETATM    1  N   UNL     1     -35.762  42.254 -55.900  1.00  0.00    -0.061 N 
HETATM    2  H   UNL     1     -35.938  43.152 -56.363  1.00  0.00     0.280 HD
HETATM    3  C   UNL     1     -35.364  42.631 -54.491  1.00  0.00     0.276 C 
HETATM    4  C   UNL     1     -35.194  41.491 -53.528  1.00  0.00     0.002 A 
HETATM    5  C   UNL     1     -34.216  40.520 -53.748  1.00  0.00     0.076 A 
HETATM    6  O   UNL     1     -33.385  40.591 -54.831  1.00  0.00    -0.349 OA
HETATM    7  C   UNL     1     -34.079  40.335 -56.059  1.00  0.00     0.203 C 
HETATM    8  C   UNL     1     -34.614  41.629 -56.685  1.00  0.00     0.262 C 
HETATM    9  C   UNL     1     -35.969  41.409 -52.354  1.00  0.00     0.020 A 
HETATM   10  C   UNL     1     -35.779  40.369 -51.423  1.00  0.00    -0.032 A 
HETATM   11  C   UNL     1     -34.778  39.419 -51.671  1.00  0.00     0.011 A 
HETATM   12  C   UNL     1     -33.993  39.503 -52.823  1.00  0.00     0.038 A 
ENDROOT
BRANCH  10  13
HETATM   13  C   UNL     1     -36.626  40.290 -50.173  1.00  0.00     0.273 C 
BRANCH  13  14
HETATM   14  N   UNL     1     -37.349  38.966 -49.992  1.00  0.00    -0.067 N 
HETATM   15  H   UNL     1     -36.718  38.235 -50.349  1.00  0.00     0.280 HD
HETATM   16  C   UNL     1     -37.637  38.657 -48.540  1.00  0.00     0.237 C 
HETATM   17  C   UNL     1     -38.364  37.325 -48.416  1.00  0.00     0.060 C 
HETATM   18  C   UNL     1     -39.662  37.324 -49.224  1.00  0.00     0.132 C 
HETATM   19  C   UNL     1     -39.327  37.613 -50.688  1.00  0.00     0.060 C 
HETATM   20  C   UNL     1     -38.606  38.944 -50.842  1.00  0.00     0.237 C 
BRANCH  18  21
HETATM   21  O   UNL     1     -40.529  38.377 -48.784  1.00  0.00    -0.344 OA
BRANCH  21  22
HETATM   22  C   UNL     1     -41.840  38.073 -48.556  1.00  0.00     0.086 A 
HETATM   23  C   UNL     1     -42.725  38.344 -49.595  1.00  0.00     0.152 A 
HETATM   24  N   UNL     1     -44.060  38.144 -49.535  1.00  0.00    -0.270 NA
HETATM   25  C   UNL     1     -44.535  37.589 -48.401  1.00  0.00     0.116 A 
HETATM   26  C   UNL     1     -43.732  37.249 -47.323  1.00  0.00     0.022 A 
HETATM   27  C   UNL     1     -42.361  37.499 -47.403  1.00  0.00     0.039 A 
ENDBRANCH  21  22
ENDBRANCH  18  21
ENDBRANCH  13  14
ENDBRANCH  10  13
BRANCH   1  28
HETATM   28  C   UNL     1     -37.062  41.488 -56.049  1.00  0.00     0.273 C 
BRANCH  28  29
HETATM   29  C   UNL     1     -37.304  40.902 -57.415  1.00  0.00    -0.032 A 
HETATM   30  C   UNL     1     -37.630  39.552 -57.598  1.00  0.00     0.011 A 
HETATM   31  C   UNL     1     -37.806  39.033 -58.888  1.00  0.00     0.030 A 
HETATM   32  C   UNL     1     -37.646  39.847 -60.013  1.00  0.00     0.034 A 
HETATM   33  C   UNL     1     -37.363  41.200 -59.828  1.00  0.00     0.030 A 
HETATM   34  C   UNL     1     -37.203  41.726 -58.545  1.00  0.00     0.011 A 
BRANCH  32  35
HETATM   35  N   UNL     1     -37.823  39.272 -61.285  1.00  0.00    -0.328 N 
HETATM   36  C   UNL     1     -36.820  38.768 -62.097  1.00  0.00     0.218 C 
HETATM   37  C   UNL     1     -37.297  38.412 -63.482  1.00  0.00     0.117 C 
HETATM   38  O   UNL     1     -35.658  38.566 -61.747  1.00  0.00    -0.274 OA
HETATM   39  H   UNL     1     -38.777  39.144 -61.606  1.00  0.00     0.169 HD
ENDBRANCH  32  35
ENDBRANCH  28  29
ENDBRANCH   1  28
TORSDOF 7
ENDMDL
MODEL 10
REMARK VINA RESULT:      -6.9      1.824      6.839
REMARK  7 active torsions:
REMARK  status: ('A' for Active; 'I' for Inactive)
REMARK       I    between atoms: C_2  and  N_3 
REMARK    1  A    between atoms: N_3  and  C_4 
REMARK    2  A    between atoms: C_7  and  C_8 
REMARK    3  A    between atoms: C_8  and  N_9 
REMARK    4  A    between atoms: C_18  and  C_19 
REMARK    5  A    between atoms: C_19  and  N_20 
REMARK    6  A    between atoms: C_24  and  O_25 
REMARK    7  A    between atoms: O_25  and  C_26 
ROOT
HETATM    1  N   UNL     1     -41.151  58.224 -52.966  1.00  0.00    -0.061 N 
HETATM    2  H   UNL     1     -40.370  57.773 -53.454  1.00  0.00     0.280 HD
HETATM    3  C   UNL     1     -41.361  59.521 -53.715  1.00  0.00     0.276 C 
HETATM    4  C   UNL     1     -42.560  60.329 -53.309  1.00  0.00     0.002 A 
HETATM    5  C   UNL     1     -42.663  60.839 -52.014  1.00  0.00     0.076 A 
HETATM    6  O   UNL     1     -41.674  60.628 -51.094  1.00  0.00    -0.349 OA
HETATM    7  C   UNL     1     -41.613  59.259 -50.674  1.00  0.00     0.203 C 
HETATM    8  C   UNL     1     -40.649  58.444 -51.543  1.00  0.00     0.262 C 
HETATM    9  C   UNL     1     -43.573  60.644 -54.236  1.00  0.00     0.020 A 
HETATM   10  C   UNL     1     -44.675  61.443 -53.874  1.00  0.00    -0.032 A 
HETATM   11  C   UNL     1     -44.738  61.948 -52.568  1.00  0.00     0.011 A 
HETATM   12  C   UNL     1     -43.730  61.656 -51.647  1.00  0.00     0.038 A 
ENDROOT
BRANCH  10  13
HETATM   13  C   UNL     1     -45.758  61.763 -54.879  1.00  0.00     0.273 C 
BRANCH  13  14
HETATM   14  N   UNL     1     -45.309  61.684 -56.328  1.00  0.00    -0.067 N 
HETATM   15  H   UNL     1     -45.862  62.380 -56.845  1.00  0.00     0.280 HD
HETATM   16  C   UNL     1     -43.848  62.034 -56.502  1.00  0.00     0.237 C 
HETATM   17  C   UNL     1     -43.450  61.936 -57.968  1.00  0.00     0.060 C 
HETATM   18  C   UNL     1     -43.729  60.540 -58.526  1.00  0.00     0.132 C 
HETATM   19  C   UNL     1     -45.217  60.233 -58.356  1.00  0.00     0.060 C 
HETATM   20  C   UNL     1     -45.641  60.317 -56.898  1.00  0.00     0.237 C 
BRANCH  18  21
HETATM   21  O   UNL     1     -43.016  59.548 -57.777  1.00  0.00    -0.344 OA
BRANCH  21  22
HETATM   22  C   UNL     1     -42.933  58.289 -58.297  1.00  0.00     0.086 A 
HETATM   23  C   UNL     1     -42.495  58.193 -59.614  1.00  0.00     0.152 A 
HETATM   24  N   UNL     1     -42.388  57.037 -60.303  1.00  0.00    -0.270 NA
HETATM   25  C   UNL     1     -42.675  55.905 -59.627  1.00  0.00     0.116 A 
HETATM   26  C   UNL     1     -43.085  55.890 -58.302  1.00  0.00     0.022 A 
HETATM   27  C   UNL     1     -43.219  57.105 -57.628  1.00  0.00     0.039 A 
ENDBRANCH  21  22
ENDBRANCH  18  21
ENDBRANCH  13  14
ENDBRANCH  10  13
BRANCH   1  28
HETATM   28  C   UNL     1     -42.280  57.215 -53.041  1.00  0.00     0.273 C 
BRANCH  28  29
HETATM   29  C   UNL     1     -41.862  55.816 -53.406  1.00  0.00    -0.032 A 
HETATM   30  C   UNL     1     -42.429  54.687 -52.800  1.00  0.00     0.011 A 
HETATM   31  C   UNL     1     -41.982  53.402 -53.137  1.00  0.00     0.030 A 
HETATM   32  C   UNL     1     -40.957  53.223 -54.070  1.00  0.00     0.034 A 
HETATM   33  C   UNL     1     -40.423  54.345 -54.704  1.00  0.00     0.030 A 
HETATM   34  C   UNL     1     -40.875  55.627 -54.385  1.00  0.00     0.011 A 
BRANCH  32  35
HETATM   35  N   UNL     1     -40.540  51.912 -54.362  1.00  0.00    -0.328 N 
HETATM   36  C   UNL     1     -39.671  51.146 -53.602  1.00  0.00     0.218 C 
HETATM   37  C   UNL     1     -39.255  49.866 -54.282  1.00  0.00     0.117 C 
HETATM   38  O   UNL     1     -39.292  51.420 -52.464  1.00  0.00    -0.274 OA
HETATM   39  H   UNL     1     -40.972  51.455 -55.158  1.00  0.00     0.169 HD
ENDBRANCH  32  35
ENDBRANCH  28  29
ENDBRANCH   1  28
TORSDOF 7
ENDMDL
