MODEL 1
REMARK VINA RESULT:      -7.8      0.000      0.000
REMARK  5 active torsions:
REMARK  status: ('A' for Active; 'I' for Inactive)
REMARK    1  A    between atoms: C_6  and  N_7 
REMARK       I    between atoms: N_7  and  C_8 
REMARK    2  A    between atoms: C_8  and  C_9 
REMARK    3  A    between atoms: C_9  and  O_10 
REMARK    4  A    between atoms: O_10  and  C_11 
REMARK    5  A    between atoms: C_19  and  C_20 
ROOT
HETATM    1  C   UNL     1     -42.788  60.593 -52.317  1.00  0.00     0.073 C 
HETATM    2  C   UNL     1     -42.164  59.544 -51.472  1.00  0.00     0.065 A 
HETATM    3  N   UNL     1     -41.751  59.845 -50.233  1.00  0.00    -0.177 NA
HETATM    4  N   UNL     1     -41.256  58.685 -49.767  1.00  0.00    -0.262 N 
HETATM    5  H   UNL     1     -40.864  58.643 -48.829  1.00  0.00     0.191 HD
HETATM    6  C   UNL     1     -41.327  57.651 -50.665  1.00  0.00     0.137 A 
HETATM    7  C   UNL     1     -41.928  58.178 -51.792  1.00  0.00     0.046 A 
ENDROOT
BRANCH   6   8
HETATM    8  N   UNL     1     -40.849  56.377 -50.417  1.00  0.00    -0.309 N 
HETATM    9  C   UNL     1     -41.700  55.312 -50.144  1.00  0.00     0.252 C 
HETATM   10  O   UNL     1     -42.928  55.402 -50.134  1.00  0.00    -0.270 OA
HETATM   11  H   UNL     1     -39.843  56.249 -50.403  1.00  0.00     0.170 HD
BRANCH   9  12
HETATM   12  C   UNL     1     -40.942  53.989 -49.888  1.00  0.00     0.217 C 
HETATM   13  C   UNL     1     -40.493  53.974 -48.427  1.00  0.00     0.050 C 
BRANCH  12  14
HETATM   14  O   UNL     1     -39.773  53.810 -50.684  1.00  0.00    -0.337 OA
BRANCH  14  15
HETATM   15  C   UNL     1     -39.978  53.046 -51.801  1.00  0.00     0.070 A 
HETATM   16  C   UNL     1     -40.657  53.649 -52.859  1.00  0.00     0.037 A 
HETATM   17  C   UNL     1     -40.883  52.941 -54.038  1.00  0.00     0.003 A 
HETATM   18  C   UNL     1     -40.415  51.634 -54.166  1.00  0.00     0.000 A 
HETATM   19  C   UNL     1     -39.708  51.042 -53.119  1.00  0.00     0.003 A 
HETATM   20  C   UNL     1     -39.480  51.750 -51.938  1.00  0.00     0.037 A 
ENDBRANCH  14  15
ENDBRANCH  12  14
ENDBRANCH   9  12
ENDBRANCH   6   8
BRANCH   7  21
HETATM   21  C   UNL     1     -42.201  57.438 -53.008  1.00  0.00    -0.020 A 
HETATM   22  C   UNL     1     -43.491  56.959 -53.270  1.00  0.00     0.014 A 
HETATM   23  C   UNL     1     -43.751  56.242 -54.441  1.00  0.00     0.020 A 
HETATM   24  C   UNL     1     -42.722  56.010 -55.352  1.00  0.00     0.011 A 
HETATM   25 BR   UNL     1     -43.073  55.041 -56.936  1.00  0.00    -0.051 Br
HETATM   26  C   UNL     1     -41.436  56.488 -55.104  1.00  0.00     0.020 A 
HETATM   27  C   UNL     1     -41.176  57.203 -53.932  1.00  0.00     0.014 A 
ENDBRANCH   7  21
TORSDOF 5
ENDMDL
MODEL 2
REMARK VINA RESULT:      -7.6      3.070      4.541
REMARK  5 active torsions:
REMARK  status: ('A' for Active; 'I' for Inactive)
REMARK    1  A    between atoms: C_6  and  N_7 
REMARK       I    between atoms: N_7  and  C_8 
REMARK    2  A    between atoms: C_8  and  C_9 
REMARK    3  A    between atoms: C_9  and  O_10 
REMARK    4  A    between atoms: O_10  and  C_11 
REMARK    5  A    between atoms: C_19  and  C_20 
ROOT
HETATM    1  C   UNL     1     -44.744  59.563 -50.658  1.00  0.00     0.073 C 
HETATM    2  C   UNL     1     -44.611  58.810 -51.930  1.00  0.00     0.065 A 
HETATM    3  N   UNL     1     -45.228  59.253 -53.035  1.00  0.00    -0.177 NA
HETATM    4  N   UNL     1     -44.892  58.353 -53.975  1.00  0.00    -0.262 N 
HETATM    5  H   UNL     1     -45.244  58.458 -54.924  1.00  0.00     0.191 HD
HETATM    6  C   UNL     1     -44.089  57.341 -53.513  1.00  0.00     0.137 A 
HETATM    7  C   UNL     1     -43.876  57.617 -52.176  1.00  0.00     0.046 A 
ENDROOT
BRANCH   6   8
HETATM    8  N   UNL     1     -43.646  56.288 -54.294  1.00  0.00    -0.309 N 
HETATM    9  C   UNL     1     -42.333  56.205 -54.742  1.00  0.00     0.252 C 
HETATM   10  O   UNL     1     -41.460  57.027 -54.460  1.00  0.00    -0.270 OA
HETATM   11  H   UNL     1     -44.327  55.587 -54.563  1.00  0.00     0.170 HD
BRANCH   9  12
HETATM   12  C   UNL     1     -42.071  54.949 -55.604  1.00  0.00     0.217 C 
HETATM   13  C   UNL     1     -42.834  55.111 -56.919  1.00  0.00     0.050 C 
BRANCH  12  14
HETATM   14  O   UNL     1     -42.508  53.725 -55.019  1.00  0.00    -0.337 OA
BRANCH  14  15
HETATM   15  C   UNL     1     -41.588  53.157 -54.179  1.00  0.00     0.070 A 
HETATM   16  C   UNL     1     -40.903  52.042 -54.659  1.00  0.00     0.037 A 
HETATM   17  C   UNL     1     -39.936  51.423 -53.869  1.00  0.00     0.003 A 
HETATM   18  C   UNL     1     -39.641  51.931 -52.604  1.00  0.00     0.000 A 
HETATM   19  C   UNL     1     -40.305  53.065 -52.136  1.00  0.00     0.003 A 
HETATM   20  C   UNL     1     -41.273  53.687 -52.927  1.00  0.00     0.037 A 
ENDBRANCH  14  15
ENDBRANCH  12  14
ENDBRANCH   9  12
ENDBRANCH   6   8
BRANCH   7  21
HETATM   21  C   UNL     1     -43.082  56.801 -51.280  1.00  0.00    -0.020 A 
HETATM   22  C   UNL     1     -43.595  55.599 -50.774  1.00  0.00     0.014 A 
HETATM   23  C   UNL     1     -42.828  54.816 -49.907  1.00  0.00     0.020 A 
HETATM   24  C   UNL     1     -41.546  55.233 -49.552  1.00  0.00     0.011 A 
HETATM   25 BR   UNL     1     -40.508  54.174 -48.380  1.00  0.00    -0.051 Br
HETATM   26  C   UNL     1     -41.023  56.422 -50.055  1.00  0.00     0.020 A 
HETATM   27  C   UNL     1     -41.791  57.207 -50.920  1.00  0.00     0.014 A 
ENDBRANCH   7  21
TORSDOF 5
ENDMDL
MODEL 3
REMARK VINA RESULT:      -7.6      3.158      4.080
REMARK  5 active torsions:
REMARK  status: ('A' for Active; 'I' for Inactive)
REMARK    1  A    between atoms: C_6  and  N_7 
REMARK       I    between atoms: N_7  and  C_8 
REMARK    2  A    between atoms: C_8  and  C_9 
REMARK    3  A    between atoms: C_9  and  O_10 
REMARK    4  A    between atoms: O_10  and  C_11 
REMARK    5  A    between atoms: C_19  and  C_20 
ROOT
HETATM    1  C   UNL     1     -44.543  60.212 -54.506  1.00  0.00     0.073 C 
HETATM    2  C   UNL     1     -44.485  58.746 -54.280  1.00  0.00     0.065 A 
HETATM    3  N   UNL     1     -45.393  57.946 -54.856  1.00  0.00    -0.177 NA
HETATM    4  N   UNL     1     -45.041  56.714 -54.449  1.00  0.00    -0.262 N 
HETATM    5  H   UNL     1     -45.586  55.908 -54.748  1.00  0.00     0.191 HD
HETATM    6  C   UNL     1     -43.946  56.694 -53.624  1.00  0.00     0.137 A 
HETATM    7  C   UNL     1     -43.550  58.011 -53.500  1.00  0.00     0.046 A 
ENDROOT
BRANCH   6   8
HETATM    8  N   UNL     1     -43.427  55.543 -53.058  1.00  0.00    -0.309 N 
HETATM    9  C   UNL     1     -42.355  54.863 -53.626  1.00  0.00     0.252 C 
HETATM   10  O   UNL     1     -41.767  55.237 -54.641  1.00  0.00    -0.270 OA
HETATM   11  H   UNL     1     -43.880  55.186 -52.224  1.00  0.00     0.170 HD
BRANCH   9  12
HETATM   12  C   UNL     1     -41.953  53.603 -52.826  1.00  0.00     0.217 C 
HETATM   13  C   UNL     1     -42.471  53.763 -51.397  1.00  0.00     0.050 C 
BRANCH  12  14
HETATM   14  O   UNL     1     -40.548  53.378 -52.735  1.00  0.00    -0.337 OA
BRANCH  14  15
HETATM   15  C   UNL     1     -40.182  52.078 -52.961  1.00  0.00     0.070 A 
HETATM   16  C   UNL     1     -39.778  51.338 -51.852  1.00  0.00     0.037 A 
HETATM   17  C   UNL     1     -39.412  50.001 -52.000  1.00  0.00     0.003 A 
HETATM   18  C   UNL     1     -39.467  49.399 -53.257  1.00  0.00     0.000 A 
HETATM   19  C   UNL     1     -39.901  50.132 -54.361  1.00  0.00     0.003 A 
HETATM   20  C   UNL     1     -40.269  51.471 -54.214  1.00  0.00     0.037 A 
ENDBRANCH  14  15
ENDBRANCH  12  14
ENDBRANCH   9  12
ENDBRANCH   6   8
BRANCH   7  21
HETATM   21  C   UNL     1     -42.425  58.466 -52.707  1.00  0.00    -0.020 A 
HETATM   22  C   UNL     1     -42.622  58.938 -51.403  1.00  0.00     0.014 A 
HETATM   23  C   UNL     1     -41.536  59.379 -50.642  1.00  0.00     0.020 A 
HETATM   24  C   UNL     1     -40.253  59.340 -51.184  1.00  0.00     0.011 A 
HETATM   25 BR   UNL     1     -38.783  59.935 -50.155  1.00  0.00    -0.051 Br
HETATM   26  C   UNL     1     -40.044  58.865 -52.477  1.00  0.00     0.020 A 
HETATM   27  C   UNL     1     -41.130  58.427 -53.239  1.00  0.00     0.014 A 
ENDBRANCH   7  21
TORSDOF 5
ENDMDL
MODEL 4
REMARK VINA RESULT:      -7.5      2.721      5.826
REMARK  5 active torsions:
REMARK  status: ('A' for Active; 'I' for Inactive)
REMARK    1  A    between atoms: C_6  and  N_7 
REMARK       I    between atoms: N_7  and  C_8 
REMARK    2  A    between atoms: C_8  and  C_9 
REMARK    3  A    between atoms: C_9  and  O_10 
REMARK    4  A    between atoms: O_10  and  C_11 
REMARK    5  A    between atoms: C_19  and  C_20 
ROOT
HETATM    1  C   UNL     1     -39.876  54.276 -48.873  1.00  0.00     0.073 C 
HETATM    2  C   UNL     1     -40.745  55.039 -49.802  1.00  0.00     0.065 A 
HETATM    3  N   UNL     1     -41.305  56.189 -49.401  1.00  0.00    -0.177 NA
HETATM    4  N   UNL     1     -42.003  56.600 -50.474  1.00  0.00    -0.262 N 
HETATM    5  H   UNL     1     -42.537  57.465 -50.427  1.00  0.00     0.191 HD
HETATM    6  C   UNL     1     -41.921  55.751 -51.548  1.00  0.00     0.137 A 
HETATM    7  C   UNL     1     -41.094  54.721 -51.145  1.00  0.00     0.046 A 
ENDROOT
BRANCH   6   8
HETATM    8  N   UNL     1     -42.583  55.955 -52.745  1.00  0.00    -0.309 N 
HETATM    9  C   UNL     1     -42.363  57.085 -53.525  1.00  0.00     0.252 C 
HETATM   10  O   UNL     1     -41.552  57.966 -53.240  1.00  0.00    -0.270 OA
HETATM   11  H   UNL     1     -43.270  55.263 -53.024  1.00  0.00     0.170 HD
BRANCH   9  12
HETATM   12  C   UNL     1     -43.220  57.101 -54.812  1.00  0.00     0.217 C 
HETATM   13  C   UNL     1     -44.690  57.002 -54.404  1.00  0.00     0.050 C 
BRANCH  12  14
HETATM   14  O   UNL     1     -42.966  56.023 -55.710  1.00  0.00    -0.337 OA
BRANCH  14  15
HETATM   15  C   UNL     1     -42.829  56.414 -57.015  1.00  0.00     0.070 A 
HETATM   16  C   UNL     1     -42.296  57.682 -57.238  1.00  0.00     0.037 A 
HETATM   17  C   UNL     1     -42.106  58.141 -58.541  1.00  0.00     0.003 A 
HETATM   18  C   UNL     1     -42.434  57.323 -59.621  1.00  0.00     0.000 A 
HETATM   19  C   UNL     1     -42.939  56.042 -59.397  1.00  0.00     0.003 A 
HETATM   20  C   UNL     1     -43.128  55.581 -58.093  1.00  0.00     0.037 A 
ENDBRANCH  14  15
ENDBRANCH  12  14
ENDBRANCH   9  12
ENDBRANCH   6   8
BRANCH   7  21
HETATM   21  C   UNL     1     -40.729  53.584 -51.966  1.00  0.00    -0.020 A 
HETATM   22  C   UNL     1     -41.167  53.500 -53.294  1.00  0.00     0.014 A 
HETATM   23  C   UNL     1     -40.816  52.401 -54.082  1.00  0.00     0.020 A 
HETATM   24  C   UNL     1     -40.023  51.389 -53.544  1.00  0.00     0.011 A 
HETATM   25 BR   UNL     1     -39.547  49.903 -54.610  1.00  0.00    -0.051 Br
HETATM   26  C   UNL     1     -39.575  51.466 -52.226  1.00  0.00     0.020 A 
HETATM   27  C   UNL     1     -39.928  52.564 -51.437  1.00  0.00     0.014 A 
ENDBRANCH   7  21
TORSDOF 5
ENDMDL
MODEL 5
REMARK VINA RESULT:      -7.4      3.172      5.223
REMARK  5 active torsions:
REMARK  status: ('A' for Active; 'I' for Inactive)
REMARK    1  A    between atoms: C_6  and  N_7 
REMARK       I    between atoms: N_7  and  C_8 
REMARK    2  A    between atoms: C_8  and  C_9 
REMARK    3  A    between atoms: C_9  and  O_10 
REMARK    4  A    between atoms: O_10  and  C_11 
REMARK    5  A    between atoms: C_19  and  C_20 
ROOT
HETATM    1  C   UNL     1     -42.865  55.881 -58.647  1.00  0.00     0.073 C 
HETATM    2  C   UNL     1     -43.332  56.635 -57.458  1.00  0.00     0.065 A 
HETATM    3  N   UNL     1     -44.088  57.730 -57.617  1.00  0.00    -0.177 NA
HETATM    4  N   UNL     1     -44.327  58.143 -56.359  1.00  0.00    -0.262 N 
HETATM    5  H   UNL     1     -44.886  58.978 -56.200  1.00  0.00     0.191 HD
HETATM    6  C   UNL     1     -43.744  57.359 -55.398  1.00  0.00     0.137 A 
HETATM    7  C   UNL     1     -43.091  56.353 -56.084  1.00  0.00     0.046 A 
ENDROOT
BRANCH   6   8
HETATM    8  N   UNL     1     -43.826  57.611 -54.040  1.00  0.00    -0.309 N 
HETATM    9  C   UNL     1     -42.860  58.352 -53.369  1.00  0.00     0.252 C 
HETATM   10  O   UNL     1     -41.886  58.866 -53.920  1.00  0.00    -0.270 OA
HETATM   11  H   UNL     1     -44.605  57.203 -53.535  1.00  0.00     0.170 HD
BRANCH   9  12
HETATM   12  C   UNL     1     -43.156  58.496 -51.859  1.00  0.00     0.217 C 
HETATM   13  C   UNL     1     -43.209  59.987 -51.526  1.00  0.00     0.050 C 
BRANCH  12  14
HETATM   14  O   UNL     1     -42.176  57.914 -51.002  1.00  0.00    -0.337 OA
BRANCH  14  15
HETATM   15  C   UNL     1     -42.184  56.544 -51.007  1.00  0.00     0.070 A 
HETATM   16  C   UNL     1     -40.956  55.909 -50.824  1.00  0.00     0.037 A 
HETATM   17  C   UNL     1     -40.888  54.517 -50.796  1.00  0.00     0.003 A 
HETATM   18  C   UNL     1     -42.051  53.760 -50.933  1.00  0.00     0.000 A 
HETATM   19  C   UNL     1     -43.283  54.397 -51.085  1.00  0.00     0.003 A 
HETATM   20  C   UNL     1     -43.353  55.791 -51.113  1.00  0.00     0.037 A 
ENDBRANCH  14  15
ENDBRANCH  12  14
ENDBRANCH   9  12
ENDBRANCH   6   8
BRANCH   7  21
HETATM   21  C   UNL     1     -42.326  55.290 -55.464  1.00  0.00    -0.020 A 
HETATM   22  C   UNL     1     -40.994  55.503 -55.086  1.00  0.00     0.014 A 
HETATM   23  C   UNL     1     -40.258  54.474 -54.491  1.00  0.00     0.020 A 
HETATM   24  C   UNL     1     -40.857  53.236 -54.268  1.00  0.00     0.011 A 
HETATM   25 BR   UNL     1     -39.863  51.845 -53.463  1.00  0.00    -0.051 Br
HETATM   26  C   UNL     1     -42.184  53.015 -54.633  1.00  0.00     0.020 A 
HETATM   27  C   UNL     1     -42.919  54.043 -55.230  1.00  0.00     0.014 A 
ENDBRANCH   7  21
TORSDOF 5
ENDMDL
MODEL 6
REMARK VINA RESULT:      -7.4      3.198      4.967
REMARK  5 active torsions:
REMARK  status: ('A' for Active; 'I' for Inactive)
REMARK    1  A    between atoms: C_6  and  N_7 
REMARK       I    between atoms: N_7  and  C_8 
REMARK    2  A    between atoms: C_8  and  C_9 
REMARK    3  A    between atoms: C_9  and  O_10 
REMARK    4  A    between atoms: O_10  and  C_11 
REMARK    5  A    between atoms: C_19  and  C_20 
ROOT
HETATM    1  C   UNL     1     -43.608  58.564 -56.908  1.00  0.00     0.073 C 
HETATM    2  C   UNL     1     -43.240  57.169 -56.560  1.00  0.00     0.065 A 
HETATM    3  N   UNL     1     -43.440  56.185 -57.446  1.00  0.00    -0.177 NA
HETATM    4  N   UNL     1     -42.997  55.084 -56.813  1.00  0.00    -0.262 N 
HETATM    5  H   UNL     1     -43.044  54.181 -57.278  1.00  0.00     0.191 HD
HETATM    6  C   UNL     1     -42.528  55.324 -55.547  1.00  0.00     0.137 A 
HETATM    7  C   UNL     1     -42.663  56.685 -55.352  1.00  0.00     0.046 A 
ENDROOT
BRANCH   6   8
HETATM    8  N   UNL     1     -42.055  54.339 -54.699  1.00  0.00    -0.309 N 
HETATM    9  C   UNL     1     -40.696  54.085 -54.552  1.00  0.00     0.252 C 
HETATM   10  O   UNL     1     -39.814  54.724 -55.127  1.00  0.00    -0.270 OA
HETATM   11  H   UNL     1     -42.740  53.775 -54.208  1.00  0.00     0.170 HD
BRANCH   9  12
HETATM   12  C   UNL     1     -40.404  52.935 -53.561  1.00  0.00     0.217 C 
HETATM   13  C   UNL     1     -40.369  51.626 -54.350  1.00  0.00     0.050 C 
BRANCH  12  14
HETATM   14  O   UNL     1     -41.379  52.774 -52.534  1.00  0.00    -0.337 OA
BRANCH  14  15
HETATM   15  C   UNL     1     -41.154  53.556 -51.432  1.00  0.00     0.070 A 
HETATM   16  C   UNL     1     -42.088  54.556 -51.171  1.00  0.00     0.037 A 
HETATM   17  C   UNL     1     -41.938  55.378 -50.055  1.00  0.00     0.003 A 
HETATM   18  C   UNL     1     -40.861  55.187 -49.190  1.00  0.00     0.000 A 
HETATM   19  C   UNL     1     -39.943  54.166 -49.435  1.00  0.00     0.003 A 
HETATM   20  C   UNL     1     -40.093  53.341 -50.552  1.00  0.00     0.037 A 
ENDBRANCH  14  15
ENDBRANCH  12  14
ENDBRANCH   9  12
ENDBRANCH   6   8
BRANCH   7  21
HETATM   21  C   UNL     1     -42.295  57.388 -54.139  1.00  0.00    -0.020 A 
HETATM   22  C   UNL     1     -40.979  57.826 -53.946  1.00  0.00     0.014 A 
HETATM   23  C   UNL     1     -40.626  58.501 -52.774  1.00  0.00     0.020 A 
HETATM   24  C   UNL     1     -41.592  58.741 -51.799  1.00  0.00     0.011 A 
HETATM   25 BR   UNL     1     -41.115  59.654 -50.213  1.00  0.00    -0.051 Br
HETATM   26  C   UNL     1     -42.906  58.316 -51.983  1.00  0.00     0.020 A 
HETATM   27  C   UNL     1     -43.258  57.639 -53.154  1.00  0.00     0.014 A 
ENDBRANCH   7  21
TORSDOF 5
ENDMDL
MODEL 7
REMARK VINA RESULT:      -7.3      3.196      4.450
REMARK  5 active torsions:
REMARK  status: ('A' for Active; 'I' for Inactive)
REMARK    1  A    between atoms: C_6  and  N_7 
REMARK       I    between atoms: N_7  and  C_8 
REMARK    2  A    between atoms: C_8  and  C_9 
REMARK    3  A    between atoms: C_9  and  O_10 
REMARK    4  A    between atoms: O_10  and  C_11 
REMARK    5  A    between atoms: C_19  and  C_20 
ROOT
HETATM    1  C   UNL     1     -43.922  58.477 -57.471  1.00  0.00     0.073 C 
HETATM    2  C   UNL     1     -43.221  57.334 -56.835  1.00  0.00     0.065 A 
HETATM    3  N   UNL     1     -42.965  56.228 -57.548  1.00  0.00    -0.177 NA
HETATM    4  N   UNL     1     -42.329  55.423 -56.678  1.00  0.00    -0.262 N 
HETATM    5  H   UNL     1     -42.026  54.499 -56.975  1.00  0.00     0.191 HD
HETATM    6  C   UNL     1     -42.177  55.967 -55.429  1.00  0.00     0.137 A 
HETATM    7  C   UNL     1     -42.742  57.226 -55.500  1.00  0.00     0.046 A 
ENDROOT
BRANCH   6   8
HETATM    8  N   UNL     1     -41.584  55.309 -54.366  1.00  0.00    -0.309 N 
HETATM    9  C   UNL     1     -42.328  54.578 -53.446  1.00  0.00     0.252 C 
HETATM   10  O   UNL     1     -43.548  54.430 -53.515  1.00  0.00    -0.270 OA
HETATM   11  H   UNL     1     -40.581  55.405 -54.256  1.00  0.00     0.170 HD
BRANCH   9  12
HETATM   12  C   UNL     1     -41.455  53.939 -52.342  1.00  0.00     0.217 C 
HETATM   13  C   UNL     1     -41.287  54.962 -51.218  1.00  0.00     0.050 C 
BRANCH  12  14
HETATM   14  O   UNL     1     -40.144  53.566 -52.761  1.00  0.00    -0.337 OA
BRANCH  14  15
HETATM   15  C   UNL     1     -39.967  52.213 -52.875  1.00  0.00     0.070 A 
HETATM   16  C   UNL     1     -39.651  51.520 -51.708  1.00  0.00     0.037 A 
HETATM   17  C   UNL     1     -39.477  50.138 -51.741  1.00  0.00     0.003 A 
HETATM   18  C   UNL     1     -39.637  49.445 -52.941  1.00  0.00     0.000 A 
HETATM   19  C   UNL     1     -39.983  50.135 -54.103  1.00  0.00     0.003 A 
HETATM   20  C   UNL     1     -40.159  51.519 -54.070  1.00  0.00     0.037 A 
ENDBRANCH  14  15
ENDBRANCH  12  14
ENDBRANCH   9  12
ENDBRANCH   6   8
BRANCH   7  21
HETATM   21  C   UNL     1     -42.813  58.165 -54.398  1.00  0.00    -0.020 A 
HETATM   22  C   UNL     1     -41.877  59.202 -54.290  1.00  0.00     0.014 A 
HETATM   23  C   UNL     1     -41.946  60.103 -53.225  1.00  0.00     0.020 A 
HETATM   24  C   UNL     1     -42.954  59.971 -52.271  1.00  0.00     0.011 A 
HETATM   25 BR   UNL     1     -43.047  61.190 -50.830  1.00  0.00    -0.051 Br
HETATM   26  C   UNL     1     -43.894  58.947 -52.373  1.00  0.00     0.020 A 
HETATM   27  C   UNL     1     -43.824  58.044 -53.437  1.00  0.00     0.014 A 
ENDBRANCH   7  21
TORSDOF 5
ENDMDL
MODEL 8
REMARK VINA RESULT:      -7.2      3.999      6.587
REMARK  5 active torsions:
REMARK  status: ('A' for Active; 'I' for Inactive)
REMARK    1  A    between atoms: C_6  and  N_7 
REMARK       I    between atoms: N_7  and  C_8 
REMARK    2  A    between atoms: C_8  and  C_9 
REMARK    3  A    between atoms: C_9  and  O_10 
REMARK    4  A    between atoms: O_10  and  C_11 
REMARK    5  A    between atoms: C_19  and  C_20 
ROOT
HETATM    1  C   UNL     1     -40.933  57.229 -50.608  1.00  0.00     0.073 C 
HETATM    2  C   UNL     1     -41.475  57.675 -51.916  1.00  0.00     0.065 A 
HETATM    3  N   UNL     1     -41.922  58.930 -52.060  1.00  0.00    -0.177 NA
HETATM    4  N   UNL     1     -42.322  58.986 -53.342  1.00  0.00    -0.262 N 
HETATM    5  H   UNL     1     -42.716  59.848 -53.711  1.00  0.00     0.191 HD
HETATM    6  C   UNL     1     -42.158  57.808 -54.026  1.00  0.00     0.137 A 
HETATM    7  C   UNL     1     -41.594  56.929 -53.122  1.00  0.00     0.046 A 
ENDROOT
BRANCH   6   8
HETATM    8  N   UNL     1     -42.531  57.623 -55.345  1.00  0.00    -0.309 N 
HETATM    9  C   UNL     1     -42.277  58.579 -56.323  1.00  0.00     0.252 C 
HETATM   10  O   UNL     1     -41.681  59.635 -56.110  1.00  0.00    -0.270 OA
HETATM   11  H   UNL     1     -43.034  56.773 -55.574  1.00  0.00     0.170 HD
BRANCH   9  12
HETATM   12  C   UNL     1     -42.791  58.159 -57.719  1.00  0.00     0.217 C 
HETATM   13  C   UNL     1     -42.556  59.324 -58.680  1.00  0.00     0.050 C 
BRANCH  12  14
HETATM   14  O   UNL     1     -44.181  57.850 -57.773  1.00  0.00    -0.337 OA
BRANCH  14  15
HETATM   15  C   UNL     1     -44.497  56.890 -58.697  1.00  0.00     0.070 A 
HETATM   16  C   UNL     1     -45.605  57.137 -59.506  1.00  0.00     0.037 A 
HETATM   17  C   UNL     1     -45.975  56.216 -60.484  1.00  0.00     0.003 A 
HETATM   18  C   UNL     1     -45.225  55.054 -60.666  1.00  0.00     0.000 A 
HETATM   19  C   UNL     1     -44.098  54.823 -59.878  1.00  0.00     0.003 A 
HETATM   20  C   UNL     1     -43.726  55.745 -58.898  1.00  0.00     0.037 A 
ENDBRANCH  14  15
ENDBRANCH  12  14
ENDBRANCH   9  12
ENDBRANCH   6   8
BRANCH   7  21
HETATM   21  C   UNL     1     -41.250  55.551 -53.412  1.00  0.00    -0.020 A 
HETATM   22  C   UNL     1     -40.417  55.243 -54.496  1.00  0.00     0.014 A 
HETATM   23  C   UNL     1     -40.090  53.913 -54.775  1.00  0.00     0.020 A 
HETATM   24  C   UNL     1     -40.591  52.894 -53.967  1.00  0.00     0.011 A 
HETATM   25 BR   UNL     1     -40.149  51.096 -54.345  1.00  0.00    -0.051 Br
HETATM   26  C   UNL     1     -41.415  53.190 -52.883  1.00  0.00     0.020 A 
HETATM   27  C   UNL     1     -41.744  54.520 -52.605  1.00  0.00     0.014 A 
ENDBRANCH   7  21
TORSDOF 5
ENDMDL
MODEL 9
REMARK VINA RESULT:      -7.1      2.913      3.655
REMARK  5 active torsions:
REMARK  status: ('A' for Active; 'I' for Inactive)
REMARK    1  A    between atoms: C_6  and  N_7 
REMARK       I    between atoms: N_7  and  C_8 
REMARK    2  A    between atoms: C_8  and  C_9 
REMARK    3  A    between atoms: C_9  and  O_10 
REMARK    4  A    between atoms: O_10  and  C_11 
REMARK    5  A    between atoms: C_19  and  C_20 
ROOT
HETATM    1  C   UNL     1     -42.691  60.833 -56.812  1.00  0.00     0.073 C 
HETATM    2  C   UNL     1     -42.301  59.723 -55.908  1.00  0.00     0.065 A 
HETATM    3  N   UNL     1     -41.690  59.992 -54.746  1.00  0.00    -0.177 NA
HETATM    4  N   UNL     1     -41.494  58.781 -54.196  1.00  0.00    -0.262 N 
HETATM    5  H   UNL     1     -41.032  58.705 -53.292  1.00  0.00     0.191 HD
HETATM    6  C   UNL     1     -41.948  57.741 -54.967  1.00  0.00     0.137 A 
HETATM    7  C   UNL     1     -42.493  58.325 -56.094  1.00  0.00     0.046 A 
ENDROOT
BRANCH   6   8
HETATM    8  N   UNL     1     -41.823  56.409 -54.618  1.00  0.00    -0.309 N 
HETATM    9  C   UNL     1     -41.973  55.974 -53.306  1.00  0.00     0.252 C 
HETATM   10  O   UNL     1     -42.257  56.718 -52.367  1.00  0.00    -0.270 OA
HETATM   11  H   UNL     1     -41.580  55.753 -55.352  1.00  0.00     0.170 HD
BRANCH   9  12
HETATM   12  C   UNL     1     -41.780  54.448 -53.153  1.00  0.00     0.217 C 
HETATM   13  C   UNL     1     -42.744  53.954 -52.075  1.00  0.00     0.050 C 
BRANCH  12  14
HETATM   14  O   UNL     1     -40.471  54.050 -52.753  1.00  0.00    -0.337 OA
BRANCH  14  15
HETATM   15  C   UNL     1     -40.239  52.707 -52.885  1.00  0.00     0.070 A 
HETATM   16  C   UNL     1     -40.433  52.157 -54.151  1.00  0.00     0.037 A 
HETATM   17  C   UNL     1     -40.196  50.801 -54.367  1.00  0.00     0.003 A 
HETATM   18  C   UNL     1     -39.746  49.998 -53.320  1.00  0.00     0.000 A 
HETATM   19  C   UNL     1     -39.521  50.555 -52.061  1.00  0.00     0.003 A 
HETATM   20  C   UNL     1     -39.758  51.913 -51.844  1.00  0.00     0.037 A 
ENDBRANCH  14  15
ENDBRANCH  12  14
ENDBRANCH   9  12
ENDBRANCH   6   8
BRANCH   7  21
HETATM   21  C   UNL     1     -43.091  57.597 -57.196  1.00  0.00    -0.020 A 
HETATM   22  C   UNL     1     -44.434  57.806 -57.536  1.00  0.00     0.014 A 
HETATM   23  C   UNL     1     -45.008  57.101 -58.597  1.00  0.00     0.020 A 
HETATM   24  C   UNL     1     -44.238  56.192 -59.320  1.00  0.00     0.011 A 
HETATM   25 BR   UNL     1     -45.015  55.238 -60.755  1.00  0.00    -0.051 Br
HETATM   26  C   UNL     1     -42.899  55.982 -58.995  1.00  0.00     0.020 A 
HETATM   27  C   UNL     1     -42.325  56.685 -57.932  1.00  0.00     0.014 A 
ENDBRANCH   7  21
TORSDOF 5
ENDMDL
MODEL 10
REMARK VINA RESULT:      -7.0      2.603      3.234
REMARK  5 active torsions:
REMARK  status: ('A' for Active; 'I' for Inactive)
REMARK    1  A    between atoms: C_6  and  N_7 
REMARK       I    between atoms: N_7  and  C_8 
REMARK    2  A    between atoms: C_8  and  C_9 
REMARK    3  A    between atoms: C_9  and  O_10 
REMARK    4  A    between atoms: O_10  and  C_11 
REMARK    5  A    between atoms: C_19  and  C_20 
ROOT
HETATM    1  C   UNL     1     -45.540  61.050 -54.585  1.00  0.00     0.073 C 
HETATM    2  C   UNL     1     -45.226  59.817 -53.821  1.00  0.00     0.065 A 
HETATM    3  N   UNL     1     -45.511  59.751 -52.514  1.00  0.00    -0.177 NA
HETATM    4  N   UNL     1     -45.107  58.519 -52.157  1.00  0.00    -0.262 N 
HETATM    5  H   UNL     1     -45.209  58.214 -51.192  1.00  0.00     0.191 HD
HETATM    6  C   UNL     1     -44.564  57.794 -53.186  1.00  0.00     0.137 A 
HETATM    7  C   UNL     1     -44.636  58.612 -54.297  1.00  0.00     0.046 A 
ENDROOT
BRANCH   6   8
HETATM    8  N   UNL     1     -44.053  56.516 -53.045  1.00  0.00    -0.309 N 
HETATM    9  C   UNL     1     -42.963  56.246 -52.225  1.00  0.00     0.252 C 
HETATM   10  O   UNL     1     -42.393  57.097 -51.542  1.00  0.00    -0.270 OA
HETATM   11  H   UNL     1     -44.480  55.778 -53.593  1.00  0.00     0.170 HD
BRANCH   9  12
HETATM   12  C   UNL     1     -42.562  54.753 -52.232  1.00  0.00     0.217 C 
HETATM   13  C   UNL     1     -43.453  54.018 -51.231  1.00  0.00     0.050 C 
BRANCH  12  14
HETATM   14  O   UNL     1     -41.212  54.497 -51.852  1.00  0.00    -0.337 OA
BRANCH  14  15
HETATM   15  C   UNL     1     -40.698  53.345 -52.385  1.00  0.00     0.070 A 
HETATM   16  C   UNL     1     -40.886  53.148 -53.752  1.00  0.00     0.037 A 
HETATM   17  C   UNL     1     -40.372  52.010 -54.371  1.00  0.00     0.003 A 
HETATM   18  C   UNL     1     -39.654  51.076 -53.624  1.00  0.00     0.000 A 
HETATM   19  C   UNL     1     -39.440  51.289 -52.263  1.00  0.00     0.003 A 
HETATM   20  C   UNL     1     -39.953  52.429 -51.642  1.00  0.00     0.037 A 
ENDBRANCH  14  15
ENDBRANCH  12  14
ENDBRANCH   9  12
ENDBRANCH   6   8
BRANCH   7  21
HETATM   21  C   UNL     1     -44.166  58.255 -55.620  1.00  0.00    -0.020 A 
HETATM   22  C   UNL     1     -42.794  58.126 -55.874  1.00  0.00     0.014 A 
HETATM   23  C   UNL     1     -42.345  57.783 -57.152  1.00  0.00     0.020 A 
HETATM   24  C   UNL     1     -43.267  57.564 -58.174  1.00  0.00     0.011 A 
HETATM   25 BR   UNL     1     -42.659  57.101 -59.902  1.00  0.00    -0.051 Br
HETATM   26  C   UNL     1     -44.634  57.683 -57.930  1.00  0.00     0.020 A 
HETATM   27  C   UNL     1     -45.084  58.028 -56.653  1.00  0.00     0.014 A 
ENDBRANCH   7  21
TORSDOF 5
ENDMDL
