MODEL 1
REMARK VINA RESULT:      -8.8      0.000      0.000
REMARK  9 active torsions:
REMARK  status: ('A' for Active; 'I' for Inactive)
REMARK    1  A    between atoms: C_6  and  N_7 
REMARK       I    between atoms: N_7  and  C_8 
REMARK    2  A    between atoms: C_8  and  C_9 
REMARK    3  A    between atoms: C_9  and  N_10 
REMARK       I    between atoms: N_10  and  C_11 
REMARK    4  A    between atoms: C_11  and  C_12 
REMARK    5  A    between atoms: C_12  and  S_13 
REMARK    6  A    between atoms: S_13  and  C_14 
REMARK    7  A    between atoms: N_15  and  C_16 
REMARK    8  A    between atoms: C_22  and  C_23 
REMARK    9  A    between atoms: C_23  and  N_24 
ROOT
HETATM    1  C   UNL     1     -41.410  59.537 -53.679  1.00  0.00     0.185 C 
ENDROOT
BRANCH   1   2
HETATM    2  C   UNL     1     -41.259  58.642 -52.461  1.00  0.00     0.227 C 
HETATM    3  N   UNL     1     -42.293  57.754 -52.265  1.00  0.00    -0.352 N 
HETATM    4  H   UNL     1     -43.131  57.823 -52.831  1.00  0.00     0.162 HD
HETATM    5  O   UNL     1     -40.331  58.735 -51.658  1.00  0.00    -0.273 OA
BRANCH   3   6
HETATM    6  C   UNL     1     -42.299  56.787 -51.175  1.00  0.00     0.225 C 
BRANCH   6   7
HETATM    7  C   UNL     1     -42.192  55.326 -51.636  1.00  0.00     0.239 C 
HETATM    8  N   UNL     1     -40.899  54.954 -51.976  1.00  0.00    -0.325 N 
HETATM    9  H   UNL     1     -40.299  55.752 -52.181  1.00  0.00     0.169 HD
HETATM   10  O   UNL     1     -43.204  54.656 -51.823  1.00  0.00    -0.271 OA
BRANCH   8  11
HETATM   11  C   UNL     1     -40.521  53.706 -52.523  1.00  0.00     0.046 A 
HETATM   12  C   UNL     1     -40.349  53.631 -53.927  1.00  0.00    -0.034 A 
HETATM   13  C   UNL     1     -40.016  52.402 -54.522  1.00  0.00     0.015 A 
HETATM   14  C   UNL     1     -40.579  54.818 -54.826  1.00  0.00     0.050 C 
HETATM   15  C   UNL     1     -39.850  51.250 -53.752  1.00  0.00    -0.061 A 
HETATM   16  C   UNL     1     -39.509  49.938 -54.394  1.00  0.00     0.048 C 
HETATM   17  C   UNL     1     -39.960  51.347 -52.364  1.00  0.00     0.015 A 
HETATM   18  C   UNL     1     -40.270  52.566 -51.732  1.00  0.00    -0.034 A 
HETATM   19  C   UNL     1     -40.285  52.560 -50.226  1.00  0.00     0.050 C 
ENDBRANCH   8  11
ENDBRANCH   6   7
ENDBRANCH   3   6
ENDBRANCH   1   2
BRANCH   1  20
HETATM   20  S   UNL     1     -43.153  59.583 -54.188  1.00  0.00    -0.081 SA
BRANCH  20  21
HETATM   21  C   UNL     1     -43.214  58.247 -55.290  1.00  0.00     0.196 A 
HETATM   22  N   UNL     1     -43.210  58.352 -56.669  1.00  0.00    -0.274 N 
HETATM   23  C   UNL     1     -43.410  57.048 -57.100  1.00  0.00     0.161 A 
HETATM   24  N   UNL     1     -43.561  56.247 -56.064  1.00  0.00    -0.132 NA
HETATM   25  N   UNL     1     -43.445  57.002 -54.936  1.00  0.00    -0.122 NA
BRANCH  22  26
HETATM   26  C   UNL     1     -42.980  59.478 -57.494  1.00  0.00     0.043 A 
HETATM   27  C   UNL     1     -44.057  60.203 -58.015  1.00  0.00     0.030 A 
HETATM   28  C   UNL     1     -43.816  61.342 -58.785  1.00  0.00     0.002 A 
HETATM   29  C   UNL     1     -42.508  61.752 -59.042  1.00  0.00     0.000 A 
HETATM   30  C   UNL     1     -41.433  61.024 -58.533  1.00  0.00     0.002 A 
HETATM   31  C   UNL     1     -41.664  59.889 -57.755  1.00  0.00     0.030 A 
ENDBRANCH  22  26
BRANCH  23  32
HETATM   32  C   UNL     1     -43.277  56.551 -58.492  1.00  0.00     0.315 C 
BRANCH  32  33
HETATM   33  N   UNL     1     -44.568  55.904 -58.944  1.00  0.00    -0.064 N 
HETATM   34  H   UNL     1     -44.999  55.548 -58.073  1.00  0.00     0.280 HD
HETATM   35  C   UNL     1     -44.379  54.696 -59.843  1.00  0.00     0.235 C 
HETATM   36  C   UNL     1     -45.097  55.068 -61.126  1.00  0.00     0.029 C 
HETATM   37  C   UNL     1     -46.221  55.966 -60.651  1.00  0.00     0.029 C 
HETATM   38  C   UNL     1     -45.541  56.837 -59.614  1.00  0.00     0.235 C 
ENDBRANCH  32  33
ENDBRANCH  23  32
ENDBRANCH  20  21
ENDBRANCH   1  20
TORSDOF 9
ENDMDL
MODEL 2
REMARK VINA RESULT:      -8.6      0.401      1.733
REMARK  9 active torsions:
REMARK  status: ('A' for Active; 'I' for Inactive)
REMARK    1  A    between atoms: C_6  and  N_7 
REMARK       I    between atoms: N_7  and  C_8 
REMARK    2  A    between atoms: C_8  and  C_9 
REMARK    3  A    between atoms: C_9  and  N_10 
REMARK       I    between atoms: N_10  and  C_11 
REMARK    4  A    between atoms: C_11  and  C_12 
REMARK    5  A    between atoms: C_12  and  S_13 
REMARK    6  A    between atoms: S_13  and  C_14 
REMARK    7  A    between atoms: N_15  and  C_16 
REMARK    8  A    between atoms: C_22  and  C_23 
REMARK    9  A    between atoms: C_23  and  N_24 
ROOT
HETATM    1  C   UNL     1     -41.833  59.857 -53.749  1.00  0.00     0.185 C 
ENDROOT
BRANCH   1   2
HETATM    2  C   UNL     1     -41.383  58.740 -52.822  1.00  0.00     0.227 C 
HETATM    3  N   UNL     1     -42.349  58.287 -51.952  1.00  0.00    -0.352 N 
HETATM    4  H   UNL     1     -43.232  58.781 -51.876  1.00  0.00     0.162 HD
HETATM    5  O   UNL     1     -40.230  58.310 -52.782  1.00  0.00    -0.273 OA
BRANCH   3   6
HETATM    6  C   UNL     1     -42.113  57.192 -51.020  1.00  0.00     0.225 C 
BRANCH   6   7
HETATM    7  C   UNL     1     -42.132  55.802 -51.673  1.00  0.00     0.239 C 
HETATM    8  N   UNL     1     -40.865  55.263 -51.844  1.00  0.00    -0.325 N 
HETATM    9  H   UNL     1     -40.129  55.968 -51.823  1.00  0.00     0.169 HD
HETATM   10  O   UNL     1     -43.175  55.340 -52.126  1.00  0.00    -0.271 OA
BRANCH   8  11
HETATM   11  C   UNL     1     -40.573  54.046 -52.504  1.00  0.00     0.046 A 
HETATM   12  C   UNL     1     -40.373  52.897 -51.701  1.00  0.00    -0.034 A 
HETATM   13  C   UNL     1     -40.037  51.674 -52.308  1.00  0.00     0.015 A 
HETATM   14  C   UNL     1     -40.438  52.950 -50.197  1.00  0.00     0.050 C 
HETATM   15  C   UNL     1     -39.899  51.572 -53.694  1.00  0.00    -0.061 A 
HETATM   16  C   UNL     1     -39.527  50.268 -54.335  1.00  0.00     0.048 C 
HETATM   17  C   UNL     1     -40.159  52.694 -54.480  1.00  0.00     0.015 A 
HETATM   18  C   UNL     1     -40.520  53.929 -53.908  1.00  0.00    -0.034 A 
HETATM   19  C   UNL     1     -40.850  55.044 -54.865  1.00  0.00     0.050 C 
ENDBRANCH   8  11
ENDBRANCH   6   7
ENDBRANCH   3   6
ENDBRANCH   1   2
BRANCH   1  20
HETATM   20  S   UNL     1     -43.607  59.680 -54.098  1.00  0.00    -0.081 SA
BRANCH  20  21
HETATM   21  C   UNL     1     -43.600  58.328 -55.182  1.00  0.00     0.196 A 
HETATM   22  N   UNL     1     -43.464  58.412 -56.556  1.00  0.00    -0.274 N 
HETATM   23  C   UNL     1     -43.658  57.106 -56.987  1.00  0.00     0.161 A 
HETATM   24  N   UNL     1     -43.927  56.326 -55.959  1.00  0.00    -0.132 NA
HETATM   25  N   UNL     1     -43.897  57.095 -54.835  1.00  0.00    -0.122 NA
BRANCH  22  26
HETATM   26  C   UNL     1     -43.128  59.518 -57.372  1.00  0.00     0.043 A 
HETATM   27  C   UNL     1     -41.788  59.845 -57.601  1.00  0.00     0.030 A 
HETATM   28  C   UNL     1     -41.471  60.907 -58.450  1.00  0.00     0.002 A 
HETATM   29  C   UNL     1     -42.485  61.646 -59.059  1.00  0.00     0.000 A 
HETATM   30  C   UNL     1     -43.822  61.328 -58.823  1.00  0.00     0.002 A 
HETATM   31  C   UNL     1     -44.149  60.263 -57.983  1.00  0.00     0.030 A 
ENDBRANCH  22  26
BRANCH  23  32
HETATM   32  C   UNL     1     -43.408  56.584 -58.354  1.00  0.00     0.315 C 
BRANCH  32  33
HETATM   33  N   UNL     1     -44.644  55.889 -58.883  1.00  0.00    -0.064 N 
HETATM   34  H   UNL     1     -45.097  55.488 -58.044  1.00  0.00     0.280 HD
HETATM   35  C   UNL     1     -44.354  54.718 -59.804  1.00  0.00     0.235 C 
HETATM   36  C   UNL     1     -45.030  55.093 -61.109  1.00  0.00     0.029 C 
HETATM   37  C   UNL     1     -46.218  55.923 -60.665  1.00  0.00     0.029 C 
HETATM   38  C   UNL     1     -45.629  56.794 -59.574  1.00  0.00     0.235 C 
ENDBRANCH  32  33
ENDBRANCH  23  32
ENDBRANCH  20  21
ENDBRANCH   1  20
TORSDOF 9
ENDMDL
MODEL 3
REMARK VINA RESULT:      -8.6      1.672      3.790
REMARK  9 active torsions:
REMARK  status: ('A' for Active; 'I' for Inactive)
REMARK    1  A    between atoms: C_6  and  N_7 
REMARK       I    between atoms: N_7  and  C_8 
REMARK    2  A    between atoms: C_8  and  C_9 
REMARK    3  A    between atoms: C_9  and  N_10 
REMARK       I    between atoms: N_10  and  C_11 
REMARK    4  A    between atoms: C_11  and  C_12 
REMARK    5  A    between atoms: C_12  and  S_13 
REMARK    6  A    between atoms: S_13  and  C_14 
REMARK    7  A    between atoms: N_15  and  C_16 
REMARK    8  A    between atoms: C_22  and  C_23 
REMARK    9  A    between atoms: C_23  and  N_24 
ROOT
HETATM    1  C   UNL     1     -45.144  58.695 -53.316  1.00  0.00     0.185 C 
ENDROOT
BRANCH   1   2
HETATM    2  C   UNL     1     -44.583  57.897 -52.152  1.00  0.00     0.227 C 
HETATM    3  N   UNL     1     -43.274  57.497 -52.302  1.00  0.00    -0.352 N 
HETATM    4  H   UNL     1     -42.806  57.627 -53.193  1.00  0.00     0.162 HD
HETATM    5  O   UNL     1     -45.249  57.559 -51.173  1.00  0.00    -0.273 OA
BRANCH   3   6
HETATM    6  C   UNL     1     -42.555  56.762 -51.270  1.00  0.00     0.225 C 
BRANCH   6   7
HETATM    7  C   UNL     1     -42.333  55.279 -51.600  1.00  0.00     0.239 C 
HETATM    8  N   UNL     1     -41.078  55.020 -52.134  1.00  0.00    -0.325 N 
HETATM    9  H   UNL     1     -40.634  55.851 -52.521  1.00  0.00     0.169 HD
HETATM   10  O   UNL     1     -43.263  54.480 -51.534  1.00  0.00    -0.271 OA
BRANCH   8  11
HETATM   11  C   UNL     1     -40.635  53.767 -52.619  1.00  0.00     0.046 A 
HETATM   12  C   UNL     1     -40.563  53.597 -54.023  1.00  0.00    -0.034 A 
HETATM   13  C   UNL     1     -40.169  52.356 -54.553  1.00  0.00     0.015 A 
HETATM   14  C   UNL     1     -40.962  54.686 -54.983  1.00  0.00     0.050 C 
HETATM   15  C   UNL     1     -39.846  51.285 -53.718  1.00  0.00    -0.061 A 
HETATM   16  C   UNL     1     -39.441  49.958 -54.289  1.00  0.00     0.048 C 
HETATM   17  C   UNL     1     -39.860  51.482 -52.337  1.00  0.00     0.015 A 
HETATM   18  C   UNL     1     -40.227  52.718 -51.771  1.00  0.00    -0.034 A 
HETATM   19  C   UNL     1     -40.128  52.829 -50.272  1.00  0.00     0.050 C 
ENDBRANCH   8  11
ENDBRANCH   6   7
ENDBRANCH   3   6
ENDBRANCH   1   2
BRANCH   1  20
HETATM   20  S   UNL     1     -44.954  57.744 -54.853  1.00  0.00    -0.081 SA
BRANCH  20  21
HETATM   21  C   UNL     1     -43.696  58.637 -55.642  1.00  0.00     0.196 A 
HETATM   22  N   UNL     1     -43.245  58.406 -56.930  1.00  0.00    -0.274 N 
HETATM   23  C   UNL     1     -42.158  59.261 -57.056  1.00  0.00     0.161 A 
HETATM   24  N   UNL     1     -41.959  59.910 -55.927  1.00  0.00    -0.132 NA
HETATM   25  N   UNL     1     -42.917  59.511 -55.044  1.00  0.00    -0.122 NA
BRANCH  22  26
HETATM   26  C   UNL     1     -43.773  57.572 -57.943  1.00  0.00     0.043 A 
HETATM   27  C   UNL     1     -44.756  58.055 -58.813  1.00  0.00     0.030 A 
HETATM   28  C   UNL     1     -45.231  57.239 -59.841  1.00  0.00     0.002 A 
HETATM   29  C   UNL     1     -44.736  55.944 -59.995  1.00  0.00     0.000 A 
HETATM   30  C   UNL     1     -43.764  55.457 -59.122  1.00  0.00     0.002 A 
HETATM   31  C   UNL     1     -43.277  56.269 -58.096  1.00  0.00     0.030 A 
ENDBRANCH  22  26
BRANCH  23  32
HETATM   32  C   UNL     1     -41.432  59.581 -58.311  1.00  0.00     0.315 C 
BRANCH  32  33
HETATM   33  N   UNL     1     -41.715  61.007 -58.731  1.00  0.00    -0.064 N 
HETATM   34  H   UNL     1     -42.498  61.307 -58.125  1.00  0.00     0.280 HD
HETATM   35  C   UNL     1     -42.209  61.150 -60.158  1.00  0.00     0.235 C 
HETATM   36  C   UNL     1     -41.181  62.046 -60.822  1.00  0.00     0.029 C 
HETATM   37  C   UNL     1     -40.705  62.934 -59.690  1.00  0.00     0.029 C 
HETATM   38  C   UNL     1     -40.567  61.961 -58.536  1.00  0.00     0.235 C 
ENDBRANCH  32  33
ENDBRANCH  23  32
ENDBRANCH  20  21
ENDBRANCH   1  20
TORSDOF 9
ENDMDL
MODEL 4
REMARK VINA RESULT:      -8.3      1.784      2.725
REMARK  9 active torsions:
REMARK  status: ('A' for Active; 'I' for Inactive)
REMARK    1  A    between atoms: C_6  and  N_7 
REMARK       I    between atoms: N_7  and  C_8 
REMARK    2  A    between atoms: C_8  and  C_9 
REMARK    3  A    between atoms: C_9  and  N_10 
REMARK       I    between atoms: N_10  and  C_11 
REMARK    4  A    between atoms: C_11  and  C_12 
REMARK    5  A    between atoms: C_12  and  S_13 
REMARK    6  A    between atoms: S_13  and  C_14 
REMARK    7  A    between atoms: N_15  and  C_16 
REMARK    8  A    between atoms: C_22  and  C_23 
REMARK    9  A    between atoms: C_23  and  N_24 
ROOT
HETATM    1  C   UNL     1     -45.173  59.232 -53.186  1.00  0.00     0.185 C 
ENDROOT
BRANCH   1   2
HETATM    2  C   UNL     1     -43.997  58.822 -52.316  1.00  0.00     0.227 C 
HETATM    3  N   UNL     1     -43.631  57.499 -52.425  1.00  0.00    -0.352 N 
HETATM    4  H   UNL     1     -44.214  56.855 -52.948  1.00  0.00     0.162 HD
HETATM    5  O   UNL     1     -43.446  59.576 -51.514  1.00  0.00    -0.273 OA
BRANCH   3   6
HETATM    6  C   UNL     1     -42.499  56.936 -51.700  1.00  0.00     0.225 C 
BRANCH   6   7
HETATM    7  C   UNL     1     -42.306  55.428 -51.917  1.00  0.00     0.239 C 
HETATM    8  N   UNL     1     -41.025  55.096 -52.335  1.00  0.00    -0.325 N 
HETATM    9  H   UNL     1     -40.524  55.886 -52.739  1.00  0.00     0.169 HD
HETATM   10  O   UNL     1     -43.267  54.665 -51.872  1.00  0.00    -0.271 OA
BRANCH   8  11
HETATM   11  C   UNL     1     -40.592  53.801 -52.704  1.00  0.00     0.046 A 
HETATM   12  C   UNL     1     -40.502  53.509 -54.087  1.00  0.00    -0.034 A 
HETATM   13  C   UNL     1     -40.118  52.222 -54.502  1.00  0.00     0.015 A 
HETATM   14  C   UNL     1     -40.873  54.516 -55.143  1.00  0.00     0.050 C 
HETATM   15  C   UNL     1     -39.822  51.223 -53.573  1.00  0.00    -0.061 A 
HETATM   16  C   UNL     1     -39.427  49.848 -54.021  1.00  0.00     0.048 C 
HETATM   17  C   UNL     1     -39.853  51.539 -52.214  1.00  0.00     0.015 A 
HETATM   18  C   UNL     1     -40.210  52.823 -51.762  1.00  0.00    -0.034 A 
HETATM   19  C   UNL     1     -40.132  53.061 -50.277  1.00  0.00     0.050 C 
ENDBRANCH   8  11
ENDBRANCH   6   7
ENDBRANCH   3   6
ENDBRANCH   1   2
BRANCH   1  20
HETATM   20  S   UNL     1     -44.836  60.849 -53.942  1.00  0.00    -0.081 SA
BRANCH  20  21
HETATM   21  C   UNL     1     -43.649  60.419 -55.130  1.00  0.00     0.196 A 
HETATM   22  N   UNL     1     -43.927  59.864 -56.366  1.00  0.00    -0.274 N 
HETATM   23  C   UNL     1     -42.673  59.574 -56.887  1.00  0.00     0.161 A 
HETATM   24  N   UNL     1     -41.737  59.893 -56.015  1.00  0.00    -0.132 NA
HETATM   25  N   UNL     1     -42.352  60.414 -54.917  1.00  0.00    -0.122 NA
BRANCH  22  26
HETATM   26  C   UNL     1     -45.166  59.685 -57.026  1.00  0.00     0.043 A 
HETATM   27  C   UNL     1     -45.704  60.711 -57.810  1.00  0.00     0.030 A 
HETATM   28  C   UNL     1     -46.900  60.502 -58.496  1.00  0.00     0.002 A 
HETATM   29  C   UNL     1     -47.564  59.279 -58.394  1.00  0.00     0.000 A 
HETATM   30  C   UNL     1     -47.035  58.259 -57.605  1.00  0.00     0.002 A 
HETATM   31  C   UNL     1     -45.835  58.456 -56.922  1.00  0.00     0.030 A 
ENDBRANCH  22  26
BRANCH  23  32
HETATM   32  C   UNL     1     -42.373  59.163 -58.281  1.00  0.00     0.315 C 
BRANCH  32  33
HETATM   33  N   UNL     1     -42.084  57.678 -58.338  1.00  0.00    -0.064 N 
HETATM   34  H   UNL     1     -41.058  57.608 -58.229  1.00  0.00     0.280 HD
HETATM   35  C   UNL     1     -42.411  57.031 -59.671  1.00  0.00     0.235 C 
HETATM   36  C   UNL     1     -43.435  55.966 -59.328  1.00  0.00     0.029 C 
HETATM   37  C   UNL     1     -43.049  55.544 -57.925  1.00  0.00     0.029 C 
HETATM   38  C   UNL     1     -42.737  56.866 -57.252  1.00  0.00     0.235 C 
ENDBRANCH  32  33
ENDBRANCH  23  32
ENDBRANCH  20  21
ENDBRANCH   1  20
TORSDOF 9
ENDMDL
MODEL 5
REMARK VINA RESULT:      -7.7      1.883      3.199
REMARK  9 active torsions:
REMARK  status: ('A' for Active; 'I' for Inactive)
REMARK    1  A    between atoms: C_6  and  N_7 
REMARK       I    between atoms: N_7  and  C_8 
REMARK    2  A    between atoms: C_8  and  C_9 
REMARK    3  A    between atoms: C_9  and  N_10 
REMARK       I    between atoms: N_10  and  C_11 
REMARK    4  A    between atoms: C_11  and  C_12 
REMARK    5  A    between atoms: C_12  and  S_13 
REMARK    6  A    between atoms: S_13  and  C_14 
REMARK    7  A    between atoms: N_15  and  C_16 
REMARK    8  A    between atoms: C_22  and  C_23 
REMARK    9  A    between atoms: C_23  and  N_24 
ROOT
HETATM    1  C   UNL     1     -42.209  60.601 -54.225  1.00  0.00     0.185 C 
ENDROOT
BRANCH   1   2
HETATM    2  C   UNL     1     -41.747  59.614 -53.166  1.00  0.00     0.227 C 
HETATM    3  N   UNL     1     -42.756  59.075 -52.400  1.00  0.00    -0.352 N 
HETATM    4  H   UNL     1     -43.699  59.439 -52.478  1.00  0.00     0.162 HD
HETATM    5  O   UNL     1     -40.564  59.358 -52.943  1.00  0.00    -0.273 OA
BRANCH   3   6
HETATM    6  C   UNL     1     -42.507  58.078 -51.366  1.00  0.00     0.225 C 
BRANCH   6   7
HETATM    7  C   UNL     1     -42.504  56.631 -51.882  1.00  0.00     0.239 C 
HETATM    8  N   UNL     1     -41.232  56.154 -52.160  1.00  0.00    -0.325 N 
HETATM    9  H   UNL     1     -40.550  56.899 -52.295  1.00  0.00     0.169 HD
HETATM   10  O   UNL     1     -43.559  56.066 -52.157  1.00  0.00    -0.271 OA
BRANCH   8  11
HETATM   11  C   UNL     1     -40.934  54.897 -52.736  1.00  0.00     0.046 A 
HETATM   12  C   UNL     1     -40.611  53.833 -51.859  1.00  0.00    -0.034 A 
HETATM   13  C   UNL     1     -40.266  52.577 -52.387  1.00  0.00     0.015 A 
HETATM   14  C   UNL     1     -40.554  54.017 -50.366  1.00  0.00     0.050 C 
HETATM   15  C   UNL     1     -40.237  52.357 -53.766  1.00  0.00    -0.061 A 
HETATM   16  C   UNL     1     -39.855  51.019 -54.324  1.00  0.00     0.048 C 
HETATM   17  C   UNL     1     -40.619  53.393 -54.619  1.00  0.00     0.015 A 
HETATM   18  C   UNL     1     -40.993  54.658 -54.125  1.00  0.00    -0.034 A 
HETATM   19  C   UNL     1     -41.457  55.668 -55.141  1.00  0.00     0.050 C 
ENDBRANCH   8  11
ENDBRANCH   6   7
ENDBRANCH   3   6
ENDBRANCH   1   2
BRANCH   1  20
HETATM   20  S   UNL     1     -42.150  59.811 -55.860  1.00  0.00    -0.081 SA
BRANCH  20  21
HETATM   21  C   UNL     1     -43.830  59.486 -56.134  1.00  0.00     0.196 A 
HETATM   22  N   UNL     1     -44.335  58.743 -57.185  1.00  0.00    -0.274 N 
HETATM   23  C   UNL     1     -45.710  58.882 -57.057  1.00  0.00     0.161 A 
HETATM   24  N   UNL     1     -45.992  59.674 -56.042  1.00  0.00    -0.132 NA
HETATM   25  N   UNL     1     -44.814  60.055 -55.473  1.00  0.00    -0.122 NA
BRANCH  22  26
HETATM   26  C   UNL     1     -43.663  57.946 -58.142  1.00  0.00     0.043 A 
HETATM   27  C   UNL     1     -43.019  58.543 -59.231  1.00  0.00     0.030 A 
HETATM   28  C   UNL     1     -42.315  57.750 -60.138  1.00  0.00     0.002 A 
HETATM   29  C   UNL     1     -42.262  56.366 -59.966  1.00  0.00     0.000 A 
HETATM   30  C   UNL     1     -42.911  55.769 -58.887  1.00  0.00     0.002 A 
HETATM   31  C   UNL     1     -43.610  56.554 -57.970  1.00  0.00     0.030 A 
ENDBRANCH  22  26
BRANCH  23  32
HETATM   32  C   UNL     1     -46.745  58.115 -57.794  1.00  0.00     0.315 C 
BRANCH  32  33
HETATM   33  N   UNL     1     -47.216  58.897 -59.002  1.00  0.00    -0.064 N 
HETATM   34  H   UNL     1     -48.245  58.797 -58.992  1.00  0.00     0.280 HD
HETATM   35  C   UNL     1     -46.752  58.330 -60.331  1.00  0.00     0.235 C 
HETATM   36  C   UNL     1     -45.955  59.457 -60.960  1.00  0.00     0.029 C 
HETATM   37  C   UNL     1     -46.632  60.705 -60.432  1.00  0.00     0.029 C 
HETATM   38  C   UNL     1     -46.876  60.363 -58.976  1.00  0.00     0.235 C 
ENDBRANCH  32  33
ENDBRANCH  23  32
ENDBRANCH  20  21
ENDBRANCH   1  20
TORSDOF 9
ENDMDL
MODEL 6
REMARK VINA RESULT:      -7.3      1.962      2.857
REMARK  9 active torsions:
REMARK  status: ('A' for Active; 'I' for Inactive)
REMARK    1  A    between atoms: C_6  and  N_7 
REMARK       I    between atoms: N_7  and  C_8 
REMARK    2  A    between atoms: C_8  and  C_9 
REMARK    3  A    between atoms: C_9  and  N_10 
REMARK       I    between atoms: N_10  and  C_11 
REMARK    4  A    between atoms: C_11  and  C_12 
REMARK    5  A    between atoms: C_12  and  S_13 
REMARK    6  A    between atoms: S_13  and  C_14 
REMARK    7  A    between atoms: N_15  and  C_16 
REMARK    8  A    between atoms: C_22  and  C_23 
REMARK    9  A    between atoms: C_23  and  N_24 
ROOT
HETATM    1  C   UNL     1     -43.010  61.290 -53.788  1.00  0.00     0.185 C 
ENDROOT
BRANCH   1   2
HETATM    2  C   UNL     1     -43.745  60.702 -52.596  1.00  0.00     0.227 C 
HETATM    3  N   UNL     1     -44.061  59.368 -52.712  1.00  0.00    -0.352 N 
HETATM    4  H   UNL     1     -43.920  58.890 -53.595  1.00  0.00     0.162 HD
HETATM    5  O   UNL     1     -44.106  61.366 -51.623  1.00  0.00    -0.273 OA
BRANCH   3   6
HETATM    6  C   UNL     1     -44.727  58.624 -51.650  1.00  0.00     0.225 C 
BRANCH   6   7
HETATM    7  C   UNL     1     -44.111  57.244 -51.373  1.00  0.00     0.239 C 
HETATM    8  N   UNL     1     -43.018  56.963 -52.179  1.00  0.00    -0.325 N 
HETATM    9  H   UNL     1     -42.988  57.537 -53.021  1.00  0.00     0.169 HD
HETATM   10  O   UNL     1     -44.673  56.451 -50.624  1.00  0.00    -0.271 OA
BRANCH   8  11
HETATM   11  C   UNL     1     -42.316  55.735 -52.213  1.00  0.00     0.046 A 
HETATM   12  C   UNL     1     -41.366  55.494 -51.190  1.00  0.00    -0.034 A 
HETATM   13  C   UNL     1     -40.614  54.307 -51.206  1.00  0.00     0.015 A 
HETATM   14  C   UNL     1     -41.079  56.505 -50.112  1.00  0.00     0.050 C 
HETATM   15  C   UNL     1     -40.787  53.357 -52.214  1.00  0.00    -0.061 A 
HETATM   16  C   UNL     1     -39.972  52.099 -52.233  1.00  0.00     0.048 C 
HETATM   17  C   UNL     1     -41.770  53.574 -53.181  1.00  0.00     0.015 A 
HETATM   18  C   UNL     1     -42.558  54.741 -53.183  1.00  0.00    -0.034 A 
HETATM   19  C   UNL     1     -43.635  54.824 -54.232  1.00  0.00     0.050 C 
ENDBRANCH   8  11
ENDBRANCH   6   7
ENDBRANCH   3   6
ENDBRANCH   1   2
BRANCH   1  20
HETATM   20  S   UNL     1     -44.210  61.789 -55.058  1.00  0.00    -0.081 SA
BRANCH  20  21
HETATM   21  C   UNL     1     -44.361  60.322 -55.968  1.00  0.00     0.196 A 
HETATM   22  N   UNL     1     -43.854  60.119 -57.238  1.00  0.00    -0.274 N 
HETATM   23  C   UNL     1     -44.344  58.869 -57.593  1.00  0.00     0.161 A 
HETATM   24  N   UNL     1     -45.108  58.393 -56.630  1.00  0.00    -0.132 NA
HETATM   25  N   UNL     1     -45.122  59.307 -55.620  1.00  0.00    -0.122 NA
BRANCH  22  26
HETATM   26  C   UNL     1     -42.978  60.920 -58.007  1.00  0.00     0.043 A 
HETATM   27  C   UNL     1     -41.615  60.973 -57.699  1.00  0.00     0.030 A 
HETATM   28  C   UNL     1     -40.754  61.726 -58.498  1.00  0.00     0.002 A 
HETATM   29  C   UNL     1     -41.250  62.433 -59.593  1.00  0.00     0.000 A 
HETATM   30  C   UNL     1     -42.610  62.390 -59.896  1.00  0.00     0.002 A 
HETATM   31  C   UNL     1     -43.478  61.633 -59.108  1.00  0.00     0.030 A 
ENDBRANCH  22  26
BRANCH  23  32
HETATM   32  C   UNL     1     -43.932  58.064 -58.769  1.00  0.00     0.315 C 
BRANCH  32  33
HETATM   33  N   UNL     1     -44.635  56.724 -58.760  1.00  0.00    -0.064 N 
HETATM   34  H   UNL     1     -45.038  56.648 -57.810  1.00  0.00     0.280 HD
HETATM   35  C   UNL     1     -43.709  55.532 -58.920  1.00  0.00     0.235 C 
HETATM   36  C   UNL     1     -44.205  54.839 -60.175  1.00  0.00     0.029 C 
HETATM   37  C   UNL     1     -45.692  55.130 -60.173  1.00  0.00     0.029 C 
HETATM   38  C   UNL     1     -45.748  56.588 -59.764  1.00  0.00     0.235 C 
ENDBRANCH  32  33
ENDBRANCH  23  32
ENDBRANCH  20  21
ENDBRANCH   1  20
TORSDOF 9
ENDMDL
MODEL 7
REMARK VINA RESULT:      -7.1      4.145      7.888
REMARK  9 active torsions:
REMARK  status: ('A' for Active; 'I' for Inactive)
REMARK    1  A    between atoms: C_6  and  N_7 
REMARK       I    between atoms: N_7  and  C_8 
REMARK    2  A    between atoms: C_8  and  C_9 
REMARK    3  A    between atoms: C_9  and  N_10 
REMARK       I    between atoms: N_10  and  C_11 
REMARK    4  A    between atoms: C_11  and  C_12 
REMARK    5  A    between atoms: C_12  and  S_13 
REMARK    6  A    between atoms: S_13  and  C_14 
REMARK    7  A    between atoms: N_15  and  C_16 
REMARK    8  A    between atoms: C_22  and  C_23 
REMARK    9  A    between atoms: C_23  and  N_24 
ROOT
HETATM    1  C   UNL     1     -41.305  57.655 -51.950  1.00  0.00     0.185 C 
ENDROOT
BRANCH   1   2
HETATM    2  C   UNL     1     -41.358  59.019 -52.618  1.00  0.00     0.227 C 
HETATM    3  N   UNL     1     -42.416  59.811 -52.231  1.00  0.00    -0.352 N 
HETATM    4  H   UNL     1     -43.152  59.423 -51.651  1.00  0.00     0.162 HD
HETATM    5  O   UNL     1     -40.571  59.380 -53.493  1.00  0.00    -0.273 OA
BRANCH   3   6
HETATM    6  C   UNL     1     -42.604  61.166 -52.732  1.00  0.00     0.225 C 
BRANCH   6   7
HETATM    7  C   UNL     1     -43.556  62.020 -51.880  1.00  0.00     0.239 C 
HETATM    8  N   UNL     1     -43.355  61.865 -50.516  1.00  0.00    -0.325 N 
HETATM    9  H   UNL     1     -42.861  61.004 -50.284  1.00  0.00     0.169 HD
HETATM   10  O   UNL     1     -44.486  62.626 -52.404  1.00  0.00    -0.271 OA
BRANCH   8  11
HETATM   11  C   UNL     1     -44.145  62.449 -49.499  1.00  0.00     0.046 A 
HETATM   12  C   UNL     1     -45.188  61.665 -48.947  1.00  0.00    -0.034 A 
HETATM   13  C   UNL     1     -46.028  62.216 -47.965  1.00  0.00     0.015 A 
HETATM   14  C   UNL     1     -45.479  60.268 -49.429  1.00  0.00     0.050 C 
HETATM   15  C   UNL     1     -45.852  63.528 -47.519  1.00  0.00    -0.061 A 
HETATM   16  C   UNL     1     -46.760  64.116 -46.481  1.00  0.00     0.048 C 
HETATM   17  C   UNL     1     -44.783  64.271 -48.023  1.00  0.00     0.015 A 
HETATM   18  C   UNL     1     -43.908  63.743 -48.991  1.00  0.00    -0.034 A 
HETATM   19  C   UNL     1     -42.749  64.614 -49.398  1.00  0.00     0.050 C 
ENDBRANCH   8  11
ENDBRANCH   6   7
ENDBRANCH   3   6
ENDBRANCH   1   2
BRANCH   1  20
HETATM   20  S   UNL     1     -42.975  56.941 -51.892  1.00  0.00    -0.081 SA
BRANCH  20  21
HETATM   21  C   UNL     1     -43.443  57.055 -53.557  1.00  0.00     0.196 A 
HETATM   22  N   UNL     1     -42.896  56.314 -54.589  1.00  0.00    -0.274 N 
HETATM   23  C   UNL     1     -43.483  56.851 -55.727  1.00  0.00     0.161 A 
HETATM   24  N   UNL     1     -44.277  57.851 -55.398  1.00  0.00    -0.132 NA
HETATM   25  N   UNL     1     -44.243  57.979 -54.042  1.00  0.00    -0.122 NA
BRANCH  22  26
HETATM   26  C   UNL     1     -42.011  55.211 -54.548  1.00  0.00     0.043 A 
HETATM   27  C   UNL     1     -42.481  53.940 -54.201  1.00  0.00     0.030 A 
HETATM   28  C   UNL     1     -41.608  52.852 -54.216  1.00  0.00     0.002 A 
HETATM   29  C   UNL     1     -40.269  53.031 -54.564  1.00  0.00     0.000 A 
HETATM   30  C   UNL     1     -39.796  54.299 -54.900  1.00  0.00     0.002 A 
HETATM   31  C   UNL     1     -40.664  55.392 -54.897  1.00  0.00     0.030 A 
ENDBRANCH  22  26
BRANCH  23  32
HETATM   32  C   UNL     1     -43.419  56.289 -57.099  1.00  0.00     0.315 C 
BRANCH  32  33
HETATM   33  N   UNL     1     -43.564  57.392 -58.125  1.00  0.00    -0.064 N 
HETATM   34  H   UNL     1     -43.891  58.210 -57.584  1.00  0.00     0.280 HD
HETATM   35  C   UNL     1     -44.626  57.130 -59.177  1.00  0.00     0.235 C 
HETATM   36  C   UNL     1     -43.866  57.156 -60.490  1.00  0.00     0.029 C 
HETATM   37  C   UNL     1     -42.745  58.140 -60.228  1.00  0.00     0.029 C 
HETATM   38  C   UNL     1     -42.288  57.766 -58.832  1.00  0.00     0.235 C 
ENDBRANCH  32  33
ENDBRANCH  23  32
ENDBRANCH  20  21
ENDBRANCH   1  20
TORSDOF 9
ENDMDL
MODEL 8
REMARK VINA RESULT:      -7.1      2.920      8.854
REMARK  9 active torsions:
REMARK  status: ('A' for Active; 'I' for Inactive)
REMARK    1  A    between atoms: C_6  and  N_7 
REMARK       I    between atoms: N_7  and  C_8 
REMARK    2  A    between atoms: C_8  and  C_9 
REMARK    3  A    between atoms: C_9  and  N_10 
REMARK       I    between atoms: N_10  and  C_11 
REMARK    4  A    between atoms: C_11  and  C_12 
REMARK    5  A    between atoms: C_12  and  S_13 
REMARK    6  A    between atoms: S_13  and  C_14 
REMARK    7  A    between atoms: N_15  and  C_16 
REMARK    8  A    between atoms: C_22  and  C_23 
REMARK    9  A    between atoms: C_23  and  N_24 
ROOT
HETATM    1  C   UNL     1     -42.859  55.259 -56.545  1.00  0.00     0.185 C 
ENDROOT
BRANCH   1   2
HETATM    2  C   UNL     1     -43.241  55.977 -57.828  1.00  0.00     0.227 C 
HETATM    3  N   UNL     1     -44.341  56.799 -57.724  1.00  0.00    -0.352 N 
HETATM    4  H   UNL     1     -44.902  56.787 -56.880  1.00  0.00     0.162 HD
HETATM    5  O   UNL     1     -42.672  55.798 -58.905  1.00  0.00    -0.273 OA
BRANCH   3   6
HETATM    6  C   UNL     1     -44.827  57.602 -58.839  1.00  0.00     0.225 C 
BRANCH   6   7
HETATM    7  C   UNL     1     -44.239  59.019 -58.892  1.00  0.00     0.239 C 
HETATM    8  N   UNL     1     -42.906  59.043 -59.278  1.00  0.00    -0.325 N 
HETATM    9  H   UNL     1     -42.442  58.144 -59.152  1.00  0.00     0.169 HD
HETATM   10  O   UNL     1     -44.879  59.975 -58.464  1.00  0.00    -0.271 OA
BRANCH   8  11
HETATM   11  C   UNL     1     -42.084  60.193 -59.318  1.00  0.00     0.046 A 
HETATM   12  C   UNL     1     -41.893  60.819 -60.575  1.00  0.00    -0.034 A 
HETATM   13  C   UNL     1     -41.050  61.939 -60.673  1.00  0.00     0.015 A 
HETATM   14  C   UNL     1     -42.513  60.282 -61.838  1.00  0.00     0.050 C 
HETATM   15  C   UNL     1     -40.394  62.448 -59.550  1.00  0.00    -0.061 A 
HETATM   16  C   UNL     1     -39.484  63.635 -59.663  1.00  0.00     0.048 C 
HETATM   17  C   UNL     1     -40.638  61.864 -58.307  1.00  0.00     0.015 A 
HETATM   18  C   UNL     1     -41.494  60.755 -58.167  1.00  0.00    -0.034 A 
HETATM   19  C   UNL     1     -41.736  60.262 -56.765  1.00  0.00     0.050 C 
ENDBRANCH   8  11
ENDBRANCH   6   7
ENDBRANCH   3   6
ENDBRANCH   1   2
BRANCH   1  20
HETATM   20  S   UNL     1     -41.813  56.342 -55.529  1.00  0.00    -0.081 SA
BRANCH  20  21
HETATM   21  C   UNL     1     -42.975  56.972 -54.409  1.00  0.00     0.196 A 
HETATM   22  N   UNL     1     -43.124  56.554 -53.099  1.00  0.00    -0.274 N 
HETATM   23  C   UNL     1     -44.251  57.237 -52.661  1.00  0.00     0.161 A 
HETATM   24  N   UNL     1     -44.748  57.964 -53.641  1.00  0.00    -0.132 NA
HETATM   25  N   UNL     1     -43.952  57.790 -54.733  1.00  0.00    -0.122 NA
BRANCH  22  26
HETATM   26  C   UNL     1     -42.309  55.702 -52.318  1.00  0.00     0.043 A 
HETATM   27  C   UNL     1     -41.408  56.239 -51.392  1.00  0.00     0.030 A 
HETATM   28  C   UNL     1     -40.648  55.386 -50.591  1.00  0.00     0.002 A 
HETATM   29  C   UNL     1     -40.777  54.003 -50.719  1.00  0.00     0.000 A 
HETATM   30  C   UNL     1     -41.667  53.465 -51.648  1.00  0.00     0.002 A 
HETATM   31  C   UNL     1     -42.437  54.310 -52.447  1.00  0.00     0.030 A 
ENDBRANCH  22  26
BRANCH  23  32
HETATM   32  C   UNL     1     -44.736  57.328 -51.261  1.00  0.00     0.315 C 
BRANCH  32  33
HETATM   33  N   UNL     1     -44.371  58.672 -50.667  1.00  0.00    -0.064 N 
HETATM   34  H   UNL     1     -44.127  58.463 -49.683  1.00  0.00     0.280 HD
HETATM   35  C   UNL     1     -45.520  59.662 -50.614  1.00  0.00     0.235 C 
HETATM   36  C   UNL     1     -45.037  60.839 -51.440  1.00  0.00     0.029 C 
HETATM   37  C   UNL     1     -43.536  60.826 -51.227  1.00  0.00     0.029 C 
HETATM   38  C   UNL     1     -43.197  59.352 -51.319  1.00  0.00     0.235 C 
ENDBRANCH  32  33
ENDBRANCH  23  32
ENDBRANCH  20  21
ENDBRANCH   1  20
TORSDOF 9
ENDMDL
MODEL 9
REMARK VINA RESULT:      -7.1      4.515      8.759
REMARK  9 active torsions:
REMARK  status: ('A' for Active; 'I' for Inactive)
REMARK    1  A    between atoms: C_6  and  N_7 
REMARK       I    between atoms: N_7  and  C_8 
REMARK    2  A    between atoms: C_8  and  C_9 
REMARK    3  A    between atoms: C_9  and  N_10 
REMARK       I    between atoms: N_10  and  C_11 
REMARK    4  A    between atoms: C_11  and  C_12 
REMARK    5  A    between atoms: C_12  and  S_13 
REMARK    6  A    between atoms: S_13  and  C_14 
REMARK    7  A    between atoms: N_15  and  C_16 
REMARK    8  A    between atoms: C_22  and  C_23 
REMARK    9  A    between atoms: C_23  and  N_24 
ROOT
HETATM    1  C   UNL     1     -44.397  58.814 -55.042  1.00  0.00     0.185 C 
ENDROOT
BRANCH   1   2
HETATM    2  C   UNL     1     -44.782  60.267 -54.816  1.00  0.00     0.227 C 
HETATM    3  N   UNL     1     -45.953  60.452 -54.117  1.00  0.00    -0.352 N 
HETATM    4  H   UNL     1     -46.550  59.658 -53.912  1.00  0.00     0.162 HD
HETATM    5  O   UNL     1     -44.151  61.219 -55.275  1.00  0.00    -0.273 OA
BRANCH   3   6
HETATM    6  C   UNL     1     -46.458  61.774 -53.768  1.00  0.00     0.225 C 
BRANCH   6   7
HETATM    7  C   UNL     1     -45.895  62.328 -52.451  1.00  0.00     0.239 C 
HETATM    8  N   UNL     1     -46.393  61.682 -51.329  1.00  0.00    -0.325 N 
HETATM    9  H   UNL     1     -47.265  61.186 -51.512  1.00  0.00     0.169 HD
HETATM   10  O   UNL     1     -45.209  63.347 -52.447  1.00  0.00    -0.271 OA
BRANCH   8  11
HETATM   11  C   UNL     1     -46.127  62.043 -49.987  1.00  0.00     0.046 A 
HETATM   12  C   UNL     1     -44.956  61.520 -49.387  1.00  0.00    -0.034 A 
HETATM   13  C   UNL     1     -44.672  61.816 -48.043  1.00  0.00     0.015 A 
HETATM   14  C   UNL     1     -44.026  60.592 -50.123  1.00  0.00     0.050 C 
HETATM   15  C   UNL     1     -45.526  62.619 -47.286  1.00  0.00    -0.061 A 
HETATM   16  C   UNL     1     -45.226  62.920 -45.847  1.00  0.00     0.048 C 
HETATM   17  C   UNL     1     -46.645  63.181 -47.904  1.00  0.00     0.015 A 
HETATM   18  C   UNL     1     -46.948  62.925 -49.254  1.00  0.00    -0.034 A 
HETATM   19  C   UNL     1     -48.137  63.650 -49.827  1.00  0.00     0.050 C 
ENDBRANCH   8  11
ENDBRANCH   6   7
ENDBRANCH   3   6
ENDBRANCH   1   2
BRANCH   1  20
HETATM   20  S   UNL     1     -44.691  57.863 -53.523  1.00  0.00    -0.081 SA
BRANCH  20  21
HETATM   21  C   UNL     1     -43.648  56.503 -53.775  1.00  0.00     0.196 A 
HETATM   22  N   UNL     1     -42.317  56.441 -53.400  1.00  0.00    -0.274 N 
HETATM   23  C   UNL     1     -41.881  55.234 -53.930  1.00  0.00     0.161 A 
HETATM   24  N   UNL     1     -42.859  54.653 -54.596  1.00  0.00    -0.132 NA
HETATM   25  N   UNL     1     -43.958  55.453 -54.503  1.00  0.00    -0.122 NA
BRANCH  22  26
HETATM   26  C   UNL     1     -41.555  57.325 -52.601  1.00  0.00     0.043 A 
HETATM   27  C   UNL     1     -41.667  57.293 -51.207  1.00  0.00     0.030 A 
HETATM   28  C   UNL     1     -40.871  58.135 -50.430  1.00  0.00     0.002 A 
HETATM   29  C   UNL     1     -39.974  59.013 -51.038  1.00  0.00     0.000 A 
HETATM   30  C   UNL     1     -39.869  59.054 -52.428  1.00  0.00     0.002 A 
HETATM   31  C   UNL     1     -40.655  58.210 -53.214  1.00  0.00     0.030 A 
ENDBRANCH  22  26
BRANCH  23  32
HETATM   32  C   UNL     1     -40.589  54.564 -53.645  1.00  0.00     0.315 C 
BRANCH  32  33
HETATM   33  N   UNL     1     -40.819  53.109 -53.294  1.00  0.00    -0.064 N 
HETATM   34  H   UNL     1     -41.847  53.000 -53.299  1.00  0.00     0.280 HD
HETATM   35  C   UNL     1     -40.362  52.724 -51.900  1.00  0.00     0.235 C 
HETATM   36  C   UNL     1     -39.332  51.635 -52.131  1.00  0.00     0.029 C 
HETATM   37  C   UNL     1     -39.816  50.956 -53.396  1.00  0.00     0.029 C 
HETATM   38  C   UNL     1     -40.228  52.125 -54.268  1.00  0.00     0.235 C 
ENDBRANCH  32  33
ENDBRANCH  23  32
ENDBRANCH  20  21
ENDBRANCH   1  20
TORSDOF 9
ENDMDL
MODEL 10
REMARK VINA RESULT:      -7.1      2.281      7.551
REMARK  9 active torsions:
REMARK  status: ('A' for Active; 'I' for Inactive)
REMARK    1  A    between atoms: C_6  and  N_7 
REMARK       I    between atoms: N_7  and  C_8 
REMARK    2  A    between atoms: C_8  and  C_9 
REMARK    3  A    between atoms: C_9  and  N_10 
REMARK       I    between atoms: N_10  and  C_11 
REMARK    4  A    between atoms: C_11  and  C_12 
REMARK    5  A    between atoms: C_12  and  S_13 
REMARK    6  A    between atoms: S_13  and  C_14 
REMARK    7  A    between atoms: N_15  and  C_16 
REMARK    8  A    between atoms: C_22  and  C_23 
REMARK    9  A    between atoms: C_23  and  N_24 
ROOT
HETATM    1  C   UNL     1     -43.350  60.515 -53.839  1.00  0.00     0.185 C 
ENDROOT
BRANCH   1   2
HETATM    2  C   UNL     1     -43.127  60.710 -55.329  1.00  0.00     0.227 C 
HETATM    3  N   UNL     1     -42.083  59.985 -55.856  1.00  0.00    -0.352 N 
HETATM    4  H   UNL     1     -41.454  59.483 -55.239  1.00  0.00     0.162 HD
HETATM    5  O   UNL     1     -43.769  61.504 -56.016  1.00  0.00    -0.273 OA
BRANCH   3   6
HETATM    6  C   UNL     1     -41.748  60.010 -57.274  1.00  0.00     0.225 C 
BRANCH   6   7
HETATM    7  C   UNL     1     -42.937  59.719 -58.202  1.00  0.00     0.239 C 
HETATM    8  N   UNL     1     -43.514  58.478 -57.977  1.00  0.00    -0.325 N 
HETATM    9  H   UNL     1     -42.892  57.836 -57.487  1.00  0.00     0.169 HD
HETATM   10  O   UNL     1     -43.196  60.473 -59.136  1.00  0.00    -0.271 OA
BRANCH   8  11
HETATM   11  C   UNL     1     -44.557  57.906 -58.743  1.00  0.00     0.046 A 
HETATM   12  C   UNL     1     -44.202  56.941 -59.716  1.00  0.00    -0.034 A 
HETATM   13  C   UNL     1     -45.199  56.377 -60.531  1.00  0.00     0.015 A 
HETATM   14  C   UNL     1     -42.771  56.541 -59.962  1.00  0.00     0.050 C 
HETATM   15  C   UNL     1     -46.537  56.752 -60.398  1.00  0.00    -0.061 A 
HETATM   16  C   UNL     1     -47.594  56.157 -61.280  1.00  0.00     0.048 C 
HETATM   17  C   UNL     1     -46.885  57.656 -59.393  1.00  0.00     0.015 A 
HETATM   18  C   UNL     1     -45.916  58.224 -58.543  1.00  0.00    -0.034 A 
HETATM   19  C   UNL     1     -46.425  59.127 -57.451  1.00  0.00     0.050 C 
ENDBRANCH   8  11
ENDBRANCH   6   7
ENDBRANCH   3   6
ENDBRANCH   1   2
BRANCH   1  20
HETATM   20  S   UNL     1     -44.455  59.099 -53.568  1.00  0.00    -0.081 SA
BRANCH  20  21
HETATM   21  C   UNL     1     -43.502  57.805 -54.219  1.00  0.00     0.196 A 
HETATM   22  N   UNL     1     -42.243  57.443 -53.775  1.00  0.00    -0.274 N 
HETATM   23  C   UNL     1     -41.841  56.470 -54.680  1.00  0.00     0.161 A 
HETATM   24  N   UNL     1     -42.767  56.301 -55.603  1.00  0.00    -0.132 NA
HETATM   25  N   UNL     1     -43.799  57.143 -55.315  1.00  0.00    -0.122 NA
BRANCH  22  26
HETATM   26  C   UNL     1     -41.524  57.870 -52.634  1.00  0.00     0.043 A 
HETATM   27  C   UNL     1     -41.847  57.372 -51.368  1.00  0.00     0.030 A 
HETATM   28  C   UNL     1     -41.095  57.762 -50.259  1.00  0.00     0.002 A 
HETATM   29  C   UNL     1     -40.032  58.652 -50.409  1.00  0.00     0.000 A 
HETATM   30  C   UNL     1     -39.714  59.157 -51.669  1.00  0.00     0.002 A 
HETATM   31  C   UNL     1     -40.455  58.767 -52.785  1.00  0.00     0.030 A 
ENDBRANCH  22  26
BRANCH  23  32
HETATM   32  C   UNL     1     -40.658  55.584 -54.551  1.00  0.00     0.315 C 
BRANCH  32  33
HETATM   33  N   UNL     1     -41.088  54.189 -54.153  1.00  0.00    -0.064 N 
HETATM   34  H   UNL     1     -42.045  54.092 -54.536  1.00  0.00     0.280 HD
HETATM   35  C   UNL     1     -41.211  53.978 -52.656  1.00  0.00     0.235 C 
HETATM   36  C   UNL     1     -40.236  52.856 -52.355  1.00  0.00     0.029 C 
HETATM   37  C   UNL     1     -40.250  52.028 -53.624  1.00  0.00     0.029 C 
HETATM   38  C   UNL     1     -40.235  53.082 -54.713  1.00  0.00     0.235 C 
ENDBRANCH  32  33
ENDBRANCH  23  32
ENDBRANCH  20  21
ENDBRANCH   1  20
TORSDOF 9
ENDMDL
