MODEL 1
REMARK VINA RESULT:      -8.2      0.000      0.000
REMARK  6 active torsions:
REMARK  status: ('A' for Active; 'I' for Inactive)
REMARK    1  A    between atoms: C_4  and  C_5 
REMARK    2  A    between atoms: C_5  and  N_6 
REMARK    3  A    between atoms: C_8  and  C_9 
REMARK       I    between atoms: C_9  and  N_10 
REMARK    4  A    between atoms: N_13  and  C_15 
REMARK    5  A    between atoms: C_29  and  S_30 
REMARK    6  A    between atoms: S_30  and  C_31 
ROOT
HETATM    1  N   UNL     1     -43.616  56.847 -55.016  1.00  0.00    -0.053 N 
HETATM    2  H   UNL     1     -44.423  56.830 -54.379  1.00  0.00     0.281 HD
HETATM    3  C   UNL     1     -42.489  57.545 -54.208  1.00  0.00     0.281 C 
HETATM    4  C   UNL     1     -41.270  56.710 -54.584  1.00  0.00     0.060 C 
HETATM    5  C   UNL     1     -41.793  55.277 -54.541  1.00  0.00     0.083 C 
HETATM    6  C   UNL     1     -43.170  55.388 -55.202  1.00  0.00     0.252 C 
ENDROOT
BRANCH   3   7
HETATM    7  C   UNL     1     -42.303  59.074 -54.310  1.00  0.00     0.251 C 
HETATM    8  N   UNL     1     -43.200  59.916 -53.655  1.00  0.00    -0.347 N 
HETATM    9  C   UNL     1     -42.928  61.358 -53.638  1.00  0.00     0.153 C 
HETATM   10  C   UNL     1     -44.579  59.598 -53.277  1.00  0.00     0.153 C 
HETATM   11  C   UNL     1     -43.173  61.951 -52.240  1.00  0.00     0.255 C 
HETATM   12  N   UNL     1     -44.571  61.612 -51.689  1.00  0.00    -0.063 N 
HETATM   13  H   UNL     1     -45.249  62.156 -52.238  1.00  0.00     0.280 HD
HETATM   14  C   UNL     1     -44.915  60.124 -51.869  1.00  0.00     0.255 C 
HETATM   15  O   UNL     1     -41.384  59.552 -54.972  1.00  0.00    -0.271 OA
BRANCH  12  16
HETATM   16  C   UNL     1     -44.706  62.036 -50.201  1.00  0.00     0.196 C 
HETATM   17  C   UNL     1     -44.246  63.499 -49.962  1.00  0.00     0.017 C 
HETATM   18  C   UNL     1     -45.187  64.497 -50.660  1.00  0.00     0.011 C 
HETATM   19  C   UNL     1     -44.273  63.773 -48.443  1.00  0.00     0.011 C 
HETATM   20  C   UNL     1     -46.620  64.334 -50.128  1.00  0.00    -0.013 C 
HETATM   21  C   UNL     1     -47.101  62.896 -50.388  1.00  0.00     0.011 C 
HETATM   22  C   UNL     1     -46.630  64.602 -48.613  1.00  0.00     0.009 C 
HETATM   23  C   UNL     1     -46.167  61.890 -49.690  1.00  0.00     0.017 C 
HETATM   24  C   UNL     1     -46.181  62.177 -48.174  1.00  0.00     0.011 C 
HETATM   25  C   UNL     1     -45.700  63.609 -47.897  1.00  0.00    -0.013 C 
ENDBRANCH  12  16
ENDBRANCH   3   7
BRANCH   1  26
HETATM   26  C   UNL     1     -44.194  57.472 -56.281  1.00  0.00     0.274 C 
BRANCH  26  27
HETATM   27  C   UNL     1     -43.426  57.312 -57.572  1.00  0.00    -0.033 A 
HETATM   28  C   UNL     1     -43.668  56.201 -58.402  1.00  0.00     0.009 A 
HETATM   29  C   UNL     1     -42.990  56.041 -59.611  1.00  0.00     0.001 A 
HETATM   30  C   UNL     1     -42.072  57.001 -60.025  1.00  0.00     0.000 A 
HETATM   31  C   UNL     1     -41.841  58.122 -59.233  1.00  0.00     0.001 A 
HETATM   32  C   UNL     1     -42.514  58.278 -58.017  1.00  0.00     0.009 A 
ENDBRANCH  26  27
ENDBRANCH   1  26
BRANCH   5  33
HETATM   33  S   UNL     1     -41.907  54.709 -52.800  1.00  0.00    -0.084 SA
BRANCH  33  34
HETATM   34  C   UNL     1     -40.963  53.203 -52.908  1.00  0.00     0.188 A 
HETATM   35  N   UNL     1     -40.201  52.862 -51.856  1.00  0.00    -0.235 NA
HETATM   36  C   UNL     1     -39.508  51.711 -51.981  1.00  0.00     0.121 A 
HETATM   37  C   UNL     1     -39.517  50.941 -53.120  1.00  0.00     0.038 A 
HETATM   38  C   UNL     1     -40.292  51.414 -54.151  1.00  0.00     0.121 A 
HETATM   39  N   UNL     1     -41.018  52.548 -54.073  1.00  0.00    -0.235 NA
ENDBRANCH  33  34
ENDBRANCH   5  33
TORSDOF 6
ENDMDL
MODEL 2
REMARK VINA RESULT:      -8.2      2.871      8.136
REMARK  6 active torsions:
REMARK  status: ('A' for Active; 'I' for Inactive)
REMARK    1  A    between atoms: C_4  and  C_5 
REMARK    2  A    between atoms: C_5  and  N_6 
REMARK    3  A    between atoms: C_8  and  C_9 
REMARK       I    between atoms: C_9  and  N_10 
REMARK    4  A    between atoms: N_13  and  C_15 
REMARK    5  A    between atoms: C_29  and  S_30 
REMARK    6  A    between atoms: S_30  and  C_31 
ROOT
HETATM    1  N   UNL     1     -41.637  54.464 -53.311  1.00  0.00    -0.053 N 
HETATM    2  H   UNL     1     -42.268  53.749 -52.925  1.00  0.00     0.281 HD
HETATM    3  C   UNL     1     -42.575  55.485 -54.009  1.00  0.00     0.281 C 
HETATM    4  C   UNL     1     -41.931  56.814 -53.627  1.00  0.00     0.060 C 
HETATM    5  C   UNL     1     -41.572  56.627 -52.157  1.00  0.00     0.083 C 
HETATM    6  C   UNL     1     -41.019  55.199 -52.111  1.00  0.00     0.252 C 
ENDROOT
BRANCH   3   7
HETATM    7  C   UNL     1     -42.917  55.318 -55.504  1.00  0.00     0.251 C 
HETATM    8  N   UNL     1     -43.157  56.449 -56.281  1.00  0.00    -0.347 N 
HETATM    9  C   UNL     1     -43.335  56.286 -57.729  1.00  0.00     0.153 C 
HETATM   10  C   UNL     1     -43.612  57.756 -55.802  1.00  0.00     0.153 C 
HETATM   11  C   UNL     1     -42.558  57.360 -58.507  1.00  0.00     0.255 C 
HETATM   12  N   UNL     1     -42.887  58.789 -58.035  1.00  0.00    -0.063 N 
HETATM   13  H   UNL     1     -43.845  58.994 -58.349  1.00  0.00     0.280 HD
HETATM   14  C   UNL     1     -42.866  58.907 -56.502  1.00  0.00     0.255 C 
HETATM   15  O   UNL     1     -42.992  54.199 -56.010  1.00  0.00    -0.271 OA
BRANCH  12  16
HETATM   16  C   UNL     1     -41.935  59.829 -58.685  1.00  0.00     0.196 C 
HETATM   17  C   UNL     1     -42.430  60.288 -60.082  1.00  0.00     0.017 C 
HETATM   18  C   UNL     1     -43.741  61.089 -59.970  1.00  0.00     0.011 C 
HETATM   19  C   UNL     1     -41.349  61.196 -60.706  1.00  0.00     0.011 C 
HETATM   20  C   UNL     1     -43.530  62.328 -59.086  1.00  0.00    -0.013 C 
HETATM   21  C   UNL     1     -43.069  61.885 -57.687  1.00  0.00     0.011 C 
HETATM   22  C   UNL     1     -42.444  63.218 -59.715  1.00  0.00     0.009 C 
HETATM   23  C   UNL     1     -41.756  61.086 -57.789  1.00  0.00     0.017 C 
HETATM   24  C   UNL     1     -40.680  61.989 -58.429  1.00  0.00     0.011 C 
HETATM   25  C   UNL     1     -41.124  62.437 -59.829  1.00  0.00    -0.013 C 
ENDBRANCH  12  16
ENDBRANCH   3   7
BRANCH   1  26
HETATM   26  C   UNL     1     -40.630  53.637 -54.102  1.00  0.00     0.274 C 
BRANCH  26  27
HETATM   27  C   UNL     1     -40.286  52.255 -53.595  1.00  0.00    -0.033 A 
HETATM   28  C   UNL     1     -40.313  51.156 -54.476  1.00  0.00     0.009 A 
HETATM   29  C   UNL     1     -39.976  49.874 -54.040  1.00  0.00     0.001 A 
HETATM   30  C   UNL     1     -39.586  49.668 -52.721  1.00  0.00     0.000 A 
HETATM   31  C   UNL     1     -39.525  50.746 -51.843  1.00  0.00     0.001 A 
HETATM   32  C   UNL     1     -39.870  52.030 -52.277  1.00  0.00     0.009 A 
ENDBRANCH  26  27
ENDBRANCH   1  26
BRANCH   5  33
HETATM   33  S   UNL     1     -43.075  56.817 -51.120  1.00  0.00    -0.084 SA
BRANCH  33  34
HETATM   34  C   UNL     1     -43.667  58.383 -51.728  1.00  0.00     0.188 A 
HETATM   35  N   UNL     1     -44.827  58.396 -52.405  1.00  0.00    -0.235 NA
HETATM   36  C   UNL     1     -45.239  59.604 -52.841  1.00  0.00     0.121 A 
HETATM   37  C   UNL     1     -44.515  60.761 -52.668  1.00  0.00     0.038 A 
HETATM   38  C   UNL     1     -43.319  60.618 -52.006  1.00  0.00     0.121 A 
HETATM   39  N   UNL     1     -42.868  59.438 -51.534  1.00  0.00    -0.235 NA
ENDBRANCH  33  34
ENDBRANCH   5  33
TORSDOF 6
ENDMDL
MODEL 3
REMARK VINA RESULT:      -8.1      3.325     10.658
REMARK  6 active torsions:
REMARK  status: ('A' for Active; 'I' for Inactive)
REMARK    1  A    between atoms: C_4  and  C_5 
REMARK    2  A    between atoms: C_5  and  N_6 
REMARK    3  A    between atoms: C_8  and  C_9 
REMARK       I    between atoms: C_9  and  N_10 
REMARK    4  A    between atoms: N_13  and  C_15 
REMARK    5  A    between atoms: C_29  and  S_30 
REMARK    6  A    between atoms: S_30  and  C_31 
ROOT
HETATM    1  N   UNL     1     -46.028  62.675 -50.677  1.00  0.00    -0.053 N 
HETATM    2  H   UNL     1     -46.626  61.925 -50.305  1.00  0.00     0.281 HD
HETATM    3  C   UNL     1     -45.118  61.975 -51.722  1.00  0.00     0.281 C 
HETATM    4  C   UNL     1     -45.085  63.004 -52.847  1.00  0.00     0.060 C 
HETATM    5  C   UNL     1     -46.531  63.480 -52.937  1.00  0.00     0.083 C 
HETATM    6  C   UNL     1     -46.945  63.619 -51.469  1.00  0.00     0.252 C 
ENDROOT
BRANCH   3   7
HETATM    7  C   UNL     1     -43.746  61.414 -51.294  1.00  0.00     0.251 C 
HETATM    8  N   UNL     1     -43.505  60.045 -51.398  1.00  0.00    -0.347 N 
HETATM    9  C   UNL     1     -42.152  59.544 -51.128  1.00  0.00     0.153 C 
HETATM   10  C   UNL     1     -44.510  58.979 -51.396  1.00  0.00     0.153 C 
HETATM   11  C   UNL     1     -41.726  58.505 -52.178  1.00  0.00     0.255 C 
HETATM   12  N   UNL     1     -42.751  57.366 -52.334  1.00  0.00    -0.063 N 
HETATM   13  H   UNL     1     -42.695  56.795 -51.481  1.00  0.00     0.280 HD
HETATM   14  C   UNL     1     -44.190  57.898 -52.444  1.00  0.00     0.255 C 
HETATM   15  O   UNL     1     -42.873  62.158 -50.852  1.00  0.00    -0.271 OA
BRANCH  12  16
HETATM   16  C   UNL     1     -42.402  56.457 -53.544  1.00  0.00     0.196 C 
HETATM   17  C   UNL     1     -40.950  55.914 -53.472  1.00  0.00     0.017 C 
HETATM   18  C   UNL     1     -40.781  54.941 -52.290  1.00  0.00     0.011 C 
HETATM   19  C   UNL     1     -40.650  55.155 -54.782  1.00  0.00     0.011 C 
HETATM   20  C   UNL     1     -41.748  53.757 -52.436  1.00  0.00    -0.013 C 
HETATM   21  C   UNL     1     -43.194  54.280 -52.477  1.00  0.00     0.011 C 
HETATM   22  C   UNL     1     -41.444  53.015 -53.751  1.00  0.00     0.009 C 
HETATM   23  C   UNL     1     -43.374  55.251 -53.659  1.00  0.00     0.017 C 
HETATM   24  C   UNL     1     -43.057  54.496 -54.968  1.00  0.00     0.011 C 
HETATM   25  C   UNL     1     -41.614  53.970 -54.944  1.00  0.00    -0.013 C 
ENDBRANCH  12  16
ENDBRANCH   3   7
BRANCH   1  26
HETATM   26  C   UNL     1     -45.451  63.305 -49.414  1.00  0.00     0.274 C 
BRANCH  26  27
HETATM   27  C   UNL     1     -45.441  62.483 -48.146  1.00  0.00    -0.033 A 
HETATM   28  C   UNL     1     -45.198  63.105 -46.906  1.00  0.00     0.009 A 
HETATM   29  C   UNL     1     -45.207  62.374 -45.718  1.00  0.00     0.001 A 
HETATM   30  C   UNL     1     -45.479  61.010 -45.743  1.00  0.00     0.000 A 
HETATM   31  C   UNL     1     -45.751  60.382 -46.955  1.00  0.00     0.001 A 
HETATM   32  C   UNL     1     -45.734  61.113 -48.147  1.00  0.00     0.009 A 
ENDBRANCH  26  27
ENDBRANCH   1  26
BRANCH   5  33
HETATM   33  S   UNL     1     -47.542  62.233 -53.825  1.00  0.00    -0.084 SA
BRANCH  33  34
HETATM   34  C   UNL     1     -49.172  62.863 -53.483  1.00  0.00     0.188 A 
HETATM   35  N   UNL     1     -50.055  62.037 -52.898  1.00  0.00    -0.235 NA
HETATM   36  C   UNL     1     -51.275  62.559 -52.653  1.00  0.00     0.121 A 
HETATM   37  C   UNL     1     -51.641  63.834 -53.015  1.00  0.00     0.038 A 
HETATM   38  C   UNL     1     -50.672  64.571 -53.652  1.00  0.00     0.121 A 
HETATM   39  N   UNL     1     -49.432  64.104 -53.906  1.00  0.00    -0.235 NA
ENDBRANCH  33  34
ENDBRANCH   5  33
TORSDOF 6
ENDMDL
MODEL 4
REMARK VINA RESULT:      -7.9      4.953      8.438
REMARK  6 active torsions:
REMARK  status: ('A' for Active; 'I' for Inactive)
REMARK    1  A    between atoms: C_4  and  C_5 
REMARK    2  A    between atoms: C_5  and  N_6 
REMARK    3  A    between atoms: C_8  and  C_9 
REMARK       I    between atoms: C_9  and  N_10 
REMARK    4  A    between atoms: N_13  and  C_15 
REMARK    5  A    between atoms: C_29  and  S_30 
REMARK    6  A    between atoms: S_30  and  C_31 
ROOT
HETATM    1  N   UNL     1     -43.127  59.667 -59.673  1.00  0.00    -0.053 N 
HETATM    2  H   UNL     1     -42.430  58.921 -59.554  1.00  0.00     0.281 HD
HETATM    3  C   UNL     1     -43.401  60.186 -58.236  1.00  0.00     0.281 C 
HETATM    4  C   UNL     1     -43.486  61.692 -58.457  1.00  0.00     0.060 C 
HETATM    5  C   UNL     1     -42.339  61.976 -59.423  1.00  0.00     0.083 C 
HETATM    6  C   UNL     1     -42.424  60.814 -60.417  1.00  0.00     0.252 C 
ENDROOT
BRANCH   3   7
HETATM    7  C   UNL     1     -44.545  59.572 -57.402  1.00  0.00     0.251 C 
HETATM    8  N   UNL     1     -44.269  58.512 -56.540  1.00  0.00    -0.347 N 
HETATM    9  C   UNL     1     -45.331  58.035 -55.646  1.00  0.00     0.153 C 
HETATM   10  C   UNL     1     -43.158  57.563 -56.651  1.00  0.00     0.153 C 
HETATM   11  C   UNL     1     -44.792  57.787 -54.228  1.00  0.00     0.255 C 
HETATM   12  N   UNL     1     -43.558  56.864 -54.216  1.00  0.00    -0.063 N 
HETATM   13  H   UNL     1     -43.890  55.919 -54.452  1.00  0.00     0.280 HD
HETATM   14  C   UNL     1     -42.524  57.272 -55.279  1.00  0.00     0.255 C 
HETATM   15  O   UNL     1     -45.694  59.999 -57.501  1.00  0.00    -0.271 OA
BRANCH  12  16
HETATM   16  C   UNL     1     -42.911  56.808 -52.806  1.00  0.00     0.196 C 
HETATM   17  C   UNL     1     -43.516  55.681 -51.925  1.00  0.00     0.017 C 
HETATM   18  C   UNL     1     -43.166  54.291 -52.487  1.00  0.00     0.011 C 
HETATM   19  C   UNL     1     -42.923  55.804 -50.505  1.00  0.00     0.011 C 
HETATM   20  C   UNL     1     -41.641  54.112 -52.544  1.00  0.00    -0.013 C 
HETATM   21  C   UNL     1     -41.032  55.204 -53.440  1.00  0.00     0.011 C 
HETATM   22  C   UNL     1     -41.063  54.246 -51.124  1.00  0.00     0.009 C 
HETATM   23  C   UNL     1     -41.374  56.599 -52.884  1.00  0.00     0.017 C 
HETATM   24  C   UNL     1     -40.795  56.714 -51.458  1.00  0.00     0.011 C 
HETATM   25  C   UNL     1     -41.397  55.632 -50.548  1.00  0.00    -0.013 C 
ENDBRANCH  12  16
ENDBRANCH   3   7
BRANCH   1  26
HETATM   26  C   UNL     1     -44.216  58.986 -60.495  1.00  0.00     0.274 C 
BRANCH  26  27
HETATM   27  C   UNL     1     -44.459  57.511 -60.276  1.00  0.00    -0.033 A 
HETATM   28  C   UNL     1     -45.769  56.998 -60.329  1.00  0.00     0.009 A 
HETATM   29  C   UNL     1     -46.019  55.636 -60.154  1.00  0.00     0.001 A 
HETATM   30  C   UNL     1     -44.962  54.757 -59.943  1.00  0.00     0.000 A 
HETATM   31  C   UNL     1     -43.657  55.240 -59.917  1.00  0.00     0.001 A 
HETATM   32  C   UNL     1     -43.406  56.606 -60.084  1.00  0.00     0.009 A 
ENDBRANCH  26  27
ENDBRANCH   1  26
BRANCH   5  33
HETATM   33  S   UNL     1     -40.746  61.987 -58.510  1.00  0.00    -0.084 SA
BRANCH  33  34
HETATM   34  C   UNL     1     -39.788  63.034 -59.585  1.00  0.00     0.188 A 
HETATM   35  N   UNL     1     -39.781  62.750 -60.898  1.00  0.00    -0.235 NA
HETATM   36  C   UNL     1     -39.046  63.573 -61.673  1.00  0.00     0.121 A 
HETATM   37  C   UNL     1     -38.296  64.614 -61.178  1.00  0.00     0.038 A 
HETATM   38  C   UNL     1     -38.339  64.779 -59.814  1.00  0.00     0.121 A 
HETATM   39  N   UNL     1     -39.070  63.996 -58.995  1.00  0.00    -0.235 NA
ENDBRANCH  33  34
ENDBRANCH   5  33
TORSDOF 6
ENDMDL
MODEL 5
REMARK VINA RESULT:      -7.8      2.918      8.164
REMARK  6 active torsions:
REMARK  status: ('A' for Active; 'I' for Inactive)
REMARK    1  A    between atoms: C_4  and  C_5 
REMARK    2  A    between atoms: C_5  and  N_6 
REMARK    3  A    between atoms: C_8  and  C_9 
REMARK       I    between atoms: C_9  and  N_10 
REMARK    4  A    between atoms: N_13  and  C_15 
REMARK    5  A    between atoms: C_29  and  S_30 
REMARK    6  A    between atoms: S_30  and  C_31 
ROOT
HETATM    1  N   UNL     1     -41.173  54.337 -52.539  1.00  0.00    -0.053 N 
HETATM    2  H   UNL     1     -41.805  53.584 -52.237  1.00  0.00     0.281 HD
HETATM    3  C   UNL     1     -42.043  55.240 -53.455  1.00  0.00     0.281 C 
HETATM    4  C   UNL     1     -41.594  56.636 -53.037  1.00  0.00     0.060 C 
HETATM    5  C   UNL     1     -41.505  56.542 -51.517  1.00  0.00     0.083 C 
HETATM    6  C   UNL     1     -40.855  55.173 -51.289  1.00  0.00     0.252 C 
ENDROOT
BRANCH   3   7
HETATM    7  C   UNL     1     -42.081  54.982 -54.975  1.00  0.00     0.251 C 
HETATM    8  N   UNL     1     -43.035  55.634 -55.756  1.00  0.00    -0.347 N 
HETATM    9  C   UNL     1     -42.967  55.494 -57.215  1.00  0.00     0.153 C 
HETATM   10  C   UNL     1     -44.323  56.161 -55.299  1.00  0.00     0.153 C 
HETATM   11  C   UNL     1     -43.186  56.847 -57.911  1.00  0.00     0.255 C 
HETATM   12  N   UNL     1     -44.477  57.549 -57.450  1.00  0.00    -0.063 N 
HETATM   13  H   UNL     1     -45.263  57.015 -57.841  1.00  0.00     0.280 HD
HETATM   14  C   UNL     1     -44.622  57.538 -55.919  1.00  0.00     0.255 C 
HETATM   15  O   UNL     1     -41.291  54.199 -55.500  1.00  0.00    -0.271 OA
BRANCH  12  16
HETATM   16  C   UNL     1     -44.558  58.998 -58.004  1.00  0.00     0.196 C 
HETATM   17  C   UNL     1     -44.587  59.034 -59.556  1.00  0.00     0.017 C 
HETATM   18  C   UNL     1     -45.889  58.416 -60.099  1.00  0.00     0.011 C 
HETATM   19  C   UNL     1     -44.513  60.508 -60.008  1.00  0.00     0.011 C 
HETATM   20  C   UNL     1     -47.105  59.187 -59.560  1.00  0.00    -0.013 C 
HETATM   21  C   UNL     1     -47.105  59.132 -58.023  1.00  0.00     0.011 C 
HETATM   22  C   UNL     1     -47.013  60.656 -60.012  1.00  0.00     0.009 C 
HETATM   23  C   UNL     1     -45.807  59.751 -57.470  1.00  0.00     0.017 C 
HETATM   24  C   UNL     1     -45.726  61.220 -57.938  1.00  0.00     0.011 C 
HETATM   25  C   UNL     1     -45.721  61.291 -59.472  1.00  0.00    -0.013 C 
ENDBRANCH  12  16
ENDBRANCH   3   7
BRANCH   1  26
HETATM   26  C   UNL     1     -39.971  53.574 -53.082  1.00  0.00     0.274 C 
BRANCH  26  27
HETATM   27  C   UNL     1     -39.886  52.090 -52.813  1.00  0.00    -0.033 A 
HETATM   28  C   UNL     1     -39.910  51.177 -53.885  1.00  0.00     0.009 A 
HETATM   29  C   UNL     1     -39.808  49.803 -53.666  1.00  0.00     0.001 A 
HETATM   30  C   UNL     1     -39.661  49.314 -52.373  1.00  0.00     0.000 A 
HETATM   31  C   UNL     1     -39.606  50.201 -51.301  1.00  0.00     0.001 A 
HETATM   32  C   UNL     1     -39.715  51.578 -51.519  1.00  0.00     0.009 A 
ENDBRANCH  26  27
ENDBRANCH   1  26
BRANCH   5  33
HETATM   33  S   UNL     1     -43.187  56.637 -50.788  1.00  0.00    -0.084 SA
BRANCH  33  34
HETATM   34  C   UNL     1     -43.720  58.199 -51.455  1.00  0.00     0.188 A 
HETATM   35  N   UNL     1     -44.819  58.211 -52.227  1.00  0.00    -0.235 NA
HETATM   36  C   UNL     1     -45.188  59.417 -52.705  1.00  0.00     0.121 A 
HETATM   37  C   UNL     1     -44.477  60.572 -52.481  1.00  0.00     0.038 A 
HETATM   38  C   UNL     1     -43.341  60.431 -51.720  1.00  0.00     0.121 A 
HETATM   39  N   UNL     1     -42.936  59.253 -51.203  1.00  0.00    -0.235 NA
ENDBRANCH  33  34
ENDBRANCH   5  33
TORSDOF 6
ENDMDL
MODEL 6
REMARK VINA RESULT:      -7.8      5.079      9.025
REMARK  6 active torsions:
REMARK  status: ('A' for Active; 'I' for Inactive)
REMARK    1  A    between atoms: C_4  and  C_5 
REMARK    2  A    between atoms: C_5  and  N_6 
REMARK    3  A    between atoms: C_8  and  C_9 
REMARK       I    between atoms: C_9  and  N_10 
REMARK    4  A    between atoms: N_13  and  C_15 
REMARK    5  A    between atoms: C_29  and  S_30 
REMARK    6  A    between atoms: S_30  and  C_31 
ROOT
HETATM    1  N   UNL     1     -44.011  59.446 -59.372  1.00  0.00    -0.053 N 
HETATM    2  H   UNL     1     -43.855  59.936 -58.481  1.00  0.00     0.281 HD
HETATM    3  C   UNL     1     -44.764  58.145 -58.984  1.00  0.00     0.281 C 
HETATM    4  C   UNL     1     -45.797  58.036 -60.099  1.00  0.00     0.060 C 
HETATM    5  C   UNL     1     -46.294  59.468 -60.267  1.00  0.00     0.083 C 
HETATM    6  C   UNL     1     -45.010  60.297 -60.173  1.00  0.00     0.252 C 
ENDROOT
BRANCH   3   7
HETATM    7  C   UNL     1     -43.968  56.857 -58.685  1.00  0.00     0.251 C 
HETATM    8  N   UNL     1     -43.375  56.694 -57.434  1.00  0.00    -0.347 N 
HETATM    9  C   UNL     1     -42.749  55.406 -57.114  1.00  0.00     0.153 C 
HETATM   10  C   UNL     1     -42.976  57.760 -56.513  1.00  0.00     0.153 C 
HETATM   11  C   UNL     1     -43.117  54.950 -55.692  1.00  0.00     0.255 C 
HETATM   12  N   UNL     1     -42.822  56.026 -54.630  1.00  0.00    -0.063 N 
HETATM   13  H   UNL     1     -41.799  56.085 -54.542  1.00  0.00     0.280 HD
HETATM   14  C   UNL     1     -43.334  57.411 -55.056  1.00  0.00     0.255 C 
HETATM   15  O   UNL     1     -43.842  55.984 -59.542  1.00  0.00    -0.271 OA
BRANCH  12  16
HETATM   16  C   UNL     1     -43.400  55.623 -53.246  1.00  0.00     0.196 C 
HETATM   17  C   UNL     1     -42.855  54.254 -52.756  1.00  0.00     0.017 C 
HETATM   18  C   UNL     1     -41.347  54.334 -52.455  1.00  0.00     0.011 C 
HETATM   19  C   UNL     1     -43.599  53.872 -51.458  1.00  0.00     0.011 C 
HETATM   20  C   UNL     1     -41.080  55.392 -51.373  1.00  0.00    -0.013 C 
HETATM   21  C   UNL     1     -41.587  56.761 -51.859  1.00  0.00     0.011 C 
HETATM   22  C   UNL     1     -41.834  55.003 -50.089  1.00  0.00     0.009 C 
HETATM   23  C   UNL     1     -43.096  56.691 -52.160  1.00  0.00     0.017 C 
HETATM   24  C   UNL     1     -43.836  56.292 -50.866  1.00  0.00     0.011 C 
HETATM   25  C   UNL     1     -43.343  54.925 -50.368  1.00  0.00    -0.013 C 
ENDBRANCH  12  16
ENDBRANCH   3   7
BRANCH   1  26
HETATM   26  C   UNL     1     -42.616  59.407 -59.987  1.00  0.00     0.274 C 
BRANCH  26  27
HETATM   27  C   UNL     1     -41.742  60.632 -59.851  1.00  0.00    -0.033 A 
HETATM   28  C   UNL     1     -41.407  61.387 -60.992  1.00  0.00     0.009 A 
HETATM   29  C   UNL     1     -40.621  62.536 -60.892  1.00  0.00     0.001 A 
HETATM   30  C   UNL     1     -40.172  62.965 -59.648  1.00  0.00     0.000 A 
HETATM   31  C   UNL     1     -40.517  62.249 -58.505  1.00  0.00     0.001 A 
HETATM   32  C   UNL     1     -41.298  61.093 -58.605  1.00  0.00     0.009 A 
ENDBRANCH  26  27
ENDBRANCH   1  26
BRANCH   5  33
HETATM   33  S   UNL     1     -47.478  59.877 -58.924  1.00  0.00    -0.084 SA
BRANCH  33  34
HETATM   34  C   UNL     1     -48.913  60.282 -59.897  1.00  0.00     0.188 A 
HETATM   35  N   UNL     1     -49.927  60.918 -59.287  1.00  0.00    -0.235 NA
HETATM   36  C   UNL     1     -50.990  61.210 -60.064  1.00  0.00     0.121 A 
HETATM   37  C   UNL     1     -51.085  60.847 -61.387  1.00  0.00     0.038 A 
HETATM   38  C   UNL     1     -50.010  60.156 -61.891  1.00  0.00     0.121 A 
HETATM   39  N   UNL     1     -48.915  59.853 -61.164  1.00  0.00    -0.235 NA
ENDBRANCH  33  34
ENDBRANCH   5  33
TORSDOF 6
ENDMDL
MODEL 7
REMARK VINA RESULT:      -7.8      2.866      7.140
REMARK  6 active torsions:
REMARK  status: ('A' for Active; 'I' for Inactive)
REMARK    1  A    between atoms: C_4  and  C_5 
REMARK    2  A    between atoms: C_5  and  N_6 
REMARK    3  A    between atoms: C_8  and  C_9 
REMARK       I    between atoms: C_9  and  N_10 
REMARK    4  A    between atoms: N_13  and  C_15 
REMARK    5  A    between atoms: C_29  and  S_30 
REMARK    6  A    between atoms: S_30  and  C_31 
ROOT
HETATM    1  N   UNL     1     -42.711  56.491 -52.377  1.00  0.00    -0.053 N 
HETATM    2  H   UNL     1     -41.917  57.143 -52.428  1.00  0.00     0.281 HD
HETATM    3  C   UNL     1     -43.070  56.187 -53.856  1.00  0.00     0.281 C 
HETATM    4  C   UNL     1     -43.361  54.692 -53.808  1.00  0.00     0.060 C 
HETATM    5  C   UNL     1     -42.255  54.142 -52.914  1.00  0.00     0.083 C 
HETATM    6  C   UNL     1     -42.166  55.179 -51.790  1.00  0.00     0.252 C 
ENDROOT
BRANCH   3   7
HETATM    7  C   UNL     1     -44.127  57.047 -54.582  1.00  0.00     0.251 C 
HETATM    8  N   UNL     1     -43.748  58.265 -55.144  1.00  0.00    -0.347 N 
HETATM    9  C   UNL     1     -44.724  59.001 -55.956  1.00  0.00     0.153 C 
HETATM   10  C   UNL     1     -42.610  59.095 -54.742  1.00  0.00     0.153 C 
HETATM   11  C   UNL     1     -44.076  59.550 -57.238  1.00  0.00     0.255 C 
HETATM   12  N   UNL     1     -42.809  60.378 -56.953  1.00  0.00    -0.063 N 
HETATM   13  H   UNL     1     -43.117  61.256 -56.516  1.00  0.00     0.280 HD
HETATM   14  C   UNL     1     -41.869  59.670 -55.963  1.00  0.00     0.255 C 
HETATM   15  O   UNL     1     -45.296  56.675 -54.657  1.00  0.00    -0.271 OA
BRANCH  12  16
HETATM   16  C   UNL     1     -42.062  60.733 -58.268  1.00  0.00     0.196 C 
HETATM   17  C   UNL     1     -43.036  60.954 -59.457  1.00  0.00     0.017 C 
HETATM   18  C   UNL     1     -43.902  62.208 -59.238  1.00  0.00     0.011 C 
HETATM   19  C   UNL     1     -42.200  61.148 -60.740  1.00  0.00     0.011 C 
HETATM   20  C   UNL     1     -43.007  63.449 -59.091  1.00  0.00    -0.013 C 
HETATM   21  C   UNL     1     -42.058  63.257 -57.897  1.00  0.00     0.011 C 
HETATM   22  C   UNL     1     -42.174  63.625 -60.373  1.00  0.00     0.009 C 
HETATM   23  C   UNL     1     -41.185  62.006 -58.108  1.00  0.00     0.017 C 
HETATM   24  C   UNL     1     -40.363  62.194 -59.401  1.00  0.00     0.011 C 
HETATM   25  C   UNL     1     -41.297  62.383 -60.605  1.00  0.00    -0.013 C 
ENDBRANCH  12  16
ENDBRANCH   3   7
BRANCH   1  26
HETATM   26  C   UNL     1     -43.684  57.213 -51.452  1.00  0.00     0.274 C 
BRANCH  26  27
HETATM   27  C   UNL     1     -43.415  58.663 -51.124  1.00  0.00    -0.033 A 
HETATM   28  C   UNL     1     -42.092  59.106 -50.930  1.00  0.00     0.009 A 
HETATM   29  C   UNL     1     -41.814  60.445 -50.650  1.00  0.00     0.001 A 
HETATM   30  C   UNL     1     -42.849  61.370 -50.579  1.00  0.00     0.000 A 
HETATM   31  C   UNL     1     -44.160  60.957 -50.797  1.00  0.00     0.001 A 
HETATM   32  C   UNL     1     -44.441  59.615 -51.070  1.00  0.00     0.009 A 
ENDBRANCH  26  27
ENDBRANCH   1  26
BRANCH   5  33
HETATM   33  S   UNL     1     -40.690  54.020 -53.865  1.00  0.00    -0.084 SA
BRANCH  33  34
HETATM   34  C   UNL     1     -40.242  52.336 -53.500  1.00  0.00     0.188 A 
HETATM   35  N   UNL     1     -40.407  51.417 -54.466  1.00  0.00    -0.235 NA
HETATM   36  C   UNL     1     -40.050  50.157 -54.146  1.00  0.00     0.121 A 
HETATM   37  C   UNL     1     -39.592  49.791 -52.902  1.00  0.00     0.038 A 
HETATM   38  C   UNL     1     -39.513  50.804 -51.977  1.00  0.00     0.121 A 
HETATM   39  N   UNL     1     -39.840  52.083 -52.249  1.00  0.00    -0.235 NA
ENDBRANCH  33  34
ENDBRANCH   5  33
TORSDOF 6
ENDMDL
MODEL 8
REMARK VINA RESULT:      -7.7      4.937      8.457
REMARK  6 active torsions:
REMARK  status: ('A' for Active; 'I' for Inactive)
REMARK    1  A    between atoms: C_4  and  C_5 
REMARK    2  A    between atoms: C_5  and  N_6 
REMARK    3  A    between atoms: C_8  and  C_9 
REMARK       I    between atoms: C_9  and  N_10 
REMARK    4  A    between atoms: N_13  and  C_15 
REMARK    5  A    between atoms: C_29  and  S_30 
REMARK    6  A    between atoms: S_30  and  C_31 
ROOT
HETATM    1  N   UNL     1     -44.174  59.235 -59.568  1.00  0.00    -0.053 N 
HETATM    2  H   UNL     1     -43.986  59.788 -58.721  1.00  0.00     0.281 HD
HETATM    3  C   UNL     1     -44.846  57.934 -59.051  1.00  0.00     0.281 C 
HETATM    4  C   UNL     1     -45.938  57.711 -60.090  1.00  0.00     0.060 C 
HETATM    5  C   UNL     1     -46.505  59.108 -60.318  1.00  0.00     0.083 C 
HETATM    6  C   UNL     1     -45.254  59.991 -60.358  1.00  0.00     0.252 C 
ENDROOT
BRANCH   3   7
HETATM    7  C   UNL     1     -43.979  56.701 -58.721  1.00  0.00     0.251 C 
HETATM    8  N   UNL     1     -43.398  56.592 -57.459  1.00  0.00    -0.347 N 
HETATM    9  C   UNL     1     -42.701  55.349 -57.108  1.00  0.00     0.153 C 
HETATM   10  C   UNL     1     -43.078  57.693 -56.548  1.00  0.00     0.153 C 
HETATM   11  C   UNL     1     -43.064  54.893 -55.686  1.00  0.00     0.255 C 
HETATM   12  N   UNL     1     -42.850  55.999 -54.636  1.00  0.00    -0.063 N 
HETATM   13  H   UNL     1     -41.834  56.122 -54.534  1.00  0.00     0.280 HD
HETATM   14  C   UNL     1     -43.437  57.345 -55.092  1.00  0.00     0.255 C 
HETATM   15  O   UNL     1     -43.788  55.825 -59.562  1.00  0.00    -0.271 OA
BRANCH  12  16
HETATM   16  C   UNL     1     -43.425  55.582 -53.255  1.00  0.00     0.196 C 
HETATM   17  C   UNL     1     -42.798  54.263 -52.729  1.00  0.00     0.017 C 
HETATM   18  C   UNL     1     -41.304  54.452 -52.404  1.00  0.00     0.011 C 
HETATM   19  C   UNL     1     -43.537  53.855 -51.438  1.00  0.00     0.011 C 
HETATM   20  C   UNL     1     -41.129  55.545 -51.338  1.00  0.00    -0.013 C 
HETATM   21  C   UNL     1     -41.719  56.866 -51.859  1.00  0.00     0.011 C 
HETATM   22  C   UNL     1     -41.879  55.128 -50.060  1.00  0.00     0.009 C 
HETATM   23  C   UNL     1     -43.214  56.688 -52.184  1.00  0.00     0.017 C 
HETATM   24  C   UNL     1     -43.949  56.263 -50.895  1.00  0.00     0.011 C 
HETATM   25  C   UNL     1     -43.374  54.942 -50.364  1.00  0.00    -0.013 C 
ENDBRANCH  12  16
ENDBRANCH   3   7
BRANCH   1  26
HETATM   26  C   UNL     1     -42.818  59.209 -60.264  1.00  0.00     0.274 C 
BRANCH  26  27
HETATM   27  C   UNL     1     -41.972  60.460 -60.225  1.00  0.00    -0.033 A 
HETATM   28  C   UNL     1     -41.472  60.934 -58.997  1.00  0.00     0.009 A 
HETATM   29  C   UNL     1     -40.668  62.073 -58.936  1.00  0.00     0.001 A 
HETATM   30  C   UNL     1     -40.330  62.749 -60.104  1.00  0.00     0.000 A 
HETATM   31  C   UNL     1     -40.789  62.279 -61.331  1.00  0.00     0.001 A 
HETATM   32  C   UNL     1     -41.602  61.143 -61.392  1.00  0.00     0.009 A 
ENDBRANCH  26  27
ENDBRANCH   1  26
BRANCH   5  33
HETATM   33  S   UNL     1     -47.623  59.559 -58.934  1.00  0.00    -0.084 SA
BRANCH  33  34
HETATM   34  C   UNL     1     -46.870  61.087 -58.419  1.00  0.00     0.188 A 
HETATM   35  N   UNL     1     -45.950  61.037 -57.441  1.00  0.00    -0.235 NA
HETATM   36  C   UNL     1     -45.402  62.218 -57.088  1.00  0.00     0.121 A 
HETATM   37  C   UNL     1     -45.777  63.422 -57.637  1.00  0.00     0.038 A 
HETATM   38  C   UNL     1     -46.763  63.358 -58.592  1.00  0.00     0.121 A 
HETATM   39  N   UNL     1     -47.331  62.203 -58.994  1.00  0.00    -0.235 NA
ENDBRANCH  33  34
ENDBRANCH   5  33
TORSDOF 6
ENDMDL
MODEL 9
REMARK VINA RESULT:      -7.6      4.165      6.693
REMARK  6 active torsions:
REMARK  status: ('A' for Active; 'I' for Inactive)
REMARK    1  A    between atoms: C_4  and  C_5 
REMARK    2  A    between atoms: C_5  and  N_6 
REMARK    3  A    between atoms: C_8  and  C_9 
REMARK       I    between atoms: C_9  and  N_10 
REMARK    4  A    between atoms: N_13  and  C_15 
REMARK    5  A    between atoms: C_29  and  S_30 
REMARK    6  A    between atoms: S_30  and  C_31 
ROOT
HETATM    1  N   UNL     1     -43.605  56.436 -56.447  1.00  0.00    -0.053 N 
HETATM    2  H   UNL     1     -44.478  55.894 -56.505  1.00  0.00     0.281 HD
HETATM    3  C   UNL     1     -43.726  57.242 -55.126  1.00  0.00     0.281 C 
HETATM    4  C   UNL     1     -42.313  57.138 -54.564  1.00  0.00     0.060 C 
HETATM    5  C   UNL     1     -41.935  55.682 -54.817  1.00  0.00     0.083 C 
HETATM    6  C   UNL     1     -42.471  55.422 -56.228  1.00  0.00     0.252 C 
ENDROOT
BRANCH   3   7
HETATM    7  C   UNL     1     -44.331  58.662 -55.145  1.00  0.00     0.251 C 
HETATM    8  N   UNL     1     -43.638  59.691 -55.780  1.00  0.00    -0.347 N 
HETATM    9  C   UNL     1     -44.290  60.999 -55.919  1.00  0.00     0.153 C 
HETATM   10  C   UNL     1     -42.194  59.753 -56.020  1.00  0.00     0.153 C 
HETATM   11  C   UNL     1     -44.080  61.575 -57.329  1.00  0.00     0.255 C 
HETATM   12  N   UNL     1     -42.595  61.615 -57.738  1.00  0.00    -0.063 N 
HETATM   13  H   UNL     1     -42.149  62.350 -57.173  1.00  0.00     0.280 HD
HETATM   14  C   UNL     1     -41.877  60.291 -57.427  1.00  0.00     0.255 C 
HETATM   15  O   UNL     1     -45.407  58.894 -54.597  1.00  0.00    -0.271 OA
BRANCH  12  16
HETATM   16  C   UNL     1     -42.434  61.995 -59.235  1.00  0.00     0.196 C 
HETATM   17  C   UNL     1     -42.788  63.482 -59.506  1.00  0.00     0.017 C 
HETATM   18  C   UNL     1     -41.775  64.425 -58.831  1.00  0.00     0.011 C 
HETATM   19  C   UNL     1     -42.746  63.721 -61.030  1.00  0.00     0.011 C 
HETATM   20  C   UNL     1     -40.359  64.147 -59.361  1.00  0.00    -0.013 C 
HETATM   21  C   UNL     1     -39.983  62.684 -59.070  1.00  0.00     0.011 C 
HETATM   22  C   UNL     1     -40.334  64.380 -60.882  1.00  0.00     0.009 C 
HETATM   23  C   UNL     1     -40.989  61.733 -59.744  1.00  0.00     0.017 C 
HETATM   24  C   UNL     1     -40.959  61.985 -61.267  1.00  0.00     0.011 C 
HETATM   25  C   UNL     1     -41.337  63.442 -61.575  1.00  0.00    -0.013 C 
ENDBRANCH  12  16
ENDBRANCH   3   7
BRANCH   1  26
HETATM   26  C   UNL     1     -43.547  57.130 -57.802  1.00  0.00     0.274 C 
BRANCH  26  27
HETATM   27  C   UNL     1     -44.646  56.845 -58.799  1.00  0.00    -0.033 A 
HETATM   28  C   UNL     1     -44.504  55.791 -59.722  1.00  0.00     0.009 A 
HETATM   29  C   UNL     1     -45.514  55.491 -60.636  1.00  0.00     0.001 A 
HETATM   30  C   UNL     1     -46.695  56.225 -60.633  1.00  0.00     0.000 A 
HETATM   31  C   UNL     1     -46.868  57.251 -59.709  1.00  0.00     0.001 A 
HETATM   32  C   UNL     1     -45.853  57.558 -58.797  1.00  0.00     0.009 A 
ENDBRANCH  26  27
ENDBRANCH   1  26
BRANCH   5  33
HETATM   33  S   UNL     1     -42.738  54.605 -53.566  1.00  0.00    -0.084 SA
BRANCH  33  34
HETATM   34  C   UNL     1     -41.447  53.403 -53.325  1.00  0.00     0.188 A 
HETATM   35  N   UNL     1     -41.206  52.531 -54.319  1.00  0.00    -0.235 NA
HETATM   36  C   UNL     1     -40.216  51.643 -54.094  1.00  0.00     0.121 A 
HETATM   37  C   UNL     1     -39.513  51.573 -52.914  1.00  0.00     0.038 A 
HETATM   38  C   UNL     1     -39.880  52.481 -51.950  1.00  0.00     0.121 A 
HETATM   39  N   UNL     1     -40.850  53.400 -52.128  1.00  0.00    -0.235 NA
ENDBRANCH  33  34
ENDBRANCH   5  33
TORSDOF 6
ENDMDL
MODEL 10
REMARK VINA RESULT:      -7.5      2.687      8.466
REMARK  6 active torsions:
REMARK  status: ('A' for Active; 'I' for Inactive)
REMARK    1  A    between atoms: C_4  and  C_5 
REMARK    2  A    between atoms: C_5  and  N_6 
REMARK    3  A    between atoms: C_8  and  C_9 
REMARK       I    between atoms: C_9  and  N_10 
REMARK    4  A    between atoms: N_13  and  C_15 
REMARK    5  A    between atoms: C_29  and  S_30 
REMARK    6  A    between atoms: S_30  and  C_31 
ROOT
HETATM    1  N   UNL     1     -42.453  57.113 -52.959  1.00  0.00    -0.053 N 
HETATM    2  H   UNL     1     -43.001  56.381 -53.430  1.00  0.00     0.281 HD
HETATM    3  C   UNL     1     -42.928  58.442 -53.607  1.00  0.00     0.281 C 
HETATM    4  C   UNL     1     -43.000  59.371 -52.401  1.00  0.00     0.060 C 
HETATM    5  C   UNL     1     -43.633  58.502 -51.318  1.00  0.00     0.083 C 
HETATM    6  C   UNL     1     -42.932  57.153 -51.499  1.00  0.00     0.252 C 
ENDROOT
BRANCH   3   7
HETATM    7  C   UNL     1     -42.187  59.005 -54.837  1.00  0.00     0.251 C 
HETATM    8  N   UNL     1     -42.450  58.471 -56.098  1.00  0.00    -0.347 N 
HETATM    9  C   UNL     1     -41.850  59.112 -57.274  1.00  0.00     0.153 C 
HETATM   10  C   UNL     1     -42.964  57.131 -56.388  1.00  0.00     0.153 C 
HETATM   11  C   UNL     1     -42.874  59.246 -58.413  1.00  0.00     0.255 C 
HETATM   12  N   UNL     1     -43.554  57.908 -58.759  1.00  0.00    -0.063 N 
HETATM   13  H   UNL     1     -42.845  57.323 -59.220  1.00  0.00     0.280 HD
HETATM   14  C   UNL     1     -44.027  57.161 -57.501  1.00  0.00     0.255 C 
HETATM   15  O   UNL     1     -41.360  59.907 -54.714  1.00  0.00    -0.271 OA
BRANCH  12  16
HETATM   16  C   UNL     1     -44.728  58.115 -59.755  1.00  0.00     0.196 C 
HETATM   17  C   UNL     1     -46.026  57.401 -59.291  1.00  0.00     0.017 C 
HETATM   18  C   UNL     1     -46.584  58.046 -58.009  1.00  0.00     0.011 C 
HETATM   19  C   UNL     1     -47.079  57.535 -60.411  1.00  0.00     0.011 C 
HETATM   20  C   UNL     1     -46.894  59.531 -58.256  1.00  0.00    -0.013 C 
HETATM   21  C   UNL     1     -45.608  60.257 -58.685  1.00  0.00     0.011 C 
HETATM   22  C   UNL     1     -47.939  59.649 -59.380  1.00  0.00     0.009 C 
HETATM   23  C   UNL     1     -45.044  59.621 -59.970  1.00  0.00     0.017 C 
HETATM   24  C   UNL     1     -46.105  59.740 -61.084  1.00  0.00     0.011 C 
HETATM   25  C   UNL     1     -47.395  59.016 -60.671  1.00  0.00    -0.013 C 
ENDBRANCH  12  16
ENDBRANCH   3   7
BRANCH   1  26
HETATM   26  C   UNL     1     -41.020  56.618 -53.116  1.00  0.00     0.274 C 
BRANCH  26  27
HETATM   27  C   UNL     1     -40.801  55.160 -53.448  1.00  0.00    -0.033 A 
HETATM   28  C   UNL     1     -40.466  54.780 -54.762  1.00  0.00     0.009 A 
HETATM   29  C   UNL     1     -40.234  53.444 -55.090  1.00  0.00     0.001 A 
HETATM   30  C   UNL     1     -40.312  52.463 -54.107  1.00  0.00     0.000 A 
HETATM   31  C   UNL     1     -40.613  52.822 -52.797  1.00  0.00     0.001 A 
HETATM   32  C   UNL     1     -40.853  54.160 -52.469  1.00  0.00     0.009 A 
ENDBRANCH  26  27
ENDBRANCH   1  26
BRANCH   5  33
HETATM   33  S   UNL     1     -45.443  58.382 -51.597  1.00  0.00    -0.084 SA
BRANCH  33  34
HETATM   34  C   UNL     1     -45.914  60.068 -51.272  1.00  0.00     0.188 A 
HETATM   35  N   UNL     1     -45.856  60.504 -50.002  1.00  0.00    -0.235 NA
HETATM   36  C   UNL     1     -46.216  61.788 -49.805  1.00  0.00     0.121 A 
HETATM   37  C   UNL     1     -46.670  62.612 -50.808  1.00  0.00     0.038 A 
HETATM   38  C   UNL     1     -46.735  62.044 -52.058  1.00  0.00     0.121 A 
HETATM   39  N   UNL     1     -46.372  60.771 -52.314  1.00  0.00    -0.235 NA
ENDBRANCH  33  34
ENDBRANCH   5  33
TORSDOF 6
ENDMDL
