MODEL 1
REMARK VINA RESULT:      -7.5      0.000      0.000
REMARK  10 active torsions:
REMARK  status: ('A' for Active; 'I' for Inactive)
REMARK    1  A    between atoms: C_3  and  C_4 
REMARK    2  A    between atoms: C_4  and  C_5 
REMARK       I    between atoms: C_5  and  N_6 
REMARK    3  A    between atoms: N_6  and  C_7 
REMARK    4  A    between atoms: C_7  and  C_8 
REMARK    5  A    between atoms: C_8  and  O_9 
REMARK    6  A    between atoms: C_15  and  N_16 
REMARK    7  A    between atoms: N_16  and  C_17 
REMARK    8  A    between atoms: C_26  and  C_27 
REMARK    9  A    between atoms: C_27  and  O_28 
REMARK   10  A    between atoms: C_30  and  O_31 
ROOT
HETATM    1  C   UNL     1     -41.703  58.799 -58.179  1.00  0.00     0.016 C 
HETATM    2  C   UNL     1     -43.143  58.693 -57.577  1.00  0.00    -0.030 C 
HETATM    3  C   UNL     1     -43.473  57.170 -57.222  1.00  0.00     0.056 C 
HETATM    4  C   UNL     1     -42.862  56.792 -55.888  1.00  0.00     0.055 C 
HETATM    5  C   UNL     1     -42.266  57.689 -55.027  1.00  0.00     0.011 C 
HETATM    6  S   UNL     1     -41.675  56.890 -53.650  1.00  0.00    -0.060 SA
HETATM    7  C   UNL     1     -42.496  55.455 -54.158  1.00  0.00     0.150 C 
HETATM    8  N   UNL     1     -43.000  55.515 -55.374  1.00  0.00    -0.232 NA
HETATM    9  C   UNL     1     -42.166  59.158 -55.225  1.00  0.00     0.054 C 
HETATM   10  C   UNL     1     -43.195  59.625 -56.292  1.00  0.00     0.012 C 
HETATM   11  C   UNL     1     -44.652  59.962 -55.735  1.00  0.00     0.008 C 
HETATM   12  C   UNL     1     -44.567  61.388 -55.114  1.00  0.00     0.020 C 
HETATM   13  C   UNL     1     -45.693  60.029 -56.896  1.00  0.00     0.128 C 
HETATM   14  C   UNL     1     -45.044  60.341 -58.237  1.00  0.00     0.033 C 
HETATM   15  C   UNL     1     -44.119  59.209 -58.682  1.00  0.00     0.013 C 
ENDROOT
BRANCH   3  16
HETATM   16  C   UNL     1     -43.033  56.204 -58.341  1.00  0.00     0.114 C 
BRANCH  16  17
HETATM   17  C   UNL     1     -43.923  56.164 -59.567  1.00  0.00     0.218 C 
HETATM   18  N   UNL     1     -45.233  55.836 -59.344  1.00  0.00    -0.359 N 
HETATM   19  H   UNL     1     -45.606  55.923 -58.396  1.00  0.00     0.162 HD
HETATM   20  O   UNL     1     -43.458  56.319 -60.696  1.00  0.00    -0.274 OA
BRANCH  18  21
HETATM   21  C   UNL     1     -46.141  55.544 -60.435  1.00  0.00     0.148 C 
BRANCH  21  22
HETATM   22  C   UNL     1     -47.270  56.568 -60.599  1.00  0.00     0.186 C 
BRANCH  22  23
HETATM   23  O   UNL     1     -47.057  57.776 -59.861  1.00  0.00    -0.394 OA
HETATM   24  C   UNL     1     -47.502  58.938 -60.551  1.00  0.00     0.201 C 
ENDBRANCH  22  23
ENDBRANCH  21  22
ENDBRANCH  18  21
ENDBRANCH  16  17
ENDBRANCH   3  16
BRANCH  11  25
HETATM   25  C   UNL     1     -45.202  59.013 -54.635  1.00  0.00     0.176 C 
BRANCH  25  26
HETATM   26  O   UNL     1     -45.871  59.717 -53.594  1.00  0.00    -0.400 OA
HETATM   27  H   UNL     1     -45.857  60.658 -53.846  1.00  0.00     0.209 HD
ENDBRANCH  25  26
ENDBRANCH  11  25
BRANCH   7  28
HETATM   28  N   UNL     1     -42.585  54.405 -53.299  1.00  0.00    -0.238 NA
HETATM   29  H   UNL     1     -43.469  53.912 -53.378  1.00  0.00     0.136 HD
BRANCH  28  30
HETATM   30  C   UNL     1     -41.546  53.439 -53.184  1.00  0.00     0.014 A 
HETATM   31  C   UNL     1     -41.117  52.631 -54.245  1.00  0.00     0.024 A 
HETATM   32  C   UNL     1     -40.101  51.686 -54.064  1.00  0.00     0.002 A 
HETATM   33  C   UNL     1     -39.469  51.562 -52.832  1.00  0.00     0.000 A 
HETATM   34  C   UNL     1     -39.843  52.394 -51.780  1.00  0.00     0.002 A 
HETATM   35  C   UNL     1     -40.864  53.333 -51.960  1.00  0.00     0.024 A 
ENDBRANCH  28  30
ENDBRANCH   7  28
BRANCH  13  36
HETATM   36  O   UNL     1     -46.405  58.797 -57.017  1.00  0.00    -0.395 OA
HETATM   37  H   UNL     1     -47.075  58.904 -57.715  1.00  0.00     0.210 HD
ENDBRANCH  13  36
TORSDOF 10
ENDMDL
MODEL 2
REMARK VINA RESULT:      -7.3      3.401      7.503
REMARK  10 active torsions:
REMARK  status: ('A' for Active; 'I' for Inactive)
REMARK    1  A    between atoms: C_3  and  C_4 
REMARK    2  A    between atoms: C_4  and  C_5 
REMARK       I    between atoms: C_5  and  N_6 
REMARK    3  A    between atoms: N_6  and  C_7 
REMARK    4  A    between atoms: C_7  and  C_8 
REMARK    5  A    between atoms: C_8  and  O_9 
REMARK    6  A    between atoms: C_15  and  N_16 
REMARK    7  A    between atoms: N_16  and  C_17 
REMARK    8  A    between atoms: C_26  and  C_27 
REMARK    9  A    between atoms: C_27  and  O_28 
REMARK   10  A    between atoms: C_30  and  O_31 
ROOT
HETATM    1  C   UNL     1     -44.038  56.404 -50.970  1.00  0.00     0.016 C 
HETATM    2  C   UNL     1     -42.874  57.137 -51.714  1.00  0.00    -0.030 C 
HETATM    3  C   UNL     1     -42.609  56.441 -53.128  1.00  0.00     0.056 C 
HETATM    4  C   UNL     1     -43.607  56.931 -54.156  1.00  0.00     0.055 C 
HETATM    5  C   UNL     1     -44.495  57.964 -53.944  1.00  0.00     0.011 C 
HETATM    6  S   UNL     1     -45.469  58.205 -55.314  1.00  0.00    -0.060 SA
HETATM    7  C   UNL     1     -44.460  57.111 -56.195  1.00  0.00     0.150 C 
HETATM    8  N   UNL     1     -43.586  56.457 -55.457  1.00  0.00    -0.232 NA
HETATM    9  C   UNL     1     -44.592  58.795 -52.716  1.00  0.00     0.054 C 
HETATM   10  C   UNL     1     -43.292  58.661 -51.875  1.00  0.00     0.012 C 
HETATM   11  C   UNL     1     -42.117  59.668 -52.267  1.00  0.00     0.008 C 
HETATM   12  C   UNL     1     -42.469  61.034 -51.606  1.00  0.00     0.020 C 
HETATM   13  C   UNL     1     -40.757  59.202 -51.662  1.00  0.00     0.128 C 
HETATM   14  C   UNL     1     -40.941  58.319 -50.436  1.00  0.00     0.033 C 
HETATM   15  C   UNL     1     -41.613  56.997 -50.802  1.00  0.00     0.013 C 
ENDROOT
BRANCH   3  16
HETATM   16  C   UNL     1     -42.610  54.902 -53.027  1.00  0.00     0.114 C 
BRANCH  16  17
HETATM   17  C   UNL     1     -41.246  54.243 -52.970  1.00  0.00     0.218 C 
HETATM   18  N   UNL     1     -41.058  53.345 -51.955  1.00  0.00    -0.359 N 
HETATM   19  H   UNL     1     -41.879  52.951 -51.489  1.00  0.00     0.162 HD
HETATM   20  O   UNL     1     -40.343  54.582 -53.735  1.00  0.00    -0.274 OA
BRANCH  18  21
HETATM   21  C   UNL     1     -39.747  52.810 -51.645  1.00  0.00     0.148 C 
BRANCH  21  22
HETATM   22  C   UNL     1     -39.521  51.379 -52.149  1.00  0.00     0.186 C 
BRANCH  22  23
HETATM   23  O   UNL     1     -39.293  51.300 -53.560  1.00  0.00    -0.394 OA
HETATM   24  C   UNL     1     -39.915  50.172 -54.164  1.00  0.00     0.201 C 
ENDBRANCH  22  23
ENDBRANCH  21  22
ENDBRANCH  18  21
ENDBRANCH  16  17
ENDBRANCH   3  16
BRANCH  11  25
HETATM   25  C   UNL     1     -41.917  59.929 -53.785  1.00  0.00     0.176 C 
BRANCH  25  26
HETATM   26  O   UNL     1     -42.360  61.224 -54.178  1.00  0.00    -0.400 OA
HETATM   27  H   UNL     1     -43.133  61.430 -53.621  1.00  0.00     0.209 HD
ENDBRANCH  25  26
ENDBRANCH  11  25
BRANCH   7  28
HETATM   28  N   UNL     1     -44.610  57.014 -57.542  1.00  0.00    -0.238 NA
HETATM   29  H   UNL     1     -45.536  57.293 -57.852  1.00  0.00     0.136 HD
BRANCH  28  30
HETATM   30  C   UNL     1     -43.655  57.560 -58.445  1.00  0.00     0.014 A 
HETATM   31  C   UNL     1     -43.331  58.922 -58.502  1.00  0.00     0.024 A 
HETATM   32  C   UNL     1     -42.396  59.402 -59.424  1.00  0.00     0.002 A 
HETATM   33  C   UNL     1     -41.738  58.522 -60.278  1.00  0.00     0.000 A 
HETATM   34  C   UNL     1     -42.005  57.159 -60.201  1.00  0.00     0.002 A 
HETATM   35  C   UNL     1     -42.946  56.682 -59.283  1.00  0.00     0.024 A 
ENDBRANCH  28  30
ENDBRANCH   7  28
BRANCH  13  36
HETATM   36  O   UNL     1     -39.988  58.481 -52.625  1.00  0.00    -0.395 OA
HETATM   37  H   UNL     1     -40.587  57.874 -53.094  1.00  0.00     0.210 HD
ENDBRANCH  13  36
TORSDOF 10
ENDMDL
MODEL 3
REMARK VINA RESULT:      -7.1      2.737      5.659
REMARK  10 active torsions:
REMARK  status: ('A' for Active; 'I' for Inactive)
REMARK    1  A    between atoms: C_3  and  C_4 
REMARK    2  A    between atoms: C_4  and  C_5 
REMARK       I    between atoms: C_5  and  N_6 
REMARK    3  A    between atoms: N_6  and  C_7 
REMARK    4  A    between atoms: C_7  and  C_8 
REMARK    5  A    between atoms: C_8  and  O_9 
REMARK    6  A    between atoms: C_15  and  N_16 
REMARK    7  A    between atoms: N_16  and  C_17 
REMARK    8  A    between atoms: C_26  and  C_27 
REMARK    9  A    between atoms: C_27  and  O_28 
REMARK   10  A    between atoms: C_30  and  O_31 
ROOT
HETATM    1  C   UNL     1     -42.414  56.319 -60.067  1.00  0.00     0.016 C 
HETATM    2  C   UNL     1     -43.735  56.759 -59.355  1.00  0.00    -0.030 C 
HETATM    3  C   UNL     1     -43.494  56.859 -57.777  1.00  0.00     0.056 C 
HETATM    4  C   UNL     1     -42.837  58.177 -57.424  1.00  0.00     0.055 C 
HETATM    5  C   UNL     1     -42.645  59.211 -58.315  1.00  0.00     0.011 C 
HETATM    6  S   UNL     1     -41.853  60.510 -57.559  1.00  0.00    -0.060 SA
HETATM    7  C   UNL     1     -42.069  59.725 -56.034  1.00  0.00     0.150 C 
HETATM    8  N   UNL     1     -42.514  58.487 -56.114  1.00  0.00    -0.232 NA
HETATM    9  C   UNL     1     -43.086  59.237 -59.734  1.00  0.00     0.054 C 
HETATM   10  C   UNL     1     -44.174  58.154 -59.975  1.00  0.00     0.012 C 
HETATM   11  C   UNL     1     -45.673  58.610 -59.670  1.00  0.00     0.008 C 
HETATM   12  C   UNL     1     -46.141  59.435 -60.906  1.00  0.00     0.020 C 
HETATM   13  C   UNL     1     -46.620  57.376 -59.556  1.00  0.00     0.128 C 
HETATM   14  C   UNL     1     -46.083  56.163 -60.301  1.00  0.00     0.033 C 
HETATM   15  C   UNL     1     -44.791  55.651 -59.666  1.00  0.00     0.013 C 
ENDROOT
BRANCH   3  16
HETATM   16  C   UNL     1     -42.688  55.660 -57.236  1.00  0.00     0.114 C 
BRANCH  16  17
HETATM   17  C   UNL     1     -43.176  55.073 -55.926  1.00  0.00     0.218 C 
HETATM   18  N   UNL     1     -43.060  55.882 -54.829  1.00  0.00    -0.359 N 
HETATM   19  H   UNL     1     -42.941  56.888 -54.971  1.00  0.00     0.162 HD
HETATM   20  O   UNL     1     -43.555  53.904 -55.856  1.00  0.00    -0.274 OA
BRANCH  18  21
HETATM   21  C   UNL     1     -43.276  55.380 -53.486  1.00  0.00     0.148 C 
BRANCH  21  22
HETATM   22  C   UNL     1     -41.998  54.903 -52.785  1.00  0.00     0.186 C 
BRANCH  22  23
HETATM   23  O   UNL     1     -41.769  53.496 -52.910  1.00  0.00    -0.394 OA
HETATM   24  C   UNL     1     -40.714  53.179 -53.811  1.00  0.00     0.201 C 
ENDBRANCH  22  23
ENDBRANCH  21  22
ENDBRANCH  18  21
ENDBRANCH  16  17
ENDBRANCH   3  16
BRANCH  11  25
HETATM   25  C   UNL     1     -45.875  59.505 -58.417  1.00  0.00     0.176 C 
BRANCH  25  26
HETATM   26  O   UNL     1     -47.234  59.889 -58.236  1.00  0.00    -0.400 OA
HETATM   27  H   UNL     1     -47.760  59.071 -58.291  1.00  0.00     0.209 HD
ENDBRANCH  25  26
ENDBRANCH  11  25
BRANCH   7  28
HETATM   28  N   UNL     1     -41.797  60.411 -54.893  1.00  0.00    -0.238 NA
HETATM   29  H   UNL     1     -42.373  61.241 -54.792  1.00  0.00     0.136 HD
BRANCH  28  30
HETATM   30  C   UNL     1     -41.724  59.764 -53.627  1.00  0.00     0.014 A 
HETATM   31  C   UNL     1     -40.671  58.922 -53.246  1.00  0.00     0.024 A 
HETATM   32  C   UNL     1     -40.665  58.300 -51.993  1.00  0.00     0.002 A 
HETATM   33  C   UNL     1     -41.690  58.542 -51.084  1.00  0.00     0.000 A 
HETATM   34  C   UNL     1     -42.717  59.417 -51.424  1.00  0.00     0.002 A 
HETATM   35  C   UNL     1     -42.726  60.033 -52.679  1.00  0.00     0.024 A 
ENDBRANCH  28  30
ENDBRANCH   7  28
BRANCH  13  36
HETATM   36  O   UNL     1     -46.824  57.012 -58.190  1.00  0.00    -0.395 OA
HETATM   37  H   UNL     1     -47.164  56.099 -58.170  1.00  0.00     0.210 HD
ENDBRANCH  13  36
TORSDOF 10
ENDMDL
MODEL 4
REMARK VINA RESULT:      -7.1      2.657      4.053
REMARK  10 active torsions:
REMARK  status: ('A' for Active; 'I' for Inactive)
REMARK    1  A    between atoms: C_3  and  C_4 
REMARK    2  A    between atoms: C_4  and  C_5 
REMARK       I    between atoms: C_5  and  N_6 
REMARK    3  A    between atoms: N_6  and  C_7 
REMARK    4  A    between atoms: C_7  and  C_8 
REMARK    5  A    between atoms: C_8  and  O_9 
REMARK    6  A    between atoms: C_15  and  N_16 
REMARK    7  A    between atoms: N_16  and  C_17 
REMARK    8  A    between atoms: C_26  and  C_27 
REMARK    9  A    between atoms: C_27  and  O_28 
REMARK   10  A    between atoms: C_30  and  O_31 
ROOT
HETATM    1  C   UNL     1     -42.836  61.356 -53.913  1.00  0.00     0.016 C 
HETATM    2  C   UNL     1     -44.189  60.903 -53.272  1.00  0.00    -0.030 C 
HETATM    3  C   UNL     1     -44.610  59.472 -53.849  1.00  0.00     0.056 C 
HETATM    4  C   UNL     1     -43.868  58.369 -53.123  1.00  0.00     0.055 C 
HETATM    5  C   UNL     1     -43.085  58.566 -52.006  1.00  0.00     0.011 C 
HETATM    6  S   UNL     1     -42.397  57.100 -51.494  1.00  0.00    -0.060 SA
HETATM    7  C   UNL     1     -43.406  56.259 -52.618  1.00  0.00     0.150 C 
HETATM    8  N   UNL     1     -44.057  57.039 -53.458  1.00  0.00    -0.232 NA
HETATM    9  C   UNL     1     -42.875  59.857 -51.301  1.00  0.00     0.054 C 
HETATM   10  C   UNL     1     -43.986  60.869 -51.697  1.00  0.00     0.012 C 
HETATM   11  C   UNL     1     -45.321  60.796 -50.825  1.00  0.00     0.008 C 
HETATM   12  C   UNL     1     -45.023  61.558 -49.499  1.00  0.00     0.020 C 
HETATM   13  C   UNL     1     -46.492  61.545 -51.532  1.00  0.00     0.128 C 
HETATM   14  C   UNL     1     -45.997  62.606 -52.504  1.00  0.00     0.033 C 
HETATM   15  C   UNL     1     -45.248  61.977 -53.677  1.00  0.00     0.013 C 
ENDROOT
BRANCH   3  16
HETATM   16  C   UNL     1     -44.411  59.380 -55.375  1.00  0.00     0.114 C 
BRANCH  16  17
HETATM   17  C   UNL     1     -45.679  59.343 -56.205  1.00  0.00     0.218 C 
HETATM   18  N   UNL     1     -46.133  58.098 -56.548  1.00  0.00    -0.359 N 
HETATM   19  H   UNL     1     -45.800  57.291 -56.016  1.00  0.00     0.162 HD
HETATM   20  O   UNL     1     -46.195  60.380 -56.623  1.00  0.00    -0.274 OA
BRANCH  18  21
HETATM   21  C   UNL     1     -47.196  57.916 -57.516  1.00  0.00     0.148 C 
BRANCH  21  22
HETATM   22  C   UNL     1     -46.702  57.606 -58.935  1.00  0.00     0.186 C 
BRANCH  22  23
HETATM   23  O   UNL     1     -45.446  56.920 -58.965  1.00  0.00    -0.394 OA
HETATM   24  C   UNL     1     -45.373  55.932 -59.985  1.00  0.00     0.201 C 
ENDBRANCH  22  23
ENDBRANCH  21  22
ENDBRANCH  18  21
ENDBRANCH  16  17
ENDBRANCH   3  16
BRANCH  11  25
HETATM   25  C   UNL     1     -45.809  59.373 -50.438  1.00  0.00     0.176 C 
BRANCH  25  26
HETATM   26  O   UNL     1     -45.893  59.191 -49.028  1.00  0.00    -0.400 OA
HETATM   27  H   UNL     1     -45.204  59.758 -48.638  1.00  0.00     0.209 HD
ENDBRANCH  25  26
ENDBRANCH  11  25
BRANCH   7  28
HETATM   28  N   UNL     1     -43.481  54.904 -52.554  1.00  0.00    -0.238 NA
HETATM   29  H   UNL     1     -44.255  54.531 -53.095  1.00  0.00     0.136 HD
BRANCH  28  30
HETATM   30  C   UNL     1     -42.343  54.079 -52.779  1.00  0.00     0.014 A 
HETATM   31  C   UNL     1     -41.539  53.568 -51.751  1.00  0.00     0.024 A 
HETATM   32  C   UNL     1     -40.422  52.776 -52.037  1.00  0.00     0.002 A 
HETATM   33  C   UNL     1     -40.114  52.447 -53.353  1.00  0.00     0.000 A 
HETATM   34  C   UNL     1     -40.931  52.899 -54.385  1.00  0.00     0.002 A 
HETATM   35  C   UNL     1     -42.042  53.697 -54.098  1.00  0.00     0.024 A 
ENDBRANCH  28  30
ENDBRANCH   7  28
BRANCH  13  36
HETATM   36  O   UNL     1     -47.326  60.633 -52.248  1.00  0.00    -0.395 OA
HETATM   37  H   UNL     1     -46.793  60.233 -52.959  1.00  0.00     0.210 HD
ENDBRANCH  13  36
TORSDOF 10
ENDMDL
MODEL 5
REMARK VINA RESULT:      -6.9      4.662      8.226
REMARK  10 active torsions:
REMARK  status: ('A' for Active; 'I' for Inactive)
REMARK    1  A    between atoms: C_3  and  C_4 
REMARK    2  A    between atoms: C_4  and  C_5 
REMARK       I    between atoms: C_5  and  N_6 
REMARK    3  A    between atoms: N_6  and  C_7 
REMARK    4  A    between atoms: C_7  and  C_8 
REMARK    5  A    between atoms: C_8  and  O_9 
REMARK    6  A    between atoms: C_15  and  N_16 
REMARK    7  A    between atoms: N_16  and  C_17 
REMARK    8  A    between atoms: C_26  and  C_27 
REMARK    9  A    between atoms: C_27  and  O_28 
REMARK   10  A    between atoms: C_30  and  O_31 
ROOT
HETATM    1  C   UNL     1     -40.414  58.569 -53.098  1.00  0.00     0.016 C 
HETATM    2  C   UNL     1     -41.735  57.784 -53.391  1.00  0.00    -0.030 C 
HETATM    3  C   UNL     1     -42.628  57.710 -52.066  1.00  0.00     0.056 C 
HETATM    4  C   UNL     1     -43.405  58.996 -51.878  1.00  0.00     0.055 C 
HETATM    5  C   UNL     1     -43.469  60.007 -52.812  1.00  0.00     0.011 C 
HETATM    6  S   UNL     1     -44.410  61.297 -52.233  1.00  0.00    -0.060 SA
HETATM    7  C   UNL     1     -44.898  60.311 -50.898  1.00  0.00     0.150 C 
HETATM    8  N   UNL     1     -44.239  59.175 -50.788  1.00  0.00    -0.232 NA
HETATM    9  C   UNL     1     -42.846  59.993 -54.161  1.00  0.00     0.054 C 
HETATM   10  C   UNL     1     -42.489  58.537 -54.570  1.00  0.00     0.012 C 
HETATM   11  C   UNL     1     -43.660  57.719 -55.280  1.00  0.00     0.008 C 
HETATM   12  C   UNL     1     -43.686  58.188 -56.766  1.00  0.00     0.020 C 
HETATM   13  C   UNL     1     -43.351  56.190 -55.287  1.00  0.00     0.128 C 
HETATM   14  C   UNL     1     -41.861  55.901 -55.180  1.00  0.00     0.033 C 
HETATM   15  C   UNL     1     -41.305  56.348 -53.829  1.00  0.00     0.013 C 
ENDROOT
BRANCH   3  16
HETATM   16  C   UNL     1     -41.788  57.367 -50.819  1.00  0.00     0.114 C 
BRANCH  16  17
HETATM   17  C   UNL     1     -41.809  55.914 -50.388  1.00  0.00     0.218 C 
HETATM   18  N   UNL     1     -40.586  55.333 -50.186  1.00  0.00    -0.359 N 
HETATM   19  H   UNL     1     -39.773  55.937 -50.046  1.00  0.00     0.162 HD
HETATM   20  O   UNL     1     -42.864  55.283 -50.329  1.00  0.00    -0.274 OA
BRANCH  18  21
HETATM   21  C   UNL     1     -40.445  53.904 -49.991  1.00  0.00     0.148 C 
BRANCH  21  22
HETATM   22  C   UNL     1     -39.943  53.151 -51.230  1.00  0.00     0.186 C 
BRANCH  22  23
HETATM   23  O   UNL     1     -40.902  53.096 -52.291  1.00  0.00    -0.394 OA
HETATM   24  C   UNL     1     -40.350  52.635 -53.519  1.00  0.00     0.201 C 
ENDBRANCH  22  23
ENDBRANCH  21  22
ENDBRANCH  18  21
ENDBRANCH  16  17
ENDBRANCH   3  16
BRANCH  11  25
HETATM   25  C   UNL     1     -45.089  57.930 -54.707  1.00  0.00     0.176 C 
BRANCH  25  26
HETATM   26  O   UNL     1     -46.101  57.406 -55.561  1.00  0.00    -0.400 OA
HETATM   27  H   UNL     1     -46.695  58.150 -55.769  1.00  0.00     0.209 HD
ENDBRANCH  25  26
ENDBRANCH  11  25
BRANCH   7  28
HETATM   28  N   UNL     1     -45.904  60.741 -50.092  1.00  0.00    -0.238 NA
HETATM   29  H   UNL     1     -46.648  60.056 -49.999  1.00  0.00     0.136 HD
BRANCH  28  30
HETATM   30  C   UNL     1     -45.650  61.299 -48.807  1.00  0.00     0.014 A 
HETATM   31  C   UNL     1     -45.675  60.556 -47.620  1.00  0.00     0.024 A 
HETATM   32  C   UNL     1     -45.434  61.165 -46.384  1.00  0.00     0.002 A 
HETATM   33  C   UNL     1     -45.123  62.520 -46.319  1.00  0.00     0.000 A 
HETATM   34  C   UNL     1     -45.040  63.264 -47.492  1.00  0.00     0.002 A 
HETATM   35  C   UNL     1     -45.289  62.654 -48.726  1.00  0.00     0.024 A 
ENDBRANCH  28  30
ENDBRANCH   7  28
BRANCH  13  36
HETATM   36  O   UNL     1     -44.016  55.528 -54.210  1.00  0.00    -0.395 OA
HETATM   37  H   UNL     1     -43.707  54.605 -54.188  1.00  0.00     0.210 HD
ENDBRANCH  13  36
TORSDOF 10
ENDMDL
MODEL 6
REMARK VINA RESULT:      -6.8      3.674      8.354
REMARK  10 active torsions:
REMARK  status: ('A' for Active; 'I' for Inactive)
REMARK    1  A    between atoms: C_3  and  C_4 
REMARK    2  A    between atoms: C_4  and  C_5 
REMARK       I    between atoms: C_5  and  N_6 
REMARK    3  A    between atoms: N_6  and  C_7 
REMARK    4  A    between atoms: C_7  and  C_8 
REMARK    5  A    between atoms: C_8  and  O_9 
REMARK    6  A    between atoms: C_15  and  N_16 
REMARK    7  A    between atoms: N_16  and  C_17 
REMARK    8  A    between atoms: C_26  and  C_27 
REMARK    9  A    between atoms: C_27  and  O_28 
REMARK   10  A    between atoms: C_30  and  O_31 
ROOT
HETATM    1  C   UNL     1     -40.133  58.651 -52.832  1.00  0.00     0.016 C 
HETATM    2  C   UNL     1     -41.270  57.760 -52.233  1.00  0.00    -0.030 C 
HETATM    3  C   UNL     1     -42.697  58.330 -52.674  1.00  0.00     0.056 C 
HETATM    4  C   UNL     1     -43.042  57.870 -54.074  1.00  0.00     0.055 C 
HETATM    5  C   UNL     1     -42.311  56.945 -54.789  1.00  0.00     0.011 C 
HETATM    6  S   UNL     1     -42.991  56.707 -56.327  1.00  0.00    -0.060 SA
HETATM    7  C   UNL     1     -44.365  57.636 -55.839  1.00  0.00     0.150 C 
HETATM    8  N   UNL     1     -44.227  58.251 -54.681  1.00  0.00    -0.232 NA
HETATM    9  C   UNL     1     -41.113  56.212 -54.303  1.00  0.00     0.054 C 
HETATM   10  C   UNL     1     -41.040  56.276 -52.752  1.00  0.00     0.012 C 
HETATM   11  C   UNL     1     -41.849  55.137 -51.981  1.00  0.00     0.008 C 
HETATM   12  C   UNL     1     -40.958  53.859 -52.025  1.00  0.00     0.020 C 
HETATM   13  C   UNL     1     -42.044  55.508 -50.479  1.00  0.00     0.128 C 
HETATM   14  C   UNL     1     -40.989  56.486 -49.983  1.00  0.00     0.033 C 
HETATM   15  C   UNL     1     -41.117  57.839 -50.680  1.00  0.00     0.013 C 
ENDROOT
BRANCH   3  16
HETATM   16  C   UNL     1     -42.773  59.865 -52.546  1.00  0.00     0.114 C 
BRANCH  16  17
HETATM   17  C   UNL     1     -44.025  60.412 -51.889  1.00  0.00     0.218 C 
HETATM   18  N   UNL     1     -44.238  60.024 -50.594  1.00  0.00    -0.359 N 
HETATM   19  H   UNL     1     -43.451  59.655 -50.056  1.00  0.00     0.162 HD
HETATM   20  O   UNL     1     -44.839  61.079 -52.528  1.00  0.00    -0.274 OA
BRANCH  18  21
HETATM   21  C   UNL     1     -45.494  60.285 -49.918  1.00  0.00     0.148 C 
BRANCH  21  22
HETATM   22  C   UNL     1     -45.341  60.659 -48.439  1.00  0.00     0.186 C 
BRANCH  22  23
HETATM   23  O   UNL     1     -46.248  59.964 -47.577  1.00  0.00    -0.394 OA
HETATM   24  C   UNL     1     -46.141  60.361 -46.215  1.00  0.00     0.201 C 
ENDBRANCH  22  23
ENDBRANCH  21  22
ENDBRANCH  18  21
ENDBRANCH  16  17
ENDBRANCH   3  16
BRANCH  11  25
HETATM   25  C   UNL     1     -43.231  54.755 -52.578  1.00  0.00     0.176 C 
BRANCH  25  26
HETATM   26  O   UNL     1     -43.981  53.906 -51.715  1.00  0.00    -0.400 OA
HETATM   27  H   UNL     1     -44.907  53.963 -52.013  1.00  0.00     0.209 HD
ENDBRANCH  25  26
ENDBRANCH  11  25
BRANCH   7  28
HETATM   28  N   UNL     1     -45.466  57.656 -56.635  1.00  0.00    -0.238 NA
HETATM   29  H   UNL     1     -46.279  58.041 -56.164  1.00  0.00     0.136 HD
BRANCH  28  30
HETATM   30  C   UNL     1     -45.427  58.182 -57.957  1.00  0.00     0.014 A 
HETATM   31  C   UNL     1     -46.136  57.632 -59.032  1.00  0.00     0.024 A 
HETATM   32  C   UNL     1     -46.043  58.184 -60.314  1.00  0.00     0.002 A 
HETATM   33  C   UNL     1     -45.271  59.320 -60.534  1.00  0.00     0.000 A 
HETATM   34  C   UNL     1     -44.602  59.914 -59.468  1.00  0.00     0.002 A 
HETATM   35  C   UNL     1     -44.690  59.356 -58.189  1.00  0.00     0.024 A 
ENDBRANCH  28  30
ENDBRANCH   7  28
BRANCH  13  36
HETATM   36  O   UNL     1     -43.332  56.085 -50.257  1.00  0.00    -0.395 OA
HETATM   37  H   UNL     1     -43.957  55.674 -50.881  1.00  0.00     0.210 HD
ENDBRANCH  13  36
TORSDOF 10
ENDMDL
MODEL 7
REMARK VINA RESULT:      -6.8      2.958      5.036
REMARK  10 active torsions:
REMARK  status: ('A' for Active; 'I' for Inactive)
REMARK    1  A    between atoms: C_3  and  C_4 
REMARK    2  A    between atoms: C_4  and  C_5 
REMARK       I    between atoms: C_5  and  N_6 
REMARK    3  A    between atoms: N_6  and  C_7 
REMARK    4  A    between atoms: C_7  and  C_8 
REMARK    5  A    between atoms: C_8  and  O_9 
REMARK    6  A    between atoms: C_15  and  N_16 
REMARK    7  A    between atoms: N_16  and  C_17 
REMARK    8  A    between atoms: C_26  and  C_27 
REMARK    9  A    between atoms: C_27  and  O_28 
REMARK   10  A    between atoms: C_30  and  O_31 
ROOT
HETATM    1  C   UNL     1     -45.464  60.675 -57.435  1.00  0.00     0.016 C 
HETATM    2  C   UNL     1     -44.303  59.944 -58.185  1.00  0.00    -0.030 C 
HETATM    3  C   UNL     1     -42.981  59.958 -57.286  1.00  0.00     0.056 C 
HETATM    4  C   UNL     1     -43.035  58.857 -56.247  1.00  0.00     0.055 C 
HETATM    5  C   UNL     1     -44.001  57.875 -56.207  1.00  0.00     0.011 C 
HETATM    6  S   UNL     1     -43.746  56.839 -54.886  1.00  0.00    -0.060 SA
HETATM    7  C   UNL     1     -42.213  57.595 -54.619  1.00  0.00     0.150 C 
HETATM    8  N   UNL     1     -42.005  58.680 -55.339  1.00  0.00    -0.232 NA
HETATM    9  C   UNL     1     -45.106  57.694 -57.185  1.00  0.00     0.054 C 
HETATM   10  C   UNL     1     -44.789  58.464 -58.497  1.00  0.00     0.012 C 
HETATM   11  C   UNL     1     -43.926  57.659 -59.571  1.00  0.00     0.008 C 
HETATM   12  C   UNL     1     -44.914  56.704 -60.304  1.00  0.00     0.020 C 
HETATM   13  C   UNL     1     -43.333  58.621 -60.647  1.00  0.00     0.128 C 
HETATM   14  C   UNL     1     -44.139  59.905 -60.780  1.00  0.00     0.033 C 
HETATM   15  C   UNL     1     -44.062  60.743 -59.505  1.00  0.00     0.013 C 
ENDROOT
BRANCH   3  16
HETATM   16  C   UNL     1     -42.734  61.336 -56.639  1.00  0.00     0.114 C 
BRANCH  16  17
HETATM   17  C   UNL     1     -42.044  62.362 -57.516  1.00  0.00     0.218 C 
HETATM   18  N   UNL     1     -40.858  61.971 -58.074  1.00  0.00    -0.359 N 
HETATM   19  H   UNL     1     -40.645  60.972 -58.126  1.00  0.00     0.162 HD
HETATM   20  O   UNL     1     -42.486  63.506 -57.624  1.00  0.00    -0.274 OA
BRANCH  18  21
HETATM   21  C   UNL     1     -39.985  62.913 -58.746  1.00  0.00     0.148 C 
BRANCH  21  22
HETATM   22  C   UNL     1     -40.099  62.888 -60.276  1.00  0.00     0.186 C 
BRANCH  22  23
HETATM   23  O   UNL     1     -40.939  61.839 -60.768  1.00  0.00    -0.394 OA
HETATM   24  C   UNL     1     -41.355  62.042 -62.114  1.00  0.00     0.201 C 
ENDBRANCH  22  23
ENDBRANCH  21  22
ENDBRANCH  18  21
ENDBRANCH  16  17
ENDBRANCH   3  16
BRANCH  11  25
HETATM   25  C   UNL     1     -42.774  56.783 -59.006  1.00  0.00     0.176 C 
BRANCH  25  26
HETATM   26  O   UNL     1     -42.000  56.172 -60.033  1.00  0.00    -0.400 OA
HETATM   27  H   UNL     1     -41.156  56.658 -60.065  1.00  0.00     0.209 HD
ENDBRANCH  25  26
ENDBRANCH  11  25
BRANCH   7  28
HETATM   28  N   UNL     1     -41.345  57.035 -53.737  1.00  0.00    -0.238 NA
HETATM   29  H   UNL     1     -41.571  57.259 -52.773  1.00  0.00     0.136 HD
BRANCH  28  30
HETATM   30  C   UNL     1     -40.992  55.657 -53.802  1.00  0.00     0.014 A 
HETATM   31  C   UNL     1     -40.440  55.051 -54.939  1.00  0.00     0.024 A 
HETATM   32  C   UNL     1     -40.130  53.687 -54.948  1.00  0.00     0.002 A 
HETATM   33  C   UNL     1     -40.329  52.915 -53.808  1.00  0.00     0.000 A 
HETATM   34  C   UNL     1     -40.825  53.510 -52.652  1.00  0.00     0.002 A 
HETATM   35  C   UNL     1     -41.142  54.872 -52.647  1.00  0.00     0.024 A 
ENDBRANCH  28  30
ENDBRANCH   7  28
BRANCH  13  36
HETATM   36  O   UNL     1     -41.983  58.967 -60.337  1.00  0.00    -0.395 OA
HETATM   37  H   UNL     1     -41.444  58.158 -60.397  1.00  0.00     0.210 HD
ENDBRANCH  13  36
TORSDOF 10
ENDMDL
MODEL 8
REMARK VINA RESULT:      -6.5     17.168     20.815
REMARK  10 active torsions:
REMARK  status: ('A' for Active; 'I' for Inactive)
REMARK    1  A    between atoms: C_3  and  C_4 
REMARK    2  A    between atoms: C_4  and  C_5 
REMARK       I    between atoms: C_5  and  N_6 
REMARK    3  A    between atoms: N_6  and  C_7 
REMARK    4  A    between atoms: C_7  and  C_8 
REMARK    5  A    between atoms: C_8  and  O_9 
REMARK    6  A    between atoms: C_15  and  N_16 
REMARK    7  A    between atoms: N_16  and  C_17 
REMARK    8  A    between atoms: C_26  and  C_27 
REMARK    9  A    between atoms: C_27  and  O_28 
REMARK   10  A    between atoms: C_30  and  O_31 
ROOT
HETATM    1  C   UNL     1     -33.373  40.902 -51.104  1.00  0.00     0.016 C 
HETATM    2  C   UNL     1     -33.906  39.669 -51.905  1.00  0.00    -0.030 C 
HETATM    3  C   UNL     1     -35.428  39.914 -52.330  1.00  0.00     0.056 C 
HETATM    4  C   UNL     1     -35.499  40.780 -53.570  1.00  0.00     0.055 C 
HETATM    5  C   UNL     1     -34.404  41.148 -54.323  1.00  0.00     0.011 C 
HETATM    6  S   UNL     1     -34.877  42.141 -55.617  1.00  0.00    -0.060 SA
HETATM    7  C   UNL     1     -36.530  41.789 -55.254  1.00  0.00     0.150 C 
HETATM    8  N   UNL     1     -36.716  41.142 -54.120  1.00  0.00    -0.232 NA
HETATM    9  C   UNL     1     -32.999  40.726 -54.088  1.00  0.00     0.054 C 
HETATM   10  C   UNL     1     -32.964  39.473 -53.169  1.00  0.00     0.012 C 
HETATM   11  C   UNL     1     -33.088  38.070 -53.919  1.00  0.00     0.008 C 
HETATM   12  C   UNL     1     -31.677  37.753 -54.497  1.00  0.00     0.020 C 
HETATM   13  C   UNL     1     -33.440  36.929 -52.915  1.00  0.00     0.128 C 
HETATM   14  C   UNL     1     -33.017  37.260 -51.492  1.00  0.00     0.033 C 
HETATM   15  C   UNL     1     -33.809  38.444 -50.940  1.00  0.00     0.013 C 
ENDROOT
BRANCH   3  16
HETATM   16  C   UNL     1     -36.264  40.505 -51.177  1.00  0.00     0.114 C 
BRANCH  16  17
HETATM   17  C   UNL     1     -37.303  39.580 -50.573  1.00  0.00     0.218 C 
HETATM   18  N   UNL     1     -37.338  39.533 -49.205  1.00  0.00    -0.359 N 
HETATM   19  H   UNL     1     -36.904  40.294 -48.677  1.00  0.00     0.162 HD
HETATM   20  O   UNL     1     -37.992  38.848 -51.283  1.00  0.00    -0.274 OA
BRANCH  18  21
HETATM   21  C   UNL     1     -38.118  38.538 -48.498  1.00  0.00     0.148 C 
BRANCH  21  22
HETATM   22  C   UNL     1     -37.336  37.787 -47.413  1.00  0.00     0.186 C 
BRANCH  22  23
HETATM   23  O   UNL     1     -36.302  38.570 -46.809  1.00  0.00    -0.394 OA
HETATM   24  C   UNL     1     -35.792  37.995 -45.612  1.00  0.00     0.201 C 
ENDBRANCH  22  23
ENDBRANCH  21  22
ENDBRANCH  18  21
ENDBRANCH  16  17
ENDBRANCH   3  16
BRANCH  11  25
HETATM   25  C   UNL     1     -34.093  38.013 -55.102  1.00  0.00     0.176 C 
BRANCH  25  26
HETATM   26  O   UNL     1     -34.087  36.751 -55.761  1.00  0.00    -0.400 OA
HETATM   27  H   UNL     1     -33.390  36.800 -56.440  1.00  0.00     0.209 HD
ENDBRANCH  25  26
ENDBRANCH  11  25
BRANCH   7  28
HETATM   28  N   UNL     1     -37.495  42.164 -56.135  1.00  0.00    -0.238 NA
HETATM   29  H   UNL     1     -37.571  43.173 -56.221  1.00  0.00     0.136 HD
BRANCH  28  30
HETATM   30  C   UNL     1     -37.583  41.598 -57.438  1.00  0.00     0.014 A 
HETATM   31  C   UNL     1     -37.083  42.221 -58.589  1.00  0.00     0.024 A 
HETATM   32  C   UNL     1     -37.216  41.622 -59.847  1.00  0.00     0.002 A 
HETATM   33  C   UNL     1     -37.813  40.372 -59.969  1.00  0.00     0.000 A 
HETATM   34  C   UNL     1     -38.267  39.713 -58.830  1.00  0.00     0.002 A 
HETATM   35  C   UNL     1     -38.141  40.316 -57.575  1.00  0.00     0.024 A 
ENDBRANCH  28  30
ENDBRANCH   7  28
BRANCH  13  36
HETATM   36  O   UNL     1     -34.842  36.659 -52.917  1.00  0.00    -0.395 OA
HETATM   37  H   UNL     1     -35.312  37.510 -52.974  1.00  0.00     0.210 HD
ENDBRANCH  13  36
TORSDOF 10
ENDMDL
MODEL 9
REMARK VINA RESULT:      -6.5      2.800      4.253
REMARK  10 active torsions:
REMARK  status: ('A' for Active; 'I' for Inactive)
REMARK    1  A    between atoms: C_3  and  C_4 
REMARK    2  A    between atoms: C_4  and  C_5 
REMARK       I    between atoms: C_5  and  N_6 
REMARK    3  A    between atoms: N_6  and  C_7 
REMARK    4  A    between atoms: C_7  and  C_8 
REMARK    5  A    between atoms: C_8  and  O_9 
REMARK    6  A    between atoms: C_15  and  N_16 
REMARK    7  A    between atoms: N_16  and  C_17 
REMARK    8  A    between atoms: C_26  and  C_27 
REMARK    9  A    between atoms: C_27  and  O_28 
REMARK   10  A    between atoms: C_30  and  O_31 
ROOT
HETATM    1  C   UNL     1     -42.644  61.367 -53.859  1.00  0.00     0.016 C 
HETATM    2  C   UNL     1     -44.038  60.931 -53.300  1.00  0.00    -0.030 C 
HETATM    3  C   UNL     1     -44.439  59.502 -53.895  1.00  0.00     0.056 C 
HETATM    4  C   UNL     1     -43.755  58.394 -53.122  1.00  0.00     0.055 C 
HETATM    5  C   UNL     1     -43.039  58.588 -51.960  1.00  0.00     0.011 C 
HETATM    6  S   UNL     1     -42.399  57.117 -51.402  1.00  0.00    -0.060 SA
HETATM    7  C   UNL     1     -43.348  56.282 -52.582  1.00  0.00     0.150 C 
HETATM    8  N   UNL     1     -43.938  57.065 -53.463  1.00  0.00    -0.232 NA
HETATM    9  C   UNL     1     -42.858  59.880 -51.248  1.00  0.00     0.054 C 
HETATM   10  C   UNL     1     -43.932  60.901 -51.715  1.00  0.00     0.012 C 
HETATM   11  C   UNL     1     -45.318  60.846 -50.925  1.00  0.00     0.008 C 
HETATM   12  C   UNL     1     -45.093  61.611 -49.587  1.00  0.00     0.020 C 
HETATM   13  C   UNL     1     -46.436  61.605 -51.705  1.00  0.00     0.128 C 
HETATM   14  C   UNL     1     -45.871  62.657 -52.648  1.00  0.00     0.033 C 
HETATM   15  C   UNL     1     -45.059  62.014 -53.772  1.00  0.00     0.013 C 
ENDROOT
BRANCH   3  16
HETATM   16  C   UNL     1     -44.149  59.401 -55.406  1.00  0.00     0.114 C 
BRANCH  16  17
HETATM   17  C   UNL     1     -45.348  59.124 -56.292  1.00  0.00     0.218 C 
HETATM   18  N   UNL     1     -45.713  60.137 -57.137  1.00  0.00    -0.359 N 
HETATM   19  H   UNL     1     -45.033  60.872 -57.345  1.00  0.00     0.162 HD
HETATM   20  O   UNL     1     -46.001  58.088 -56.172  1.00  0.00    -0.274 OA
BRANCH  18  21
HETATM   21  C   UNL     1     -46.961  60.100 -57.874  1.00  0.00     0.148 C 
BRANCH  21  22
HETATM   22  C   UNL     1     -47.991  61.137 -57.410  1.00  0.00     0.186 C 
BRANCH  22  23
HETATM   23  O   UNL     1     -47.435  62.162 -56.580  1.00  0.00    -0.394 OA
HETATM   24  C   UNL     1     -48.318  62.587 -55.549  1.00  0.00     0.201 C 
ENDBRANCH  22  23
ENDBRANCH  21  22
ENDBRANCH  18  21
ENDBRANCH  16  17
ENDBRANCH   3  16
BRANCH  11  25
HETATM   25  C   UNL     1     -45.844  59.430 -50.563  1.00  0.00     0.176 C 
BRANCH  25  26
HETATM   26  O   UNL     1     -45.879  59.205 -49.158  1.00  0.00    -0.400 OA
HETATM   27  H   UNL     1     -45.998  60.079 -48.744  1.00  0.00     0.209 HD
ENDBRANCH  25  26
ENDBRANCH  11  25
BRANCH   7  28
HETATM   28  N   UNL     1     -43.440  54.928 -52.518  1.00  0.00    -0.238 NA
HETATM   29  H   UNL     1     -44.267  54.572 -52.988  1.00  0.00     0.136 HD
BRANCH  28  30
HETATM   30  C   UNL     1     -42.343  54.084 -52.850  1.00  0.00     0.014 A 
HETATM   31  C   UNL     1     -42.029  53.699 -54.160  1.00  0.00     0.024 A 
HETATM   32  C   UNL     1     -40.946  52.852 -54.420  1.00  0.00     0.002 A 
HETATM   33  C   UNL     1     -40.135  52.409 -53.381  1.00  0.00     0.000 A 
HETATM   34  C   UNL     1     -40.398  52.825 -52.079  1.00  0.00     0.002 A 
HETATM   35  C   UNL     1     -41.485  53.665 -51.819  1.00  0.00     0.024 A 
ENDBRANCH  28  30
ENDBRANCH   7  28
BRANCH  13  36
HETATM   36  O   UNL     1     -47.235  60.699 -52.467  1.00  0.00    -0.395 OA
HETATM   37  H   UNL     1     -47.195  60.975 -53.400  1.00  0.00     0.210 HD
ENDBRANCH  13  36
TORSDOF 10
ENDMDL
MODEL 10
REMARK VINA RESULT:      -6.4      2.933      5.934
REMARK  10 active torsions:
REMARK  status: ('A' for Active; 'I' for Inactive)
REMARK    1  A    between atoms: C_3  and  C_4 
REMARK    2  A    between atoms: C_4  and  C_5 
REMARK       I    between atoms: C_5  and  N_6 
REMARK    3  A    between atoms: N_6  and  C_7 
REMARK    4  A    between atoms: C_7  and  C_8 
REMARK    5  A    between atoms: C_8  and  O_9 
REMARK    6  A    between atoms: C_15  and  N_16 
REMARK    7  A    between atoms: N_16  and  C_17 
REMARK    8  A    between atoms: C_26  and  C_27 
REMARK    9  A    between atoms: C_27  and  O_28 
REMARK   10  A    between atoms: C_30  and  O_31 
ROOT
HETATM    1  C   UNL     1     -45.487  60.928 -56.067  1.00  0.00     0.016 C 
HETATM    2  C   UNL     1     -44.026  61.033 -56.616  1.00  0.00    -0.030 C 
HETATM    3  C   UNL     1     -43.091  59.968 -55.876  1.00  0.00     0.056 C 
HETATM    4  C   UNL     1     -43.252  58.597 -56.498  1.00  0.00     0.055 C 
HETATM    5  C   UNL     1     -43.965  58.349 -57.652  1.00  0.00     0.011 C 
HETATM    6  S   UNL     1     -43.942  56.691 -58.021  1.00  0.00    -0.060 SA
HETATM    7  C   UNL     1     -42.757  56.454 -56.784  1.00  0.00     0.150 C 
HETATM    8  N   UNL     1     -42.552  57.505 -56.015  1.00  0.00    -0.232 NA
HETATM    9  C   UNL     1     -44.642  59.365 -58.499  1.00  0.00     0.054 C 
HETATM   10  C   UNL     1     -44.084  60.781 -58.183  1.00  0.00     0.012 C 
HETATM   11  C   UNL     1     -42.781  61.201 -59.004  1.00  0.00     0.008 C 
HETATM   12  C   UNL     1     -43.274  61.649 -60.412  1.00  0.00     0.020 C 
HETATM   13  C   UNL     1     -42.081  62.432 -58.349  1.00  0.00     0.128 C 
HETATM   14  C   UNL     1     -43.041  63.266 -57.513  1.00  0.00     0.033 C 
HETATM   15  C   UNL     1     -43.542  62.484 -56.300  1.00  0.00     0.013 C 
ENDROOT
BRANCH   3  16
HETATM   16  C   UNL     1     -43.341  59.934 -54.355  1.00  0.00     0.114 C 
BRANCH  16  17
HETATM   17  C   UNL     1     -42.131  59.635 -53.492  1.00  0.00     0.218 C 
HETATM   18  N   UNL     1     -42.391  59.318 -52.187  1.00  0.00    -0.359 N 
HETATM   19  H   UNL     1     -43.335  59.017 -51.933  1.00  0.00     0.162 HD
HETATM   20  O   UNL     1     -40.988  59.774 -53.929  1.00  0.00    -0.274 OA
BRANCH  18  21
HETATM   21  C   UNL     1     -41.333  59.229 -51.199  1.00  0.00     0.148 C 
BRANCH  21  22
HETATM   22  C   UNL     1     -40.823  57.803 -50.958  1.00  0.00     0.186 C 
BRANCH  22  23
HETATM   23  O   UNL     1     -41.857  56.880 -50.598  1.00  0.00    -0.394 OA
HETATM   24  C   UNL     1     -41.400  55.833 -49.750  1.00  0.00     0.201 C 
ENDBRANCH  22  23
ENDBRANCH  21  22
ENDBRANCH  18  21
ENDBRANCH  16  17
ENDBRANCH   3  16
BRANCH  11  25
HETATM   25  C   UNL     1     -41.719  60.088 -59.220  1.00  0.00     0.176 C 
BRANCH  25  26
HETATM   26  O   UNL     1     -41.815  59.486 -60.507  1.00  0.00    -0.400 OA
HETATM   27  H   UNL     1     -41.395  58.611 -60.432  1.00  0.00     0.209 HD
ENDBRANCH  25  26
ENDBRANCH  11  25
BRANCH   7  28
HETATM   28  N   UNL     1     -42.122  55.256 -56.698  1.00  0.00    -0.238 NA
HETATM   29  H   UNL     1     -41.278  55.222 -57.262  1.00  0.00     0.136 HD
BRANCH  28  30
HETATM   30  C   UNL     1     -41.844  54.643 -55.444  1.00  0.00     0.014 A 
HETATM   31  C   UNL     1     -42.785  54.527 -54.412  1.00  0.00     0.024 A 
HETATM   32  C   UNL     1     -42.446  53.928 -53.194  1.00  0.00     0.002 A 
HETATM   33  C   UNL     1     -41.174  53.398 -53.002  1.00  0.00     0.000 A 
HETATM   34  C   UNL     1     -40.243  53.455 -54.034  1.00  0.00     0.002 A 
HETATM   35  C   UNL     1     -40.580  54.061 -55.249  1.00  0.00     0.024 A 
ENDBRANCH  28  30
ENDBRANCH   7  28
BRANCH  13  36
HETATM   36  O   UNL     1     -40.997  62.021 -57.515  1.00  0.00    -0.395 OA
HETATM   37  H   UNL     1     -40.636  61.192 -57.878  1.00  0.00     0.210 HD
ENDBRANCH  13  36
TORSDOF 10
ENDMDL
