MODEL 1
REMARK VINA RESULT:      -7.9      0.000      0.000
REMARK  9 active torsions:
REMARK  status: ('A' for Active; 'I' for Inactive)
REMARK    1  A    between atoms: N_6  and  C_7 
REMARK    2  A    between atoms: C_9  and  S_10 
REMARK    3  A    between atoms: S_10  and  C_11 
REMARK    4  A    between atoms: C_11  and  C_12 
REMARK    5  A    between atoms: C_14  and  C_15 
REMARK       I    between atoms: C_15  and  N_16 
REMARK    6  A    between atoms: N_16  and  C_17 
REMARK    7  A    between atoms: C_17  and  C_18 
REMARK    8  A    between atoms: C_18  and  N_19 
REMARK    9  A    between atoms: C_27  and  C_28 
ROOT
HETATM    1  C   UNL     1     -40.557  53.690 -51.172  1.00  0.00     0.130 A 
HETATM    2  N   UNL     1     -40.505  54.071 -52.461  1.00  0.00    -0.205 NA
HETATM    3  C   UNL     1     -40.208  53.145 -53.391  1.00  0.00     0.191 A 
HETATM    4  N   UNL     1     -39.875  51.882 -53.119  1.00  0.00    -0.218 NA
HETATM    5  C   UNL     1     -39.918  51.497 -51.825  1.00  0.00     0.146 A 
HETATM    6  C   UNL     1     -40.276  52.382 -50.821  1.00  0.00     0.087 A 
ENDROOT
BRANCH   3   7
HETATM    7  S   UNL     1     -40.326  53.627 -55.097  1.00  0.00    -0.084 SA
BRANCH   7   8
HETATM    8  C   UNL     1     -42.044  54.213 -55.074  1.00  0.00     0.147 C 
BRANCH   8   9
HETATM    9  C   UNL     1     -42.273  55.411 -55.923  1.00  0.00     0.063 A 
HETATM   10  O   UNL     1     -42.772  55.207 -57.179  1.00  0.00    -0.309 OA
HETATM   11  C   UNL     1     -43.079  56.438 -57.697  1.00  0.00     0.143 A 
HETATM   12  C   UNL     1     -42.736  57.422 -56.793  1.00  0.00     0.045 A 
HETATM   13  C   UNL     1     -42.194  56.764 -55.663  1.00  0.00     0.036 A 
BRANCH  11  14
HETATM   14  C   UNL     1     -43.718  56.515 -58.986  1.00  0.00     0.275 C 
HETATM   15  N   UNL     1     -44.962  55.925 -59.063  1.00  0.00    -0.354 N 
HETATM   16  H   UNL     1     -45.258  55.411 -58.235  1.00  0.00     0.162 HD
HETATM   17  O   UNL     1     -43.251  57.089 -59.971  1.00  0.00    -0.265 OA
BRANCH  15  18
HETATM   18  C   UNL     1     -45.634  55.682 -60.331  1.00  0.00     0.150 C 
BRANCH  18  19
HETATM   19  C   UNL     1     -47.094  56.176 -60.372  1.00  0.00     0.253 C 
BRANCH  19  20
HETATM   20  N   UNL     1     -47.337  57.179 -61.481  1.00  0.00    -0.077 N 
HETATM   21  H   UNL     1     -46.560  57.076 -62.163  1.00  0.00     0.279 HD
HETATM   22  C   UNL     1     -48.567  56.893 -62.293  1.00  0.00     0.269 C 
HETATM   23  C   UNL     1     -47.304  58.595 -60.993  1.00  0.00     0.269 C 
ENDBRANCH  19  20
ENDBRANCH  18  19
ENDBRANCH  15  18
ENDBRANCH  11  14
ENDBRANCH   8   9
ENDBRANCH   7   8
ENDBRANCH   3   7
BRANCH   1  24
HETATM   24  N   UNL     1     -40.969  54.623 -50.217  1.00  0.00    -0.362 N 
HETATM   25  C   UNL     1     -42.296  54.378 -49.609  1.00  0.00     0.152 C 
HETATM   26  C   UNL     1     -43.418  55.023 -50.449  1.00  0.00     0.254 C 
HETATM   27  N   UNL     1     -43.133  56.521 -50.631  1.00  0.00    -0.072 N 
HETATM   28  C   UNL     1     -44.221  57.220 -51.388  1.00  0.00     0.269 C 
HETATM   29  H   UNL     1     -43.108  56.934 -49.689  1.00  0.00     0.279 HD
HETATM   30  C   UNL     1     -41.759  56.745 -51.259  1.00  0.00     0.254 C 
HETATM   31  C   UNL     1     -40.660  56.052 -50.422  1.00  0.00     0.152 C 
ENDBRANCH   1  24
BRANCH   5  32
HETATM   32  C   UNL     1     -39.572  50.063 -51.455  1.00  0.00     0.434 C 
HETATM   33  F   UNL     1     -38.357  49.925 -50.861  1.00  0.00    -0.165 F 
HETATM   34  F   UNL     1     -40.482  49.532 -50.591  1.00  0.00    -0.165 F 
HETATM   35  F   UNL     1     -39.563  49.238 -52.539  1.00  0.00    -0.165 F 
ENDBRANCH   5  32
TORSDOF 9
ENDMDL
MODEL 2
REMARK VINA RESULT:      -7.7      3.267      8.900
REMARK  9 active torsions:
REMARK  status: ('A' for Active; 'I' for Inactive)
REMARK    1  A    between atoms: N_6  and  C_7 
REMARK    2  A    between atoms: C_9  and  S_10 
REMARK    3  A    between atoms: S_10  and  C_11 
REMARK    4  A    between atoms: C_11  and  C_12 
REMARK    5  A    between atoms: C_14  and  C_15 
REMARK       I    between atoms: C_15  and  N_16 
REMARK    6  A    between atoms: N_16  and  C_17 
REMARK    7  A    between atoms: C_17  and  C_18 
REMARK    8  A    between atoms: C_18  and  N_19 
REMARK    9  A    between atoms: C_27  and  C_28 
ROOT
HETATM    1  C   UNL     1     -42.910  56.945 -57.792  1.00  0.00     0.130 A 
HETATM    2  N   UNL     1     -42.703  58.070 -57.085  1.00  0.00    -0.205 NA
HETATM    3  C   UNL     1     -42.482  57.964 -55.762  1.00  0.00     0.191 A 
HETATM    4  N   UNL     1     -42.538  56.820 -55.077  1.00  0.00    -0.218 NA
HETATM    5  C   UNL     1     -42.754  55.689 -55.782  1.00  0.00     0.146 A 
HETATM    6  C   UNL     1     -42.929  55.717 -57.156  1.00  0.00     0.087 A 
ENDROOT
BRANCH   3   7
HETATM    7  S   UNL     1     -42.029  59.440 -54.884  1.00  0.00    -0.084 SA
BRANCH   7   8
HETATM    8  C   UNL     1     -43.030  59.163 -53.395  1.00  0.00     0.147 C 
BRANCH   8   9
HETATM    9  C   UNL     1     -42.235  58.716 -52.221  1.00  0.00     0.063 A 
HETATM   10  O   UNL     1     -42.360  57.410 -51.837  1.00  0.00    -0.309 OA
HETATM   11  C   UNL     1     -41.410  57.178 -50.877  1.00  0.00     0.143 A 
HETATM   12  C   UNL     1     -40.715  58.342 -50.620  1.00  0.00     0.045 A 
HETATM   13  C   UNL     1     -41.263  59.336 -51.465  1.00  0.00     0.036 A 
BRANCH  11  14
HETATM   14  C   UNL     1     -41.250  55.843 -50.359  1.00  0.00     0.275 C 
HETATM   15  N   UNL     1     -41.004  54.870 -51.305  1.00  0.00    -0.354 N 
HETATM   16  H   UNL     1     -41.060  55.174 -52.275  1.00  0.00     0.162 HD
HETATM   17  O   UNL     1     -41.281  55.542 -49.165  1.00  0.00    -0.265 OA
BRANCH  15  18
HETATM   18  C   UNL     1     -41.072  53.448 -50.997  1.00  0.00     0.150 C 
BRANCH  18  19
HETATM   19  C   UNL     1     -39.753  52.690 -51.248  1.00  0.00     0.253 C 
BRANCH  19  20
HETATM   20  N   UNL     1     -39.965  51.386 -51.990  1.00  0.00    -0.077 N 
HETATM   21  H   UNL     1     -40.990  51.260 -52.100  1.00  0.00     0.279 HD
HETATM   22  C   UNL     1     -39.451  51.404 -53.400  1.00  0.00     0.269 C 
HETATM   23  C   UNL     1     -39.460  50.201 -51.225  1.00  0.00     0.269 C 
ENDBRANCH  19  20
ENDBRANCH  18  19
ENDBRANCH  15  18
ENDBRANCH  11  14
ENDBRANCH   8   9
ENDBRANCH   7   8
ENDBRANCH   3   7
BRANCH   1  24
HETATM   24  N   UNL     1     -43.033  57.043 -59.181  1.00  0.00    -0.362 N 
HETATM   25  C   UNL     1     -43.720  58.254 -59.681  1.00  0.00     0.152 C 
HETATM   26  C   UNL     1     -45.246  58.036 -59.750  1.00  0.00     0.254 C 
HETATM   27  N   UNL     1     -45.555  56.799 -60.608  1.00  0.00    -0.072 N 
HETATM   28  C   UNL     1     -47.027  56.568 -60.765  1.00  0.00     0.269 C 
HETATM   29  H   UNL     1     -45.177  56.988 -61.546  1.00  0.00     0.279 HD
HETATM   30  C   UNL     1     -44.834  55.566 -60.069  1.00  0.00     0.254 C 
HETATM   31  C   UNL     1     -43.314  55.827 -59.969  1.00  0.00     0.152 C 
ENDBRANCH   1  24
BRANCH   5  32
HETATM   32  C   UNL     1     -42.805  54.352 -55.059  1.00  0.00     0.434 C 
HETATM   33  F   UNL     1     -43.561  53.413 -55.689  1.00  0.00    -0.165 F 
HETATM   34  F   UNL     1     -41.563  53.809 -54.916  1.00  0.00    -0.165 F 
HETATM   35  F   UNL     1     -43.308  54.465 -53.798  1.00  0.00    -0.165 F 
ENDBRANCH   5  32
TORSDOF 9
ENDMDL
MODEL 3
REMARK VINA RESULT:      -7.7      3.393      8.818
REMARK  9 active torsions:
REMARK  status: ('A' for Active; 'I' for Inactive)
REMARK    1  A    between atoms: N_6  and  C_7 
REMARK    2  A    between atoms: C_9  and  S_10 
REMARK    3  A    between atoms: S_10  and  C_11 
REMARK    4  A    between atoms: C_11  and  C_12 
REMARK    5  A    between atoms: C_14  and  C_15 
REMARK       I    between atoms: C_15  and  N_16 
REMARK    6  A    between atoms: N_16  and  C_17 
REMARK    7  A    between atoms: C_17  and  C_18 
REMARK    8  A    between atoms: C_18  and  N_19 
REMARK    9  A    between atoms: C_27  and  C_28 
ROOT
HETATM    1  C   UNL     1     -43.261  56.333 -57.182  1.00  0.00     0.130 A 
HETATM    2  N   UNL     1     -43.521  57.405 -56.414  1.00  0.00    -0.205 NA
HETATM    3  C   UNL     1     -42.977  57.460 -55.185  1.00  0.00     0.191 A 
HETATM    4  N   UNL     1     -42.258  56.480 -54.633  1.00  0.00    -0.218 NA
HETATM    5  C   UNL     1     -42.001  55.398 -55.399  1.00  0.00     0.146 A 
HETATM    6  C   UNL     1     -42.479  55.301 -56.696  1.00  0.00     0.087 A 
ENDROOT
BRANCH   3   7
HETATM    7  S   UNL     1     -43.183  58.964 -54.262  1.00  0.00    -0.084 SA
BRANCH   7   8
HETATM    8  C   UNL     1     -43.721  58.223 -52.694  1.00  0.00     0.147 C 
BRANCH   8   9
HETATM    9  C   UNL     1     -42.613  58.021 -51.723  1.00  0.00     0.063 A 
HETATM   10  O   UNL     1     -42.531  56.804 -51.107  1.00  0.00    -0.309 OA
HETATM   11  C   UNL     1     -41.346  56.779 -50.418  1.00  0.00     0.143 A 
HETATM   12  C   UNL     1     -40.701  57.989 -50.558  1.00  0.00     0.045 A 
HETATM   13  C   UNL     1     -41.526  58.797 -51.376  1.00  0.00     0.036 A 
BRANCH  11  14
HETATM   14  C   UNL     1     -40.954  55.565 -49.747  1.00  0.00     0.275 C 
HETATM   15  N   UNL     1     -40.234  54.674 -50.514  1.00  0.00    -0.354 N 
HETATM   16  H   UNL     1     -40.141  54.916 -51.499  1.00  0.00     0.162 HD
HETATM   17  O   UNL     1     -41.181  55.309 -48.563  1.00  0.00    -0.265 OA
BRANCH  15  18
HETATM   18  C   UNL     1     -39.980  53.305 -50.088  1.00  0.00     0.150 C 
BRANCH  18  19
HETATM   19  C   UNL     1     -40.547  52.236 -51.043  1.00  0.00     0.253 C 
BRANCH  19  20
HETATM   20  N   UNL     1     -39.466  51.359 -51.642  1.00  0.00    -0.077 N 
HETATM   21  H   UNL     1     -38.552  51.757 -51.348  1.00  0.00     0.279 HD
HETATM   22  C   UNL     1     -39.446  49.964 -51.089  1.00  0.00     0.269 C 
HETATM   23  C   UNL     1     -39.484  51.368 -53.140  1.00  0.00     0.269 C 
ENDBRANCH  19  20
ENDBRANCH  18  19
ENDBRANCH  15  18
ENDBRANCH  11  14
ENDBRANCH   8   9
ENDBRANCH   7   8
ENDBRANCH   3   7
BRANCH   1  24
HETATM   24  N   UNL     1     -43.736  56.322 -58.497  1.00  0.00    -0.362 N 
HETATM   25  C   UNL     1     -42.722  56.074 -59.545  1.00  0.00     0.152 C 
HETATM   26  C   UNL     1     -42.058  57.393 -59.996  1.00  0.00     0.254 C 
HETATM   27  N   UNL     1     -43.136  58.386 -60.456  1.00  0.00    -0.072 N 
HETATM   28  C   UNL     1     -42.550  59.667 -60.965  1.00  0.00     0.269 C 
HETATM   29  H   UNL     1     -43.628  57.944 -61.245  1.00  0.00     0.279 HD
HETATM   30  C   UNL     1     -44.168  58.622 -59.356  1.00  0.00     0.254 C 
HETATM   31  C   UNL     1     -44.785  57.282 -58.893  1.00  0.00     0.152 C 
ENDBRANCH   1  24
BRANCH   5  32
HETATM   32  C   UNL     1     -41.167  54.258 -54.833  1.00  0.00     0.434 C 
HETATM   33  F   UNL     1     -40.563  54.552 -53.651  1.00  0.00    -0.165 F 
HETATM   34  F   UNL     1     -41.921  53.145 -54.610  1.00  0.00    -0.165 F 
HETATM   35  F   UNL     1     -40.176  53.872 -55.684  1.00  0.00    -0.165 F 
ENDBRANCH   5  32
TORSDOF 9
ENDMDL
MODEL 4
REMARK VINA RESULT:      -7.5      4.058      6.707
REMARK  9 active torsions:
REMARK  status: ('A' for Active; 'I' for Inactive)
REMARK    1  A    between atoms: N_6  and  C_7 
REMARK    2  A    between atoms: C_9  and  S_10 
REMARK    3  A    between atoms: S_10  and  C_11 
REMARK    4  A    between atoms: C_11  and  C_12 
REMARK    5  A    between atoms: C_14  and  C_15 
REMARK       I    between atoms: C_15  and  N_16 
REMARK    6  A    between atoms: N_16  and  C_17 
REMARK    7  A    between atoms: C_17  and  C_18 
REMARK    8  A    between atoms: C_18  and  N_19 
REMARK    9  A    between atoms: C_27  and  C_28 
ROOT
HETATM    1  C   UNL     1     -40.486  53.750 -53.911  1.00  0.00     0.130 A 
HETATM    2  N   UNL     1     -40.485  54.017 -52.593  1.00  0.00    -0.205 NA
HETATM    3  C   UNL     1     -40.195  53.021 -51.738  1.00  0.00     0.191 A 
HETATM    4  N   UNL     1     -39.989  51.752 -52.099  1.00  0.00    -0.218 NA
HETATM    5  C   UNL     1     -39.997  51.478 -53.421  1.00  0.00     0.146 A 
HETATM    6  C   UNL     1     -40.228  52.468 -54.362  1.00  0.00     0.087 A 
ENDROOT
BRANCH   3   7
HETATM    7  S   UNL     1     -40.019  53.438 -50.020  1.00  0.00    -0.084 SA
BRANCH   7   8
HETATM    8  C   UNL     1     -40.544  55.172 -50.128  1.00  0.00     0.147 C 
BRANCH   8   9
HETATM    9  C   UNL     1     -42.018  55.341 -50.222  1.00  0.00     0.063 A 
HETATM   10  O   UNL     1     -42.499  56.613 -50.354  1.00  0.00    -0.309 OA
HETATM   11  C   UNL     1     -43.841  56.513 -50.613  1.00  0.00     0.143 A 
HETATM   12  C   UNL     1     -44.220  55.187 -50.601  1.00  0.00     0.045 A 
HETATM   13  C   UNL     1     -43.054  54.435 -50.324  1.00  0.00     0.036 A 
BRANCH  11  14
HETATM   14  C   UNL     1     -44.590  57.712 -50.894  1.00  0.00     0.275 C 
HETATM   15  N   UNL     1     -43.837  58.858 -51.034  1.00  0.00    -0.354 N 
HETATM   16  H   UNL     1     -42.844  58.761 -50.826  1.00  0.00     0.162 HD
HETATM   17  O   UNL     1     -45.812  57.759 -51.050  1.00  0.00    -0.265 OA
BRANCH  15  18
HETATM   18  C   UNL     1     -44.434  60.185 -51.063  1.00  0.00     0.150 C 
BRANCH  18  19
HETATM   19  C   UNL     1     -43.658  61.239 -50.247  1.00  0.00     0.253 C 
BRANCH  19  20
HETATM   20  N   UNL     1     -43.666  62.604 -50.905  1.00  0.00    -0.077 N 
HETATM   21  H   UNL     1     -43.270  62.486 -51.858  1.00  0.00     0.279 HD
HETATM   22  C   UNL     1     -45.043  63.146 -51.153  1.00  0.00     0.269 C 
HETATM   23  C   UNL     1     -42.796  63.591 -50.190  1.00  0.00     0.269 C 
ENDBRANCH  19  20
ENDBRANCH  18  19
ENDBRANCH  15  18
ENDBRANCH  11  14
ENDBRANCH   8   9
ENDBRANCH   7   8
ENDBRANCH   3   7
BRANCH   1  24
HETATM   24  N   UNL     1     -40.681  54.806 -54.806  1.00  0.00    -0.362 N 
HETATM   25  C   UNL     1     -40.663  56.162 -54.214  1.00  0.00     0.152 C 
HETATM   26  C   UNL     1     -42.068  56.569 -53.720  1.00  0.00     0.254 C 
HETATM   27  N   UNL     1     -43.076  56.455 -54.872  1.00  0.00    -0.072 N 
HETATM   28  C   UNL     1     -44.451  56.896 -54.472  1.00  0.00     0.269 C 
HETATM   29  H   UNL     1     -42.755  57.096 -55.611  1.00  0.00     0.279 HD
HETATM   30  C   UNL     1     -43.073  55.047 -55.464  1.00  0.00     0.254 C 
HETATM   31  C   UNL     1     -41.648  54.649 -55.910  1.00  0.00     0.152 C 
ENDBRANCH   1  24
BRANCH   5  32
HETATM   32  C   UNL     1     -39.745  50.055 -53.894  1.00  0.00     0.434 C 
HETATM   33  F   UNL     1     -38.645  49.924 -54.683  1.00  0.00    -0.165 F 
HETATM   34  F   UNL     1     -39.569  49.200 -52.848  1.00  0.00    -0.165 F 
HETATM   35  F   UNL     1     -40.791  49.556 -54.610  1.00  0.00    -0.165 F 
ENDBRANCH   5  32
TORSDOF 9
ENDMDL
MODEL 5
REMARK VINA RESULT:      -7.4      3.560      4.179
REMARK  9 active torsions:
REMARK  status: ('A' for Active; 'I' for Inactive)
REMARK    1  A    between atoms: N_6  and  C_7 
REMARK    2  A    between atoms: C_9  and  S_10 
REMARK    3  A    between atoms: S_10  and  C_11 
REMARK    4  A    between atoms: C_11  and  C_12 
REMARK    5  A    between atoms: C_14  and  C_15 
REMARK       I    between atoms: C_15  and  N_16 
REMARK    6  A    between atoms: N_16  and  C_17 
REMARK    7  A    between atoms: C_17  and  C_18 
REMARK    8  A    between atoms: C_18  and  N_19 
REMARK    9  A    between atoms: C_27  and  C_28 
ROOT
HETATM    1  C   UNL     1     -41.907  54.522 -51.882  1.00  0.00     0.130 A 
HETATM    2  N   UNL     1     -42.465  54.795 -53.075  1.00  0.00    -0.205 NA
HETATM    3  C   UNL     1     -42.139  54.022 -54.127  1.00  0.00     0.191 A 
HETATM    4  N   UNL     1     -41.229  53.047 -54.093  1.00  0.00    -0.218 NA
HETATM    5  C   UNL     1     -40.661  52.774 -52.898  1.00  0.00     0.146 A 
HETATM    6  C   UNL     1     -40.995  53.490 -51.760  1.00  0.00     0.087 A 
ENDROOT
BRANCH   3   7
HETATM    7  S   UNL     1     -43.024  54.284 -55.645  1.00  0.00    -0.084 SA
BRANCH   7   8
HETATM    8  C   UNL     1     -43.218  56.085 -55.514  1.00  0.00     0.147 C 
BRANCH   8   9
HETATM    9  C   UNL     1     -43.029  56.796 -56.806  1.00  0.00     0.063 A 
HETATM   10  O   UNL     1     -42.624  58.100 -56.753  1.00  0.00    -0.309 OA
HETATM   11  C   UNL     1     -42.334  58.486 -58.036  1.00  0.00     0.143 A 
HETATM   12  C   UNL     1     -42.596  57.447 -58.904  1.00  0.00     0.045 A 
HETATM   13  C   UNL     1     -43.068  56.370 -58.118  1.00  0.00     0.036 A 
BRANCH  11  14
HETATM   14  C   UNL     1     -41.786  59.799 -58.264  1.00  0.00     0.275 C 
HETATM   15  N   UNL     1     -41.977  60.305 -59.532  1.00  0.00    -0.354 N 
HETATM   16  H   UNL     1     -42.394  59.663 -60.204  1.00  0.00     0.162 HD
HETATM   17  O   UNL     1     -41.215  60.482 -57.412  1.00  0.00    -0.265 OA
BRANCH  15  18
HETATM   18  C   UNL     1     -41.280  61.489 -60.013  1.00  0.00     0.150 C 
BRANCH  18  19
HETATM   19  C   UNL     1     -41.581  61.839 -61.485  1.00  0.00     0.253 C 
BRANCH  19  20
HETATM   20  N   UNL     1     -40.357  62.336 -62.226  1.00  0.00    -0.077 N 
HETATM   21  H   UNL     1     -39.790  61.502 -62.475  1.00  0.00     0.279 HD
HETATM   22  C   UNL     1     -40.669  62.968 -63.551  1.00  0.00     0.269 C 
HETATM   23  C   UNL     1     -39.489  63.215 -61.377  1.00  0.00     0.269 C 
ENDBRANCH  19  20
ENDBRANCH  18  19
ENDBRANCH  15  18
ENDBRANCH  11  14
ENDBRANCH   8   9
ENDBRANCH   7   8
ENDBRANCH   3   7
BRANCH   1  24
HETATM   24  N   UNL     1     -42.325  55.255 -50.767  1.00  0.00    -0.362 N 
HETATM   25  C   UNL     1     -43.576  56.027 -50.937  1.00  0.00     0.152 C 
HETATM   26  C   UNL     1     -43.287  57.429 -51.515  1.00  0.00     0.254 C 
HETATM   27  N   UNL     1     -42.273  58.159 -50.622  1.00  0.00    -0.072 N 
HETATM   28  C   UNL     1     -41.996  59.553 -51.096  1.00  0.00     0.269 C 
HETATM   29  H   UNL     1     -42.702  58.236 -49.690  1.00  0.00     0.279 HD
HETATM   30  C   UNL     1     -40.993  57.340 -50.464  1.00  0.00     0.254 C 
HETATM   31  C   UNL     1     -41.316  55.928 -49.926  1.00  0.00     0.152 C 
ENDBRANCH   1  24
BRANCH   5  32
HETATM   32  C   UNL     1     -39.634  51.657 -52.792  1.00  0.00     0.434 C 
HETATM   33  F   UNL     1     -38.776  51.795 -51.746  1.00  0.00    -0.165 F 
HETATM   34  F   UNL     1     -40.228  50.440 -52.641  1.00  0.00    -0.165 F 
HETATM   35  F   UNL     1     -38.862  51.558 -53.910  1.00  0.00    -0.165 F 
ENDBRANCH   5  32
TORSDOF 9
ENDMDL
MODEL 6
REMARK VINA RESULT:      -7.4      4.190      7.058
REMARK  9 active torsions:
REMARK  status: ('A' for Active; 'I' for Inactive)
REMARK    1  A    between atoms: N_6  and  C_7 
REMARK    2  A    between atoms: C_9  and  S_10 
REMARK    3  A    between atoms: S_10  and  C_11 
REMARK    4  A    between atoms: C_11  and  C_12 
REMARK    5  A    between atoms: C_14  and  C_15 
REMARK       I    between atoms: C_15  and  N_16 
REMARK    6  A    between atoms: N_16  and  C_17 
REMARK    7  A    between atoms: C_17  and  C_18 
REMARK    8  A    between atoms: C_18  and  N_19 
REMARK    9  A    between atoms: C_27  and  C_28 
ROOT
HETATM    1  C   UNL     1     -40.566  53.029 -53.216  1.00  0.00     0.130 A 
HETATM    2  N   UNL     1     -40.614  53.861 -52.160  1.00  0.00    -0.205 NA
HETATM    3  C   UNL     1     -40.255  53.387 -50.954  1.00  0.00     0.191 A 
HETATM    4  N   UNL     1     -39.934  52.115 -50.708  1.00  0.00    -0.218 NA
HETATM    5  C   UNL     1     -39.892  51.274 -51.764  1.00  0.00     0.146 A 
HETATM    6  C   UNL     1     -40.189  51.709 -53.045  1.00  0.00     0.087 A 
ENDROOT
BRANCH   3   7
HETATM    7  S   UNL     1     -40.149  54.547 -49.613  1.00  0.00    -0.084 SA
BRANCH   7   8
HETATM    8  C   UNL     1     -41.777  55.322 -49.823  1.00  0.00     0.147 C 
BRANCH   8   9
HETATM    9  C   UNL     1     -41.724  56.634 -50.521  1.00  0.00     0.063 A 
HETATM   10  O   UNL     1     -42.907  57.286 -50.727  1.00  0.00    -0.309 OA
HETATM   11  C   UNL     1     -42.602  58.535 -51.201  1.00  0.00     0.143 A 
HETATM   12  C   UNL     1     -41.236  58.660 -51.340  1.00  0.00     0.045 A 
HETATM   13  C   UNL     1     -40.672  57.429 -50.927  1.00  0.00     0.036 A 
BRANCH  11  14
HETATM   14  C   UNL     1     -43.669  59.480 -51.416  1.00  0.00     0.275 C 
HETATM   15  N   UNL     1     -44.371  59.844 -50.286  1.00  0.00    -0.354 N 
HETATM   16  H   UNL     1     -44.132  59.334 -49.436  1.00  0.00     0.162 HD
HETATM   17  O   UNL     1     -43.950  59.991 -52.502  1.00  0.00    -0.265 OA
BRANCH  15  18
HETATM   18  C   UNL     1     -45.626  60.577 -50.349  1.00  0.00     0.150 C 
BRANCH  18  19
HETATM   19  C   UNL     1     -45.659  61.840 -49.464  1.00  0.00     0.253 C 
BRANCH  19  20
HETATM   20  N   UNL     1     -46.061  61.536 -48.035  1.00  0.00    -0.077 N 
HETATM   21  H   UNL     1     -46.481  60.586 -48.030  1.00  0.00     0.279 HD
HETATM   22  C   UNL     1     -44.898  61.419 -47.094  1.00  0.00     0.269 C 
HETATM   23  C   UNL     1     -47.106  62.477 -47.519  1.00  0.00     0.269 C 
ENDBRANCH  19  20
ENDBRANCH  18  19
ENDBRANCH  15  18
ENDBRANCH  11  14
ENDBRANCH   8   9
ENDBRANCH   7   8
ENDBRANCH   3   7
BRANCH   1  24
HETATM   24  N   UNL     1     -40.834  53.547 -54.486  1.00  0.00    -0.362 N 
HETATM   25  C   UNL     1     -40.047  54.738 -54.874  1.00  0.00     0.152 C 
HETATM   26  C   UNL     1     -40.739  56.035 -54.405  1.00  0.00     0.254 C 
HETATM   27  N   UNL     1     -42.173  56.086 -54.954  1.00  0.00    -0.072 N 
HETATM   28  C   UNL     1     -42.880  57.353 -54.585  1.00  0.00     0.269 C 
HETATM   29  H   UNL     1     -42.097  56.069 -55.980  1.00  0.00     0.279 HD
HETATM   30  C   UNL     1     -42.961  54.845 -54.539  1.00  0.00     0.254 C 
HETATM   31  C   UNL     1     -42.224  53.561 -54.982  1.00  0.00     0.152 C 
ENDBRANCH   1  24
BRANCH   5  32
HETATM   32  C   UNL     1     -39.509  49.818 -51.550  1.00  0.00     0.434 C 
HETATM   33  F   UNL     1     -39.309  49.125 -52.703  1.00  0.00    -0.165 F 
HETATM   34  F   UNL     1     -38.358  49.701 -50.830  1.00  0.00    -0.165 F 
HETATM   35  F   UNL     1     -40.456  49.132 -50.851  1.00  0.00    -0.165 F 
ENDBRANCH   5  32
TORSDOF 9
ENDMDL
MODEL 7
REMARK VINA RESULT:      -7.4      4.222      5.959
REMARK  9 active torsions:
REMARK  status: ('A' for Active; 'I' for Inactive)
REMARK    1  A    between atoms: N_6  and  C_7 
REMARK    2  A    between atoms: C_9  and  S_10 
REMARK    3  A    between atoms: S_10  and  C_11 
REMARK    4  A    between atoms: C_11  and  C_12 
REMARK    5  A    between atoms: C_14  and  C_15 
REMARK       I    between atoms: C_15  and  N_16 
REMARK    6  A    between atoms: N_16  and  C_17 
REMARK    7  A    between atoms: C_17  and  C_18 
REMARK    8  A    between atoms: C_18  and  N_19 
REMARK    9  A    between atoms: C_27  and  C_28 
ROOT
HETATM    1  C   UNL     1     -40.701  52.967 -53.186  1.00  0.00     0.130 A 
HETATM    2  N   UNL     1     -40.840  53.764 -52.112  1.00  0.00    -0.205 NA
HETATM    3  C   UNL     1     -40.499  53.278 -50.905  1.00  0.00     0.191 A 
HETATM    4  N   UNL     1     -40.107  52.021 -50.681  1.00  0.00    -0.218 NA
HETATM    5  C   UNL     1     -39.973  51.216 -51.756  1.00  0.00     0.146 A 
HETATM    6  C   UNL     1     -40.249  51.669 -53.036  1.00  0.00     0.087 A 
ENDROOT
BRANCH   3   7
HETATM    7  S   UNL     1     -40.516  54.403 -49.531  1.00  0.00    -0.084 SA
BRANCH   7   8
HETATM    8  C   UNL     1     -41.966  55.378 -50.024  1.00  0.00     0.147 C 
BRANCH   8   9
HETATM    9  C   UNL     1     -41.622  56.723 -50.556  1.00  0.00     0.063 A 
HETATM   10  O   UNL     1     -42.654  57.584 -50.805  1.00  0.00    -0.309 OA
HETATM   11  C   UNL     1     -42.101  58.803 -51.099  1.00  0.00     0.143 A 
HETATM   12  C   UNL     1     -40.725  58.707 -51.081  1.00  0.00     0.045 A 
HETATM   13  C   UNL     1     -40.417  57.364 -50.758  1.00  0.00     0.036 A 
BRANCH  11  14
HETATM   14  C   UNL     1     -42.971  59.933 -51.310  1.00  0.00     0.275 C 
HETATM   15  N   UNL     1     -44.144  59.916 -50.586  1.00  0.00    -0.354 N 
HETATM   16  H   UNL     1     -44.323  59.065 -50.056  1.00  0.00     0.162 HD
HETATM   17  O   UNL     1     -42.716  60.891 -52.042  1.00  0.00    -0.265 OA
BRANCH  15  18
HETATM   18  C   UNL     1     -45.244  60.830 -50.862  1.00  0.00     0.150 C 
BRANCH  18  19
HETATM   19  C   UNL     1     -46.374  60.212 -51.709  1.00  0.00     0.253 C 
BRANCH  19  20
HETATM   20  N   UNL     1     -46.372  60.717 -53.137  1.00  0.00    -0.077 N 
HETATM   21  H   UNL     1     -47.334  60.590 -53.509  1.00  0.00     0.279 HD
HETATM   22  C   UNL     1     -46.135  62.195 -53.254  1.00  0.00     0.269 C 
HETATM   23  C   UNL     1     -45.455  59.931 -54.023  1.00  0.00     0.269 C 
ENDBRANCH  19  20
ENDBRANCH  18  19
ENDBRANCH  15  18
ENDBRANCH  11  14
ENDBRANCH   8   9
ENDBRANCH   7   8
ENDBRANCH   3   7
BRANCH   1  24
HETATM   24  N   UNL     1     -40.953  53.504 -54.452  1.00  0.00    -0.362 N 
HETATM   25  C   UNL     1     -40.085  54.632 -54.856  1.00  0.00     0.152 C 
HETATM   26  C   UNL     1     -40.668  55.978 -54.376  1.00  0.00     0.254 C 
HETATM   27  N   UNL     1     -42.104  56.137 -54.898  1.00  0.00    -0.072 N 
HETATM   28  C   UNL     1     -42.706  57.455 -54.517  1.00  0.00     0.269 C 
HETATM   29  H   UNL     1     -42.049  56.115 -55.925  1.00  0.00     0.279 HD
HETATM   30  C   UNL     1     -42.976  54.960 -54.467  1.00  0.00     0.254 C 
HETATM   31  C   UNL     1     -42.347  53.623 -54.922  1.00  0.00     0.152 C 
ENDBRANCH   1  24
BRANCH   5  32
HETATM   32  C   UNL     1     -39.508  49.780 -51.566  1.00  0.00     0.434 C 
HETATM   33  F   UNL     1     -39.237  49.130 -52.729  1.00  0.00    -0.165 F 
HETATM   34  F   UNL     1     -38.370  49.715 -50.819  1.00  0.00    -0.165 F 
HETATM   35  F   UNL     1     -40.428  49.021 -50.909  1.00  0.00    -0.165 F 
ENDBRANCH   5  32
TORSDOF 9
ENDMDL
MODEL 8
REMARK VINA RESULT:      -7.3      1.671      2.195
REMARK  9 active torsions:
REMARK  status: ('A' for Active; 'I' for Inactive)
REMARK    1  A    between atoms: N_6  and  C_7 
REMARK    2  A    between atoms: C_9  and  S_10 
REMARK    3  A    between atoms: S_10  and  C_11 
REMARK    4  A    between atoms: C_11  and  C_12 
REMARK    5  A    between atoms: C_14  and  C_15 
REMARK       I    between atoms: C_15  and  N_16 
REMARK    6  A    between atoms: N_16  and  C_17 
REMARK    7  A    between atoms: C_17  and  C_18 
REMARK    8  A    between atoms: C_18  and  N_19 
REMARK    9  A    between atoms: C_27  and  C_28 
ROOT
HETATM    1  C   UNL     1     -41.744  54.387 -51.941  1.00  0.00     0.130 A 
HETATM    2  N   UNL     1     -42.320  54.781 -53.091  1.00  0.00    -0.205 NA
HETATM    3  C   UNL     1     -42.093  54.058 -54.202  1.00  0.00     0.191 A 
HETATM    4  N   UNL     1     -41.260  53.016 -54.267  1.00  0.00    -0.218 NA
HETATM    5  C   UNL     1     -40.673  52.623 -53.116  1.00  0.00     0.146 A 
HETATM    6  C   UNL     1     -40.910  53.284 -51.922  1.00  0.00     0.087 A 
ENDROOT
BRANCH   3   7
HETATM    7  S   UNL     1     -43.008  54.486 -55.663  1.00  0.00    -0.084 SA
BRANCH   7   8
HETATM    8  C   UNL     1     -43.534  56.146 -55.151  1.00  0.00     0.147 C 
BRANCH   8   9
HETATM    9  C   UNL     1     -43.120  57.217 -56.096  1.00  0.00     0.063 A 
HETATM   10  O   UNL     1     -43.663  57.194 -57.350  1.00  0.00    -0.309 OA
HETATM   11  C   UNL     1     -43.296  58.360 -57.970  1.00  0.00     0.143 A 
HETATM   12  C   UNL     1     -42.488  59.099 -57.132  1.00  0.00     0.045 A 
HETATM   13  C   UNL     1     -42.353  58.353 -55.937  1.00  0.00     0.036 A 
BRANCH  11  14
HETATM   14  C   UNL     1     -43.816  58.646 -59.284  1.00  0.00     0.275 C 
HETATM   15  N   UNL     1     -45.090  59.173 -59.312  1.00  0.00    -0.354 N 
HETATM   16  H   UNL     1     -45.570  59.211 -58.414  1.00  0.00     0.162 HD
HETATM   17  O   UNL     1     -43.194  58.490 -60.336  1.00  0.00    -0.265 OA
BRANCH  15  18
HETATM   18  C   UNL     1     -45.863  59.280 -60.540  1.00  0.00     0.150 C 
BRANCH  18  19
HETATM   19  C   UNL     1     -47.143  58.421 -60.553  1.00  0.00     0.253 C 
BRANCH  19  20
HETATM   20  N   UNL     1     -46.961  57.119 -61.308  1.00  0.00    -0.077 N 
HETATM   21  H   UNL     1     -46.231  57.283 -62.029  1.00  0.00     0.279 HD
HETATM   22  C   UNL     1     -46.394  56.010 -60.470  1.00  0.00     0.269 C 
HETATM   23  C   UNL     1     -48.202  56.696 -62.031  1.00  0.00     0.269 C 
ENDBRANCH  19  20
ENDBRANCH  18  19
ENDBRANCH  15  18
ENDBRANCH  11  14
ENDBRANCH   8   9
ENDBRANCH   7   8
ENDBRANCH   3   7
BRANCH   1  24
HETATM   24  N   UNL     1     -42.063  55.073 -50.766  1.00  0.00    -0.362 N 
HETATM   25  C   UNL     1     -43.392  55.723 -50.742  1.00  0.00     0.152 C 
HETATM   26  C   UNL     1     -43.321  57.148 -51.331  1.00  0.00     0.254 C 
HETATM   27  N   UNL     1     -42.263  57.968 -50.579  1.00  0.00    -0.072 N 
HETATM   28  C   UNL     1     -42.188  59.384 -51.064  1.00  0.00     0.269 C 
HETATM   29  H   UNL     1     -42.559  58.001 -49.594  1.00  0.00     0.279 HD
HETATM   30  C   UNL     1     -40.903  57.274 -50.620  1.00  0.00     0.254 C 
HETATM   31  C   UNL     1     -41.011  55.836 -50.065  1.00  0.00     0.152 C 
ENDBRANCH   1  24
BRANCH   5  32
HETATM   32  C   UNL     1     -39.733  51.427 -53.123  1.00  0.00     0.434 C 
HETATM   33  F   UNL     1     -38.594  51.626 -53.838  1.00  0.00    -0.165 F 
HETATM   34  F   UNL     1     -39.340  51.089 -51.863  1.00  0.00    -0.165 F 
HETATM   35  F   UNL     1     -40.320  50.312 -53.641  1.00  0.00    -0.165 F 
ENDBRANCH   5  32
TORSDOF 9
ENDMDL
MODEL 9
REMARK VINA RESULT:      -7.2      3.999      7.464
REMARK  9 active torsions:
REMARK  status: ('A' for Active; 'I' for Inactive)
REMARK    1  A    between atoms: N_6  and  C_7 
REMARK    2  A    between atoms: C_9  and  S_10 
REMARK    3  A    between atoms: S_10  and  C_11 
REMARK    4  A    between atoms: C_11  and  C_12 
REMARK    5  A    between atoms: C_14  and  C_15 
REMARK       I    between atoms: C_15  and  N_16 
REMARK    6  A    between atoms: N_16  and  C_17 
REMARK    7  A    between atoms: C_17  and  C_18 
REMARK    8  A    between atoms: C_18  and  N_19 
REMARK    9  A    between atoms: C_27  and  C_28 
ROOT
HETATM    1  C   UNL     1     -43.083  55.152 -54.060  1.00  0.00     0.130 A 
HETATM    2  N   UNL     1     -43.118  55.466 -52.752  1.00  0.00    -0.205 NA
HETATM    3  C   UNL     1     -42.315  54.793 -51.910  1.00  0.00     0.191 A 
HETATM    4  N   UNL     1     -41.539  53.767 -52.265  1.00  0.00    -0.218 NA
HETATM    5  C   UNL     1     -41.507  53.442 -53.576  1.00  0.00     0.146 A 
HETATM    6  C   UNL     1     -42.262  54.134 -54.509  1.00  0.00     0.087 A 
ENDROOT
BRANCH   3   7
HETATM    7  S   UNL     1     -42.242  55.348 -50.224  1.00  0.00    -0.084 SA
BRANCH   7   8
HETATM    8  C   UNL     1     -40.799  56.439 -50.382  1.00  0.00     0.147 C 
BRANCH   8   9
HETATM    9  C   UNL     1     -41.155  57.867 -50.592  1.00  0.00     0.063 A 
HETATM   10  O   UNL     1     -42.446  58.148 -50.942  1.00  0.00    -0.309 OA
HETATM   11  C   UNL     1     -42.591  59.510 -50.893  1.00  0.00     0.143 A 
HETATM   12  C   UNL     1     -41.387  60.094 -50.557  1.00  0.00     0.045 A 
HETATM   13  C   UNL     1     -40.458  59.040 -50.388  1.00  0.00     0.036 A 
BRANCH  11  14
HETATM   14  C   UNL     1     -43.892  60.084 -51.126  1.00  0.00     0.275 C 
HETATM   15  N   UNL     1     -43.910  61.451 -51.306  1.00  0.00    -0.354 N 
HETATM   16  H   UNL     1     -43.021  61.926 -51.157  1.00  0.00     0.162 HD
HETATM   17  O   UNL     1     -44.940  59.442 -51.209  1.00  0.00    -0.265 OA
BRANCH  15  18
HETATM   18  C   UNL     1     -45.143  62.223 -51.296  1.00  0.00     0.150 C 
BRANCH  18  19
HETATM   19  C   UNL     1     -45.419  62.945 -49.962  1.00  0.00     0.253 C 
BRANCH  19  20
HETATM   20  N   UNL     1     -46.333  62.152 -49.050  1.00  0.00    -0.077 N 
HETATM   21  H   UNL     1     -46.829  61.457 -49.643  1.00  0.00     0.279 HD
HETATM   22  C   UNL     1     -45.601  61.310 -48.046  1.00  0.00     0.269 C 
HETATM   23  C   UNL     1     -47.384  63.004 -48.406  1.00  0.00     0.269 C 
ENDBRANCH  19  20
ENDBRANCH  18  19
ENDBRANCH  15  18
ENDBRANCH  11  14
ENDBRANCH   8   9
ENDBRANCH   7   8
ENDBRANCH   3   7
BRANCH   1  24
HETATM   24  N   UNL     1     -43.837  55.920 -54.951  1.00  0.00    -0.362 N 
HETATM   25  C   UNL     1     -43.231  56.139 -56.283  1.00  0.00     0.152 C 
HETATM   26  C   UNL     1     -42.316  57.382 -56.278  1.00  0.00     0.254 C 
HETATM   27  N   UNL     1     -43.108  58.606 -55.795  1.00  0.00    -0.072 N 
HETATM   28  C   UNL     1     -42.292  59.862 -55.825  1.00  0.00     0.269 C 
HETATM   29  H   UNL     1     -43.886  58.735 -56.457  1.00  0.00     0.279 HD
HETATM   30  C   UNL     1     -43.723  58.353 -54.420  1.00  0.00     0.254 C 
HETATM   31  C   UNL     1     -44.597  57.079 -54.443  1.00  0.00     0.152 C 
ENDBRANCH   1  24
BRANCH   5  32
HETATM   32  C   UNL     1     -40.623  52.297 -54.045  1.00  0.00     0.434 C 
HETATM   33  F   UNL     1     -41.314  51.208 -54.475  1.00  0.00    -0.165 F 
HETATM   34  F   UNL     1     -39.819  52.673 -55.080  1.00  0.00    -0.165 F 
HETATM   35  F   UNL     1     -39.786  51.856 -53.065  1.00  0.00    -0.165 F 
ENDBRANCH   5  32
TORSDOF 9
ENDMDL
MODEL 10
REMARK VINA RESULT:      -7.1      4.727      8.441
REMARK  9 active torsions:
REMARK  status: ('A' for Active; 'I' for Inactive)
REMARK    1  A    between atoms: N_6  and  C_7 
REMARK    2  A    between atoms: C_9  and  S_10 
REMARK    3  A    between atoms: S_10  and  C_11 
REMARK    4  A    between atoms: C_11  and  C_12 
REMARK    5  A    between atoms: C_14  and  C_15 
REMARK       I    between atoms: C_15  and  N_16 
REMARK    6  A    between atoms: N_16  and  C_17 
REMARK    7  A    between atoms: C_17  and  C_18 
REMARK    8  A    between atoms: C_18  and  N_19 
REMARK    9  A    between atoms: C_27  and  C_28 
ROOT
HETATM    1  C   UNL     1     -42.397  57.728 -56.299  1.00  0.00     0.130 A 
HETATM    2  N   UNL     1     -42.104  56.800 -55.370  1.00  0.00    -0.205 NA
HETATM    3  C   UNL     1     -42.327  55.507 -55.665  1.00  0.00     0.191 A 
HETATM    4  N   UNL     1     -42.903  55.077 -56.789  1.00  0.00    -0.218 NA
HETATM    5  C   UNL     1     -43.207  56.006 -57.721  1.00  0.00     0.146 A 
HETATM    6  C   UNL     1     -42.948  57.351 -57.510  1.00  0.00     0.087 A 
ENDROOT
BRANCH   3   7
HETATM    7  S   UNL     1     -41.762  54.290 -54.500  1.00  0.00    -0.084 SA
BRANCH   7   8
HETATM    8  C   UNL     1     -42.829  54.761 -53.108  1.00  0.00     0.147 C 
BRANCH   8   9
HETATM    9  C   UNL     1     -42.092  55.403 -51.988  1.00  0.00     0.063 A 
HETATM   10  O   UNL     1     -41.869  56.748 -52.070  1.00  0.00    -0.309 OA
HETATM   11  C   UNL     1     -41.357  57.148 -50.863  1.00  0.00     0.143 A 
HETATM   12  C   UNL     1     -41.212  56.055 -50.034  1.00  0.00     0.045 A 
HETATM   13  C   UNL     1     -41.660  54.929 -50.766  1.00  0.00     0.036 A 
BRANCH  11  14
HETATM   14  C   UNL     1     -41.116  58.550 -50.636  1.00  0.00     0.275 C 
HETATM   15  N   UNL     1     -42.242  59.311 -50.400  1.00  0.00    -0.354 N 
HETATM   16  H   UNL     1     -43.131  58.827 -50.511  1.00  0.00     0.162 HD
HETATM   17  O   UNL     1     -40.003  59.078 -50.601  1.00  0.00    -0.265 OA
BRANCH  15  18
HETATM   18  C   UNL     1     -42.216  60.766 -50.406  1.00  0.00     0.150 C 
BRANCH  18  19
HETATM   19  C   UNL     1     -43.592  61.419 -50.168  1.00  0.00     0.253 C 
BRANCH  19  20
HETATM   20  N   UNL     1     -44.569  60.482 -49.487  1.00  0.00    -0.077 N 
HETATM   21  H   UNL     1     -44.025  59.660 -49.158  1.00  0.00     0.279 HD
HETATM   22  C   UNL     1     -45.166  61.044 -48.230  1.00  0.00     0.269 C 
HETATM   23  C   UNL     1     -45.618  59.965 -50.423  1.00  0.00     0.269 C 
ENDBRANCH  19  20
ENDBRANCH  18  19
ENDBRANCH  15  18
ENDBRANCH  11  14
ENDBRANCH   8   9
ENDBRANCH   7   8
ENDBRANCH   3   7
BRANCH   1  24
HETATM   24  N   UNL     1     -42.068  59.061 -56.037  1.00  0.00    -0.362 N 
HETATM   25  C   UNL     1     -41.785  59.387 -54.622  1.00  0.00     0.152 C 
HETATM   26  C   UNL     1     -43.081  59.757 -53.869  1.00  0.00     0.254 C 
HETATM   27  N   UNL     1     -43.793  60.906 -54.597  1.00  0.00    -0.072 N 
HETATM   28  C   UNL     1     -45.030  61.354 -53.880  1.00  0.00     0.269 C 
HETATM   29  H   UNL     1     -43.141  61.702 -54.601  1.00  0.00     0.279 HD
HETATM   30  C   UNL     1     -44.072  60.543 -56.054  1.00  0.00     0.254 C 
HETATM   31  C   UNL     1     -42.765  60.135 -56.771  1.00  0.00     0.152 C 
ENDBRANCH   1  24
BRANCH   5  32
HETATM   32  C   UNL     1     -43.843  55.574 -59.033  1.00  0.00     0.434 C 
HETATM   33  F   UNL     1     -44.117  54.245 -59.101  1.00  0.00    -0.165 F 
HETATM   34  F   UNL     1     -45.022  56.220 -59.257  1.00  0.00    -0.165 F 
HETATM   35  F   UNL     1     -43.054  55.858 -60.107  1.00  0.00    -0.165 F 
ENDBRANCH   5  32
TORSDOF 9
ENDMDL
