MODEL 1
REMARK VINA RESULT:      -7.8      0.000      0.000
REMARK  8 active torsions:
REMARK  status: ('A' for Active; 'I' for Inactive)
REMARK    1  A    between atoms: C_2  and  O_3 
REMARK    2  A    between atoms: O_3  and  C_4 
REMARK    3  A    between atoms: C_4  and  C_5 
REMARK    4  A    between atoms: C_5  and  C_6 
REMARK    5  A    between atoms: C_6  and  N_7 
REMARK    6  A    between atoms: C_12  and  C_13 
REMARK    7  A    between atoms: C_23  and  C_24 
REMARK    8  A    between atoms: C_25  and  O_26 
ROOT
HETATM    1  N   UNL     1     -42.649  55.346 -50.734  1.00  0.00    -0.334 N 
HETATM    2  C   UNL     1     -41.568  55.650 -49.894  1.00  0.00     0.273 A 
HETATM    3  O   UNL     1     -41.476  56.509 -49.039  1.00  0.00    -0.266 OA
HETATM    4  C   UNL     1     -40.588  54.698 -50.265  1.00  0.00     0.129 A 
HETATM    5  C   UNL     1     -41.010  53.866 -51.258  1.00  0.00     0.034 A 
HETATM    6  C   UNL     1     -42.390  54.208 -51.664  1.00  0.00     0.159 A 
HETATM    7  N   UNL     1     -39.333  54.352 -49.942  1.00  0.00    -0.272 N 
HETATM    8  H   UNL     1     -38.708  54.765 -49.257  1.00  0.00     0.189 HD
HETATM    9  N   UNL     1     -38.911  53.286 -50.669  1.00  0.00    -0.173 NA
HETATM   10  C   UNL     1     -39.949  52.979 -51.484  1.00  0.00     0.101 A 
ENDROOT
BRANCH  10  11
HETATM   11  C   UNL     1     -39.881  51.866 -52.425  1.00  0.00     0.028 A 
HETATM   12  C   UNL     1     -39.679  50.544 -52.005  1.00  0.00     0.078 A 
HETATM   13  C   UNL     1     -39.704  49.489 -52.915  1.00  0.00     0.037 A 
HETATM   14  C   UNL     1     -39.894  49.750 -54.272  1.00  0.00     0.003 A 
HETATM   15  C   UNL     1     -40.060  51.063 -54.713  1.00  0.00     0.001 A 
HETATM   16  C   UNL     1     -40.056  52.115 -53.794  1.00  0.00     0.017 A 
BRANCH  12  17
HETATM   17  O   UNL     1     -39.405  50.218 -50.702  1.00  0.00    -0.360 OA
HETATM   18  H   UNL     1     -38.464  49.968 -50.676  1.00  0.00     0.217 HD
ENDBRANCH  12  17
ENDBRANCH  10  11
BRANCH   6  19
HETATM   19  C   UNL     1     -42.365  54.582 -53.126  1.00  0.00    -0.031 A 
HETATM   20  C   UNL     1     -43.320  54.018 -53.991  1.00  0.00     0.011 A 
HETATM   21  C   UNL     1     -43.342  54.347 -55.349  1.00  0.00     0.024 A 
HETATM   22  C   UNL     1     -42.404  55.240 -55.859  1.00  0.00     0.034 A 
HETATM   23 CL   UNL     1     -42.434  55.649 -57.531  1.00  0.00    -0.084 Cl
HETATM   24  C   UNL     1     -41.444  55.805 -55.026  1.00  0.00     0.024 A 
HETATM   25  C   UNL     1     -41.424  55.478 -53.666  1.00  0.00     0.011 A 
ENDBRANCH   6  19
BRANCH   1  26
HETATM   26  C   UNL     1     -43.920  56.050 -50.685  1.00  0.00     0.129 C 
BRANCH  26  27
HETATM   27  C   UNL     1     -44.069  57.130 -51.760  1.00  0.00     0.046 C 
BRANCH  27  28
HETATM   28  C   UNL     1     -43.382  58.439 -51.388  1.00  0.00     0.169 C 
BRANCH  28  29
HETATM   29  O   UNL     1     -42.089  58.466 -51.985  1.00  0.00    -0.387 OA
BRANCH  29  30
HETATM   30  C   UNL     1     -41.262  59.539 -51.528  1.00  0.00     0.113 C 
HETATM   31  C   UNL     1     -39.941  59.018 -50.970  1.00  0.00     0.039 C 
HETATM   32  C   UNL     1     -42.044  60.274 -50.446  1.00  0.00     0.039 C 
ENDBRANCH  29  30
ENDBRANCH  28  29
ENDBRANCH  27  28
ENDBRANCH  26  27
ENDBRANCH   1  26
TORSDOF 8
ENDMDL
MODEL 2
REMARK VINA RESULT:      -7.6      3.248      6.289
REMARK  8 active torsions:
REMARK  status: ('A' for Active; 'I' for Inactive)
REMARK    1  A    between atoms: C_2  and  O_3 
REMARK    2  A    between atoms: O_3  and  C_4 
REMARK    3  A    between atoms: C_4  and  C_5 
REMARK    4  A    between atoms: C_5  and  C_6 
REMARK    5  A    between atoms: C_6  and  N_7 
REMARK    6  A    between atoms: C_12  and  C_13 
REMARK    7  A    between atoms: C_23  and  C_24 
REMARK    8  A    between atoms: C_25  and  O_26 
ROOT
HETATM    1  N   UNL     1     -43.005  57.947 -52.845  1.00  0.00    -0.334 N 
HETATM    2  C   UNL     1     -44.362  58.294 -52.909  1.00  0.00     0.273 A 
HETATM    3  O   UNL     1     -45.111  58.638 -52.015  1.00  0.00    -0.266 OA
HETATM    4  C   UNL     1     -44.668  58.166 -54.285  1.00  0.00     0.129 A 
HETATM    5  C   UNL     1     -43.598  57.766 -55.029  1.00  0.00     0.034 A 
HETATM    6  C   UNL     1     -42.413  57.580 -54.165  1.00  0.00     0.159 A 
HETATM    7  N   UNL     1     -45.714  58.311 -55.112  1.00  0.00    -0.272 N 
HETATM    8  H   UNL     1     -46.669  58.581 -54.899  1.00  0.00     0.189 HD
HETATM    9  N   UNL     1     -45.367  58.051 -56.399  1.00  0.00    -0.173 NA
HETATM   10  C   UNL     1     -44.055  57.717 -56.353  1.00  0.00     0.101 A 
ENDROOT
BRANCH  10  11
HETATM   11  C   UNL     1     -43.310  57.374 -57.558  1.00  0.00     0.028 A 
HETATM   12  C   UNL     1     -43.213  56.057 -58.029  1.00  0.00     0.078 A 
HETATM   13  C   UNL     1     -42.567  55.768 -59.229  1.00  0.00     0.037 A 
HETATM   14  C   UNL     1     -41.971  56.796 -59.959  1.00  0.00     0.003 A 
HETATM   15  C   UNL     1     -42.025  58.107 -59.488  1.00  0.00     0.001 A 
HETATM   16  C   UNL     1     -42.692  58.395 -58.295  1.00  0.00     0.017 A 
BRANCH  12  17
HETATM   17  O   UNL     1     -43.702  54.986 -57.327  1.00  0.00    -0.360 OA
HETATM   18  H   UNL     1     -43.401  54.189 -57.800  1.00  0.00     0.217 HD
ENDBRANCH  12  17
ENDBRANCH  10  11
BRANCH   6  19
HETATM   19  C   UNL     1     -41.975  56.140 -54.282  1.00  0.00    -0.031 A 
HETATM   20  C   UNL     1     -40.665  55.859 -54.711  1.00  0.00     0.011 A 
HETATM   21  C   UNL     1     -40.213  54.540 -54.820  1.00  0.00     0.024 A 
HETATM   22  C   UNL     1     -41.069  53.488 -54.506  1.00  0.00     0.034 A 
HETATM   23 CL   UNL     1     -40.511  51.866 -54.636  1.00  0.00    -0.084 Cl
HETATM   24  C   UNL     1     -42.372  53.741 -54.087  1.00  0.00     0.024 A 
HETATM   25  C   UNL     1     -42.822  55.060 -53.976  1.00  0.00     0.011 A 
ENDBRANCH   6  19
BRANCH   1  26
HETATM   26  C   UNL     1     -42.231  57.971 -51.615  1.00  0.00     0.129 C 
BRANCH  26  27
HETATM   27  C   UNL     1     -42.345  56.687 -50.789  1.00  0.00     0.046 C 
BRANCH  27  28
HETATM   28  C   UNL     1     -40.990  56.117 -50.386  1.00  0.00     0.169 C 
BRANCH  28  29
HETATM   29  O   UNL     1     -40.762  54.913 -51.112  1.00  0.00    -0.387 OA
BRANCH  29  30
HETATM   30  C   UNL     1     -40.928  53.726 -50.333  1.00  0.00     0.113 C 
HETATM   31  C   UNL     1     -40.428  53.929 -48.906  1.00  0.00     0.039 C 
HETATM   32  C   UNL     1     -40.133  52.625 -51.023  1.00  0.00     0.039 C 
ENDBRANCH  29  30
ENDBRANCH  28  29
ENDBRANCH  27  28
ENDBRANCH  26  27
ENDBRANCH   1  26
TORSDOF 8
ENDMDL
MODEL 3
REMARK VINA RESULT:      -7.2      3.233      8.070
REMARK  8 active torsions:
REMARK  status: ('A' for Active; 'I' for Inactive)
REMARK    1  A    between atoms: C_2  and  O_3 
REMARK    2  A    between atoms: O_3  and  C_4 
REMARK    3  A    between atoms: C_4  and  C_5 
REMARK    4  A    between atoms: C_5  and  C_6 
REMARK    5  A    between atoms: C_6  and  N_7 
REMARK    6  A    between atoms: C_12  and  C_13 
REMARK    7  A    between atoms: C_23  and  C_24 
REMARK    8  A    between atoms: C_25  and  O_26 
ROOT
HETATM    1  N   UNL     1     -42.832  54.998 -53.462  1.00  0.00    -0.334 N 
HETATM    2  C   UNL     1     -43.298  55.060 -54.783  1.00  0.00     0.273 A 
HETATM    3  O   UNL     1     -43.122  54.279 -55.698  1.00  0.00    -0.266 OA
HETATM    4  C   UNL     1     -44.049  56.259 -54.809  1.00  0.00     0.129 A 
HETATM    5  C   UNL     1     -44.055  56.904 -53.609  1.00  0.00     0.034 A 
HETATM    6  C   UNL     1     -43.260  56.151 -52.616  1.00  0.00     0.159 A 
HETATM    7  N   UNL     1     -44.774  56.987 -55.672  1.00  0.00    -0.272 N 
HETATM    8  H   UNL     1     -44.969  56.814 -56.653  1.00  0.00     0.189 HD
HETATM    9  N   UNL     1     -45.295  58.088 -55.074  1.00  0.00    -0.173 NA
HETATM   10  C   UNL     1     -44.856  58.040 -53.794  1.00  0.00     0.101 A 
ENDROOT
BRANCH  10  11
HETATM   11  C   UNL     1     -45.218  59.063 -52.820  1.00  0.00     0.028 A 
HETATM   12  C   UNL     1     -45.566  60.367 -53.200  1.00  0.00     0.078 A 
HETATM   13  C   UNL     1     -45.992  61.301 -52.257  1.00  0.00     0.037 A 
HETATM   14  C   UNL     1     -46.037  60.951 -50.908  1.00  0.00     0.003 A 
HETATM   15  C   UNL     1     -45.660  59.670 -50.507  1.00  0.00     0.001 A 
HETATM   16  C   UNL     1     -45.255  58.730 -51.458  1.00  0.00     0.017 A 
BRANCH  12  17
HETATM   17  O   UNL     1     -45.468  60.808 -54.494  1.00  0.00    -0.360 OA
HETATM   18  H   UNL     1     -46.282  60.518 -54.943  1.00  0.00     0.217 HD
ENDBRANCH  12  17
ENDBRANCH  10  11
BRANCH   6  19
HETATM   19  C   UNL     1     -42.136  57.042 -52.148  1.00  0.00    -0.031 A 
HETATM   20  C   UNL     1     -41.850  57.113 -50.773  1.00  0.00     0.011 A 
HETATM   21  C   UNL     1     -40.809  57.915 -50.296  1.00  0.00     0.024 A 
HETATM   22  C   UNL     1     -40.046  58.660 -51.190  1.00  0.00     0.034 A 
HETATM   23 CL   UNL     1     -38.761  59.643 -50.605  1.00  0.00    -0.084 Cl
HETATM   24  C   UNL     1     -40.315  58.613 -52.555  1.00  0.00     0.024 A 
HETATM   25  C   UNL     1     -41.355  57.808 -53.031  1.00  0.00     0.011 A 
ENDBRANCH   6  19
BRANCH   1  26
HETATM   26  C   UNL     1     -42.032  53.899 -52.948  1.00  0.00     0.129 C 
BRANCH  26  27
HETATM   27  C   UNL     1     -40.575  53.922 -53.420  1.00  0.00     0.046 C 
BRANCH  27  28
HETATM   28  C   UNL     1     -40.187  52.680 -54.214  1.00  0.00     0.169 C 
BRANCH  28  29
HETATM   29  O   UNL     1     -39.515  51.771 -53.347  1.00  0.00    -0.387 OA
BRANCH  29  30
HETATM   30  C   UNL     1     -40.061  50.449 -53.359  1.00  0.00     0.113 C 
HETATM   31  C   UNL     1     -39.548  49.630 -52.178  1.00  0.00     0.039 C 
HETATM   32  C   UNL     1     -39.641  49.805 -54.675  1.00  0.00     0.039 C 
ENDBRANCH  29  30
ENDBRANCH  28  29
ENDBRANCH  27  28
ENDBRANCH  26  27
ENDBRANCH   1  26
TORSDOF 8
ENDMDL
MODEL 4
REMARK VINA RESULT:      -7.1      3.261      5.719
REMARK  8 active torsions:
REMARK  status: ('A' for Active; 'I' for Inactive)
REMARK    1  A    between atoms: C_2  and  O_3 
REMARK    2  A    between atoms: O_3  and  C_4 
REMARK    3  A    between atoms: C_4  and  C_5 
REMARK    4  A    between atoms: C_5  and  C_6 
REMARK    5  A    between atoms: C_6  and  N_7 
REMARK    6  A    between atoms: C_12  and  C_13 
REMARK    7  A    between atoms: C_23  and  C_24 
REMARK    8  A    between atoms: C_25  and  O_26 
ROOT
HETATM    1  N   UNL     1     -43.285  59.387 -53.171  1.00  0.00    -0.334 N 
HETATM    2  C   UNL     1     -44.529  59.136 -52.574  1.00  0.00     0.273 A 
HETATM    3  O   UNL     1     -45.547  59.799 -52.611  1.00  0.00    -0.266 OA
HETATM    4  C   UNL     1     -44.332  57.899 -51.916  1.00  0.00     0.129 A 
HETATM    5  C   UNL     1     -43.070  57.410 -52.076  1.00  0.00     0.034 A 
HETATM    6  C   UNL     1     -42.264  58.332 -52.905  1.00  0.00     0.159 A 
HETATM    7  N   UNL     1     -45.015  57.033 -51.152  1.00  0.00    -0.272 N 
HETATM    8  H   UNL     1     -45.974  57.085 -50.821  1.00  0.00     0.189 HD
HETATM    9  N   UNL     1     -44.255  55.957 -50.823  1.00  0.00    -0.173 NA
HETATM   10  C   UNL     1     -43.050  56.185 -51.397  1.00  0.00     0.101 A 
ENDROOT
BRANCH  10  11
HETATM   11  C   UNL     1     -41.951  55.233 -51.274  1.00  0.00     0.028 A 
HETATM   12  C   UNL     1     -41.170  55.139 -50.114  1.00  0.00     0.078 A 
HETATM   13  C   UNL     1     -40.182  54.163 -49.991  1.00  0.00     0.037 A 
HETATM   14  C   UNL     1     -39.936  53.289 -51.049  1.00  0.00     0.003 A 
HETATM   15  C   UNL     1     -40.679  53.392 -52.225  1.00  0.00     0.001 A 
HETATM   16  C   UNL     1     -41.682  54.358 -52.336  1.00  0.00     0.017 A 
BRANCH  12  17
HETATM   17  O   UNL     1     -41.297  56.013 -49.067  1.00  0.00    -0.360 OA
HETATM   18  H   UNL     1     -41.047  55.517 -48.266  1.00  0.00     0.217 HD
ENDBRANCH  12  17
ENDBRANCH  10  11
BRANCH   6  19
HETATM   19  C   UNL     1     -41.085  58.789 -52.079  1.00  0.00    -0.031 A 
HETATM   20  C   UNL     1     -41.314  59.291 -50.786  1.00  0.00     0.011 A 
HETATM   21  C   UNL     1     -40.251  59.712 -49.981  1.00  0.00     0.024 A 
HETATM   22  C   UNL     1     -38.948  59.641 -50.465  1.00  0.00     0.034 A 
HETATM   23 CL   UNL     1     -37.639  60.155 -49.473  1.00  0.00    -0.084 Cl
HETATM   24  C   UNL     1     -38.697  59.155 -51.745  1.00  0.00     0.024 A 
HETATM   25  C   UNL     1     -39.761  58.732 -52.548  1.00  0.00     0.011 A 
ENDBRANCH   6  19
BRANCH   1  26
HETATM   26  C   UNL     1     -43.018  60.550 -54.002  1.00  0.00     0.129 C 
BRANCH  26  27
HETATM   27  C   UNL     1     -42.226  60.232 -55.273  1.00  0.00     0.046 C 
BRANCH  27  28
HETATM   28  C   UNL     1     -43.032  59.433 -56.292  1.00  0.00     0.169 C 
BRANCH  28  29
HETATM   29  O   UNL     1     -42.267  58.303 -56.700  1.00  0.00    -0.387 OA
BRANCH  29  30
HETATM   30  C   UNL     1     -42.946  57.055 -56.536  1.00  0.00     0.113 C 
HETATM   31  C   UNL     1     -44.285  57.244 -55.831  1.00  0.00     0.039 C 
HETATM   32  C   UNL     1     -42.033  56.156 -55.711  1.00  0.00     0.039 C 
ENDBRANCH  29  30
ENDBRANCH  28  29
ENDBRANCH  27  28
ENDBRANCH  26  27
ENDBRANCH   1  26
TORSDOF 8
ENDMDL
MODEL 5
REMARK VINA RESULT:      -7.0     14.894     17.186
REMARK  8 active torsions:
REMARK  status: ('A' for Active; 'I' for Inactive)
REMARK    1  A    between atoms: C_2  and  O_3 
REMARK    2  A    between atoms: O_3  and  C_4 
REMARK    3  A    between atoms: C_4  and  C_5 
REMARK    4  A    between atoms: C_5  and  C_6 
REMARK    5  A    between atoms: C_6  and  N_7 
REMARK    6  A    between atoms: C_12  and  C_13 
REMARK    7  A    between atoms: C_23  and  C_24 
REMARK    8  A    between atoms: C_25  and  O_26 
ROOT
HETATM    1  N   UNL     1     -35.908  39.961 -55.966  1.00  0.00    -0.334 N 
HETATM    2  C   UNL     1     -36.474  41.228 -55.761  1.00  0.00     0.273 A 
HETATM    3  O   UNL     1     -37.219  41.864 -56.481  1.00  0.00    -0.266 OA
HETATM    4  C   UNL     1     -35.982  41.604 -54.488  1.00  0.00     0.129 A 
HETATM    5  C   UNL     1     -35.170  40.659 -53.936  1.00  0.00     0.034 A 
HETATM    6  C   UNL     1     -35.038  39.500 -54.844  1.00  0.00     0.159 A 
HETATM    7  N   UNL     1     -36.059  42.633 -53.630  1.00  0.00    -0.272 N 
HETATM    8  H   UNL     1     -36.562  43.510 -53.723  1.00  0.00     0.189 HD
HETATM    9  N   UNL     1     -35.347  42.390 -52.501  1.00  0.00    -0.173 NA
HETATM   10  C   UNL     1     -34.796  41.166 -52.684  1.00  0.00     0.101 A 
ENDROOT
BRANCH  10  11
HETATM   11  C   UNL     1     -33.955  40.544 -51.667  1.00  0.00     0.028 A 
HETATM   12  C   UNL     1     -32.555  40.616 -51.709  1.00  0.00     0.078 A 
HETATM   13  C   UNL     1     -31.778  40.088 -50.680  1.00  0.00     0.037 A 
HETATM   14  C   UNL     1     -32.394  39.442 -49.609  1.00  0.00     0.003 A 
HETATM   15  C   UNL     1     -33.783  39.328 -49.569  1.00  0.00     0.001 A 
HETATM   16  C   UNL     1     -34.560  39.879 -50.591  1.00  0.00     0.017 A 
BRANCH  12  17
HETATM   17  O   UNL     1     -31.877  41.162 -52.767  1.00  0.00    -0.360 OA
HETATM   18  H   UNL     1     -31.974  40.535 -53.506  1.00  0.00     0.217 HD
ENDBRANCH  12  17
ENDBRANCH  10  11
BRANCH   6  19
HETATM   19  C   UNL     1     -33.578  39.351 -55.199  1.00  0.00    -0.031 A 
HETATM   20  C   UNL     1     -32.839  38.305 -54.617  1.00  0.00     0.011 A 
HETATM   21  C   UNL     1     -31.488  38.122 -54.927  1.00  0.00     0.024 A 
HETATM   22  C   UNL     1     -30.861  38.986 -55.819  1.00  0.00     0.034 A 
HETATM   23 CL   UNL     1     -29.200  38.758 -56.205  1.00  0.00    -0.084 Cl
HETATM   24  C   UNL     1     -31.569  40.033 -56.402  1.00  0.00     0.024 A 
HETATM   25  C   UNL     1     -32.921  40.214 -56.093  1.00  0.00     0.011 A 
ENDBRANCH   6  19
BRANCH   1  26
HETATM   26  C   UNL     1     -36.168  39.153 -57.146  1.00  0.00     0.129 C 
BRANCH  26  27
HETATM   27  C   UNL     1     -37.609  38.644 -57.240  1.00  0.00     0.046 C 
BRANCH  27  28
HETATM   28  C   UNL     1     -38.193  38.767 -58.643  1.00  0.00     0.169 C 
BRANCH  28  29
HETATM   29  O   UNL     1     -38.441  40.142 -58.920  1.00  0.00    -0.387 OA
BRANCH  29  30
HETATM   30  C   UNL     1     -37.904  40.588 -60.168  1.00  0.00     0.113 C 
HETATM   31  C   UNL     1     -36.883  39.594 -60.715  1.00  0.00     0.039 C 
HETATM   32  C   UNL     1     -37.248  41.939 -59.914  1.00  0.00     0.039 C 
ENDBRANCH  29  30
ENDBRANCH  28  29
ENDBRANCH  27  28
ENDBRANCH  26  27
ENDBRANCH   1  26
TORSDOF 8
ENDMDL
MODEL 6
REMARK VINA RESULT:      -7.0      3.404      5.444
REMARK  8 active torsions:
REMARK  status: ('A' for Active; 'I' for Inactive)
REMARK    1  A    between atoms: C_2  and  O_3 
REMARK    2  A    between atoms: O_3  and  C_4 
REMARK    3  A    between atoms: C_4  and  C_5 
REMARK    4  A    between atoms: C_5  and  C_6 
REMARK    5  A    between atoms: C_6  and  N_7 
REMARK    6  A    between atoms: C_12  and  C_13 
REMARK    7  A    between atoms: C_23  and  C_24 
REMARK    8  A    between atoms: C_25  and  O_26 
ROOT
HETATM    1  N   UNL     1     -43.513  59.270 -53.103  1.00  0.00    -0.334 N 
HETATM    2  C   UNL     1     -44.731  59.025 -52.452  1.00  0.00     0.273 A 
HETATM    3  O   UNL     1     -45.753  59.683 -52.461  1.00  0.00    -0.266 OA
HETATM    4  C   UNL     1     -44.502  57.803 -51.778  1.00  0.00     0.129 A 
HETATM    5  C   UNL     1     -43.245  57.316 -51.979  1.00  0.00     0.034 A 
HETATM    6  C   UNL     1     -42.476  58.224 -52.857  1.00  0.00     0.159 A 
HETATM    7  N   UNL     1     -45.150  56.949 -50.971  1.00  0.00    -0.272 N 
HETATM    8  H   UNL     1     -46.095  57.004 -50.603  1.00  0.00     0.189 HD
HETATM    9  N   UNL     1     -44.372  55.883 -50.651  1.00  0.00    -0.173 NA
HETATM   10  C   UNL     1     -43.191  56.104 -51.277  1.00  0.00     0.101 A 
ENDROOT
BRANCH  10  11
HETATM   11  C   UNL     1     -42.085  55.159 -51.180  1.00  0.00     0.028 A 
HETATM   12  C   UNL     1     -41.251  55.098 -50.054  1.00  0.00     0.078 A 
HETATM   13  C   UNL     1     -40.255  54.129 -49.950  1.00  0.00     0.037 A 
HETATM   14  C   UNL     1     -40.053  53.228 -50.995  1.00  0.00     0.003 A 
HETATM   15  C   UNL     1     -40.848  53.298 -52.139  1.00  0.00     0.001 A 
HETATM   16  C   UNL     1     -41.860  54.257 -52.229  1.00  0.00     0.017 A 
BRANCH  12  17
HETATM   17  O   UNL     1     -41.335  55.999 -49.025  1.00  0.00    -0.360 OA
HETATM   18  H   UNL     1     -41.080  55.516 -48.218  1.00  0.00     0.217 HD
ENDBRANCH  12  17
ENDBRANCH  10  11
BRANCH   6  19
HETATM   19  C   UNL     1     -41.268  58.702 -52.088  1.00  0.00    -0.031 A 
HETATM   20  C   UNL     1     -41.435  59.145 -50.764  1.00  0.00     0.011 A 
HETATM   21  C   UNL     1     -40.342  59.584 -50.011  1.00  0.00     0.024 A 
HETATM   22  C   UNL     1     -39.071  59.588 -50.576  1.00  0.00     0.034 A 
HETATM   23 CL   UNL     1     -37.725  60.123 -49.647  1.00  0.00    -0.084 Cl
HETATM   24  C   UNL     1     -38.881  59.161 -51.887  1.00  0.00     0.024 A 
HETATM   25  C   UNL     1     -39.975  58.721 -52.639  1.00  0.00     0.011 A 
ENDBRANCH   6  19
BRANCH   1  26
HETATM   26  C   UNL     1     -43.284  60.417 -53.967  1.00  0.00     0.129 C 
BRANCH  26  27
HETATM   27  C   UNL     1     -42.911  61.694 -53.210  1.00  0.00     0.046 C 
BRANCH  27  28
HETATM   28  C   UNL     1     -44.063  62.689 -53.117  1.00  0.00     0.169 C 
BRANCH  28  29
HETATM   29  O   UNL     1     -44.410  62.865 -51.747  1.00  0.00    -0.387 OA
BRANCH  29  30
HETATM   30  C   UNL     1     -43.408  62.412 -50.832  1.00  0.00     0.113 C 
HETATM   31  C   UNL     1     -44.006  61.494 -49.770  1.00  0.00     0.039 C 
HETATM   32  C   UNL     1     -42.802  63.650 -50.186  1.00  0.00     0.039 C 
ENDBRANCH  29  30
ENDBRANCH  28  29
ENDBRANCH  27  28
ENDBRANCH  26  27
ENDBRANCH   1  26
TORSDOF 8
ENDMDL
MODEL 7
REMARK VINA RESULT:      -6.9      3.574      7.840
REMARK  8 active torsions:
REMARK  status: ('A' for Active; 'I' for Inactive)
REMARK    1  A    between atoms: C_2  and  O_3 
REMARK    2  A    between atoms: O_3  and  C_4 
REMARK    3  A    between atoms: C_4  and  C_5 
REMARK    4  A    between atoms: C_5  and  C_6 
REMARK    5  A    between atoms: C_6  and  N_7 
REMARK    6  A    between atoms: C_12  and  C_13 
REMARK    7  A    between atoms: C_23  and  C_24 
REMARK    8  A    between atoms: C_25  and  O_26 
ROOT
HETATM    1  N   UNL     1     -42.042  54.988 -53.561  1.00  0.00    -0.334 N 
HETATM    2  C   UNL     1     -41.781  54.660 -54.900  1.00  0.00     0.273 A 
HETATM    3  O   UNL     1     -41.355  53.623 -55.369  1.00  0.00    -0.266 OA
HETATM    4  C   UNL     1     -42.149  55.833 -55.601  1.00  0.00     0.129 A 
HETATM    5  C   UNL     1     -42.599  56.822 -54.778  1.00  0.00     0.034 A 
HETATM    6  C   UNL     1     -42.569  56.371 -53.370  1.00  0.00     0.159 A 
HETATM    7  N   UNL     1     -42.187  56.296 -56.860  1.00  0.00    -0.272 N 
HETATM    8  H   UNL     1     -41.912  55.837 -57.722  1.00  0.00     0.189 HD
HETATM    9  N   UNL     1     -42.683  57.559 -56.908  1.00  0.00    -0.173 NA
HETATM   10  C   UNL     1     -42.943  57.888 -55.620  1.00  0.00     0.101 A 
ENDROOT
BRANCH  10  11
HETATM   11  C   UNL     1     -43.504  59.185 -55.259  1.00  0.00     0.028 A 
HETATM   12  C   UNL     1     -42.838  60.389 -55.528  1.00  0.00     0.078 A 
HETATM   13  C   UNL     1     -43.435  61.617 -55.251  1.00  0.00     0.037 A 
HETATM   14  C   UNL     1     -44.697  61.656 -54.659  1.00  0.00     0.003 A 
HETATM   15  C   UNL     1     -45.359  60.469 -54.350  1.00  0.00     0.001 A 
HETATM   16  C   UNL     1     -44.767  59.239 -54.650  1.00  0.00     0.017 A 
BRANCH  12  17
HETATM   17  O   UNL     1     -41.564  60.429 -56.032  1.00  0.00    -0.360 OA
HETATM   18  H   UNL     1     -41.025  59.858 -55.455  1.00  0.00     0.217 HD
ENDBRANCH  12  17
ENDBRANCH  10  11
BRANCH   6  19
HETATM   19  C   UNL     1     -41.653  57.295 -52.605  1.00  0.00    -0.031 A 
HETATM   20  C   UNL     1     -41.822  57.426 -51.215  1.00  0.00     0.011 A 
HETATM   21  C   UNL     1     -40.987  58.260 -50.466  1.00  0.00     0.024 A 
HETATM   22  C   UNL     1     -39.977  58.977 -51.100  1.00  0.00     0.034 A 
HETATM   23 CL   UNL     1     -38.947  60.000 -50.176  1.00  0.00    -0.084 Cl
HETATM   24  C   UNL     1     -39.795  58.870 -52.475  1.00  0.00     0.024 A 
HETATM   25  C   UNL     1     -40.629  58.034 -53.224  1.00  0.00     0.011 A 
ENDBRANCH   6  19
BRANCH   1  26
HETATM   26  C   UNL     1     -41.850  54.059 -52.460  1.00  0.00     0.129 C 
BRANCH  26  27
HETATM   27  C   UNL     1     -40.385  53.880 -52.052  1.00  0.00     0.046 C 
BRANCH  27  28
HETATM   28  C   UNL     1     -40.075  52.475 -51.547  1.00  0.00     0.169 C 
BRANCH  28  29
HETATM   29  O   UNL     1     -39.362  51.769 -52.558  1.00  0.00    -0.387 OA
BRANCH  29  30
HETATM   30  C   UNL     1     -39.998  50.558 -52.977  1.00  0.00     0.113 C 
HETATM   31  C   UNL     1     -39.621  49.394 -52.066  1.00  0.00     0.039 C 
HETATM   32  C   UNL     1     -39.540  50.286 -54.405  1.00  0.00     0.039 C 
ENDBRANCH  29  30
ENDBRANCH  28  29
ENDBRANCH  27  28
ENDBRANCH  26  27
ENDBRANCH   1  26
TORSDOF 8
ENDMDL
MODEL 8
REMARK VINA RESULT:      -6.9      4.815      8.476
REMARK  8 active torsions:
REMARK  status: ('A' for Active; 'I' for Inactive)
REMARK    1  A    between atoms: C_2  and  O_3 
REMARK    2  A    between atoms: O_3  and  C_4 
REMARK    3  A    between atoms: C_4  and  C_5 
REMARK    4  A    between atoms: C_5  and  C_6 
REMARK    5  A    between atoms: C_6  and  N_7 
REMARK    6  A    between atoms: C_12  and  C_13 
REMARK    7  A    between atoms: C_23  and  C_24 
REMARK    8  A    between atoms: C_25  and  O_26 
ROOT
HETATM    1  N   UNL     1     -42.527  56.413 -55.895  1.00  0.00    -0.334 N 
HETATM    2  C   UNL     1     -42.587  57.280 -54.795  1.00  0.00     0.273 A 
HETATM    3  O   UNL     1     -42.696  57.017 -53.613  1.00  0.00    -0.266 OA
HETATM    4  C   UNL     1     -42.473  58.563 -55.382  1.00  0.00     0.129 A 
HETATM    5  C   UNL     1     -42.357  58.513 -56.739  1.00  0.00     0.034 A 
HETATM    6  C   UNL     1     -42.386  57.111 -57.207  1.00  0.00     0.159 A 
HETATM    7  N   UNL     1     -42.452  59.852 -55.014  1.00  0.00    -0.272 N 
HETATM    8  H   UNL     1     -42.530  60.257 -54.086  1.00  0.00     0.189 HD
HETATM    9  N   UNL     1     -42.290  60.671 -56.084  1.00  0.00    -0.173 NA
HETATM   10  C   UNL     1     -42.227  59.845 -57.156  1.00  0.00     0.101 A 
ENDROOT
BRANCH  10  11
HETATM   11  C   UNL     1     -42.045  60.359 -58.509  1.00  0.00     0.028 A 
HETATM   12  C   UNL     1     -41.187  61.432 -58.792  1.00  0.00     0.078 A 
HETATM   13  C   UNL     1     -40.965  61.847 -60.104  1.00  0.00     0.037 A 
HETATM   14  C   UNL     1     -41.633  61.215 -61.152  1.00  0.00     0.003 A 
HETATM   15  C   UNL     1     -42.518  60.171 -60.887  1.00  0.00     0.001 A 
HETATM   16  C   UNL     1     -42.721  59.743 -59.572  1.00  0.00     0.017 A 
BRANCH  12  17
HETATM   17  O   UNL     1     -40.561  62.153 -57.810  1.00  0.00    -0.360 OA
HETATM   18  H   UNL     1     -40.823  63.082 -57.944  1.00  0.00     0.217 HD
ENDBRANCH  12  17
ENDBRANCH  10  11
BRANCH   6  19
HETATM   19  C   UNL     1     -43.565  56.955 -58.136  1.00  0.00    -0.031 A 
HETATM   20  C   UNL     1     -43.439  56.125 -59.264  1.00  0.00     0.011 A 
HETATM   21  C   UNL     1     -44.510  55.941 -60.143  1.00  0.00     0.024 A 
HETATM   22  C   UNL     1     -45.718  56.590 -59.906  1.00  0.00     0.034 A 
HETATM   23 CL   UNL     1     -47.039  56.359 -60.985  1.00  0.00    -0.084 Cl
HETATM   24  C   UNL     1     -45.865  57.422 -58.800  1.00  0.00     0.024 A 
HETATM   25  C   UNL     1     -44.794  57.604 -57.920  1.00  0.00     0.011 A 
ENDBRANCH   6  19
BRANCH   1  26
HETATM   26  C   UNL     1     -42.566  54.965 -55.774  1.00  0.00     0.129 C 
BRANCH  26  27
HETATM   27  C   UNL     1     -41.244  54.349 -55.310  1.00  0.00     0.046 C 
BRANCH  27  28
HETATM   28  C   UNL     1     -41.403  53.440 -54.097  1.00  0.00     0.169 C 
BRANCH  28  29
HETATM   29  O   UNL     1     -41.181  52.092 -54.499  1.00  0.00    -0.387 OA
BRANCH  29  30
HETATM   30  C   UNL     1     -39.983  51.519 -53.967  1.00  0.00     0.113 C 
HETATM   31  C   UNL     1     -40.037  49.995 -54.005  1.00  0.00     0.039 C 
HETATM   32  C   UNL     1     -39.854  52.011 -52.531  1.00  0.00     0.039 C 
ENDBRANCH  29  30
ENDBRANCH  28  29
ENDBRANCH  27  28
ENDBRANCH  26  27
ENDBRANCH   1  26
TORSDOF 8
ENDMDL
MODEL 9
REMARK VINA RESULT:      -6.7      2.492      7.265
REMARK  8 active torsions:
REMARK  status: ('A' for Active; 'I' for Inactive)
REMARK    1  A    between atoms: C_2  and  O_3 
REMARK    2  A    between atoms: O_3  and  C_4 
REMARK    3  A    between atoms: C_4  and  C_5 
REMARK    4  A    between atoms: C_5  and  C_6 
REMARK    5  A    between atoms: C_6  and  N_7 
REMARK    6  A    between atoms: C_12  and  C_13 
REMARK    7  A    between atoms: C_23  and  C_24 
REMARK    8  A    between atoms: C_25  and  O_26 
ROOT
HETATM    1  N   UNL     1     -41.806  55.752 -52.872  1.00  0.00    -0.334 N 
HETATM    2  C   UNL     1     -42.734  55.041 -52.096  1.00  0.00     0.273 A 
HETATM    3  O   UNL     1     -42.793  53.848 -51.870  1.00  0.00    -0.266 OA
HETATM    4  C   UNL     1     -43.598  56.051 -51.612  1.00  0.00     0.129 A 
HETATM    5  C   UNL     1     -43.252  57.295 -52.047  1.00  0.00     0.034 A 
HETATM    6  C   UNL     1     -42.056  57.223 -52.913  1.00  0.00     0.159 A 
HETATM    7  N   UNL     1     -44.689  56.173 -50.841  1.00  0.00    -0.272 N 
HETATM    8  H   UNL     1     -45.224  55.453 -50.365  1.00  0.00     0.189 HD
HETATM    9  N   UNL     1     -45.067  57.471 -50.719  1.00  0.00    -0.173 NA
HETATM   10  C   UNL     1     -44.176  58.172 -51.462  1.00  0.00     0.101 A 
ENDROOT
BRANCH  10  11
HETATM   11  C   UNL     1     -44.247  59.624 -51.574  1.00  0.00     0.028 A 
HETATM   12  C   UNL     1     -43.430  60.473 -50.814  1.00  0.00     0.078 A 
HETATM   13  C   UNL     1     -43.456  61.853 -51.002  1.00  0.00     0.037 A 
HETATM   14  C   UNL     1     -44.335  62.409 -51.932  1.00  0.00     0.003 A 
HETATM   15  C   UNL     1     -45.181  61.583 -52.671  1.00  0.00     0.001 A 
HETATM   16  C   UNL     1     -45.136  60.197 -52.495  1.00  0.00     0.017 A 
BRANCH  12  17
HETATM   17  O   UNL     1     -42.602  60.008 -49.826  1.00  0.00    -0.360 OA
HETATM   18  H   UNL     1     -42.980  60.321 -48.984  1.00  0.00     0.217 HD
ENDBRANCH  12  17
ENDBRANCH  10  11
BRANCH   6  19
HETATM   19  C   UNL     1     -42.433  57.761 -54.272  1.00  0.00    -0.031 A 
HETATM   20  C   UNL     1     -43.395  57.074 -55.034  1.00  0.00     0.011 A 
HETATM   21  C   UNL     1     -43.784  57.544 -56.292  1.00  0.00     0.024 A 
HETATM   22  C   UNL     1     -43.210  58.704 -56.804  1.00  0.00     0.034 A 
HETATM   23 CL   UNL     1     -43.692  59.285 -58.350  1.00  0.00    -0.084 Cl
HETATM   24  C   UNL     1     -42.250  59.397 -56.072  1.00  0.00     0.024 A 
HETATM   25  C   UNL     1     -41.863  58.927 -54.813  1.00  0.00     0.011 A 
ENDBRANCH   6  19
BRANCH   1  26
HETATM   26  C   UNL     1     -40.684  55.124 -53.549  1.00  0.00     0.129 C 
BRANCH  26  27
HETATM   27  C   UNL     1     -41.093  54.239 -54.730  1.00  0.00     0.046 C 
BRANCH  27  28
HETATM   28  C   UNL     1     -40.375  52.894 -54.743  1.00  0.00     0.169 C 
BRANCH  28  29
HETATM   29  O   UNL     1     -40.354  52.371 -53.418  1.00  0.00    -0.387 OA
BRANCH  29  30
HETATM   30  C   UNL     1     -39.451  51.275 -53.242  1.00  0.00     0.113 C 
HETATM   31  C   UNL     1     -39.835  50.097 -54.132  1.00  0.00     0.039 C 
HETATM   32  C   UNL     1     -39.516  50.876 -51.773  1.00  0.00     0.039 C 
ENDBRANCH  29  30
ENDBRANCH  28  29
ENDBRANCH  27  28
ENDBRANCH  26  27
ENDBRANCH   1  26
TORSDOF 8
ENDMDL
MODEL 10
REMARK VINA RESULT:      -6.7      3.677      5.312
REMARK  8 active torsions:
REMARK  status: ('A' for Active; 'I' for Inactive)
REMARK    1  A    between atoms: C_2  and  O_3 
REMARK    2  A    between atoms: O_3  and  C_4 
REMARK    3  A    between atoms: C_4  and  C_5 
REMARK    4  A    between atoms: C_5  and  C_6 
REMARK    5  A    between atoms: C_6  and  N_7 
REMARK    6  A    between atoms: C_12  and  C_13 
REMARK    7  A    between atoms: C_23  and  C_24 
REMARK    8  A    between atoms: C_25  and  O_26 
ROOT
HETATM    1  N   UNL     1     -44.180  59.065 -53.920  1.00  0.00    -0.334 N 
HETATM    2  C   UNL     1     -43.389  59.777 -53.006  1.00  0.00     0.273 A 
HETATM    3  O   UNL     1     -43.567  60.882 -52.532  1.00  0.00    -0.266 OA
HETATM    4  C   UNL     1     -42.318  58.890 -52.740  1.00  0.00     0.129 A 
HETATM    5  C   UNL     1     -42.418  57.720 -53.431  1.00  0.00     0.034 A 
HETATM    6  C   UNL     1     -43.636  57.720 -54.270  1.00  0.00     0.159 A 
HETATM    7  N   UNL     1     -41.197  58.841 -52.006  1.00  0.00    -0.272 N 
HETATM    8  H   UNL     1     -40.803  59.542 -51.386  1.00  0.00     0.189 HD
HETATM    9  N   UNL     1     -40.556  57.654 -52.159  1.00  0.00    -0.173 NA
HETATM   10  C   UNL     1     -41.312  56.953 -53.039  1.00  0.00     0.101 A 
ENDROOT
BRANCH  10  11
HETATM   11  C   UNL     1     -40.950  55.603 -53.455  1.00  0.00     0.028 A 
HETATM   12  C   UNL     1     -41.055  54.502 -52.593  1.00  0.00     0.078 A 
HETATM   13  C   UNL     1     -40.785  53.211 -53.042  1.00  0.00     0.037 A 
HETATM   14  C   UNL     1     -40.364  53.008 -54.356  1.00  0.00     0.003 A 
HETATM   15  C   UNL     1     -40.218  54.096 -55.217  1.00  0.00     0.001 A 
HETATM   16  C   UNL     1     -40.512  55.386 -54.769  1.00  0.00     0.017 A 
BRANCH  12  17
HETATM   17  O   UNL     1     -41.382  54.631 -51.269  1.00  0.00    -0.360 OA
HETATM   18  H   UNL     1     -40.601  54.339 -50.765  1.00  0.00     0.217 HD
ENDBRANCH  12  17
ENDBRANCH  10  11
BRANCH   6  19
HETATM   19  C   UNL     1     -43.208  57.567 -55.709  1.00  0.00    -0.031 A 
HETATM   20  C   UNL     1     -43.547  56.389 -56.399  1.00  0.00     0.011 A 
HETATM   21  C   UNL     1     -43.183  56.211 -57.737  1.00  0.00     0.024 A 
HETATM   22  C   UNL     1     -42.472  57.207 -58.398  1.00  0.00     0.034 A 
HETATM   23 CL   UNL     1     -42.028  56.990 -60.047  1.00  0.00    -0.084 Cl
HETATM   24  C   UNL     1     -42.118  58.378 -57.734  1.00  0.00     0.024 A 
HETATM   25  C   UNL     1     -42.484  58.557 -56.397  1.00  0.00     0.011 A 
ENDBRANCH   6  19
BRANCH   1  26
HETATM   26  C   UNL     1     -45.432  59.572 -54.457  1.00  0.00     0.129 C 
BRANCH  26  27
HETATM   27  C   UNL     1     -45.251  60.618 -55.561  1.00  0.00     0.046 C 
BRANCH  27  28
HETATM   28  C   UNL     1     -46.041  60.293 -56.824  1.00  0.00     0.169 C 
BRANCH  28  29
HETATM   29  O   UNL     1     -46.015  58.884 -57.033  1.00  0.00    -0.387 OA
BRANCH  29  30
HETATM   30  C   UNL     1     -47.112  58.394 -57.810  1.00  0.00     0.113 C 
HETATM   31  C   UNL     1     -46.627  57.483 -58.933  1.00  0.00     0.039 C 
HETATM   32  C   UNL     1     -47.830  59.609 -58.383  1.00  0.00     0.039 C 
ENDBRANCH  29  30
ENDBRANCH  28  29
ENDBRANCH  27  28
ENDBRANCH  26  27
ENDBRANCH   1  26
TORSDOF 8
ENDMDL
