MODEL 1
REMARK VINA RESULT:      -8.7      0.000      0.000
REMARK  6 active torsions:
REMARK  status: ('A' for Active; 'I' for Inactive)
REMARK    1  A    between atoms: O_2  and  C_3 
REMARK    2  A    between atoms: C_6  and  C_7 
REMARK       I    between atoms: C_7  and  N_8 
REMARK    3  A    between atoms: N_8  and  C_9 
REMARK    4  A    between atoms: C_11  and  C_12 
REMARK    5  A    between atoms: C_12  and  C_13 
REMARK    6  A    between atoms: C_13  and  C_14 
ROOT
HETATM    1  C   UNL     1     -42.658  55.156 -55.426  1.00  0.00     0.725 A 
HETATM    2  N   UNL     1     -42.969  54.866 -54.189  1.00  0.00    -0.046 NA
HETATM    3  C   UNL     1     -41.778  54.921 -53.517  1.00  0.00     0.166 A 
HETATM    4  N   UNL     1     -40.725  55.246 -54.280  1.00  0.00    -0.144 NA
HETATM    5  N   UNL     1     -41.311  55.392 -55.482  1.00  0.00    -0.106 N 
HETATM    6  H   UNL     1     -40.741  55.645 -56.279  1.00  0.00     0.208 HD
ENDROOT
BRANCH   1   7
HETATM    7  N   UNL     1     -43.477  55.256 -56.525  1.00  0.00    -0.152 N 
HETATM    8  C   UNL     1     -43.244  56.207 -57.502  1.00  0.00     0.270 C 
HETATM    9  O   UNL     1     -42.425  57.116 -57.480  1.00  0.00    -0.267 OA
HETATM   10  H   UNL     1     -44.293  54.668 -56.590  1.00  0.00     0.187 HD
BRANCH   8  11
HETATM   11  C   UNL     1     -44.149  56.119 -58.680  1.00  0.00     0.033 A 
HETATM   12  C   UNL     1     -44.029  55.017 -59.535  1.00  0.00     0.020 A 
HETATM   13  C   UNL     1     -44.877  54.883 -60.638  1.00  0.00     0.038 A 
HETATM   14  C   UNL     1     -45.859  55.843 -60.885  1.00  0.00     0.068 A 
HETATM   15  C   UNL     1     -45.981  56.938 -60.024  1.00  0.00     0.038 A 
HETATM   16  C   UNL     1     -45.136  57.079 -58.921  1.00  0.00     0.020 A 
BRANCH  14  17
HETATM   17  O   UNL     1     -46.756  55.826 -61.917  1.00  0.00    -0.356 OA
HETATM   18  C   UNL     1     -47.920  56.630 -61.768  1.00  0.00     0.210 C 
ENDBRANCH  14  17
ENDBRANCH   8  11
ENDBRANCH   1   7
BRANCH   3  19
HETATM   19  C   UNL     1     -41.697  54.700 -52.053  1.00  0.00     0.087 C 
BRANCH  19  20
HETATM   20  C   UNL     1     -40.288  54.303 -51.606  1.00  0.00     0.048 C 
BRANCH  20  21
HETATM   21  C   UNL     1     -40.160  52.827 -51.387  1.00  0.00    -0.030 A 
HETATM   22  C   UNL     1     -39.916  51.844 -52.399  1.00  0.00    -0.002 A 
HETATM   23  C   UNL     1     -39.873  50.599 -51.773  1.00  0.00     0.042 A 
HETATM   24  C   UNL     1     -39.730  51.903 -53.796  1.00  0.00     0.014 A 
HETATM   25  C   UNL     1     -39.656  49.406 -52.473  1.00  0.00     0.030 A 
HETATM   26  N   UNL     1     -40.075  50.817 -50.430  1.00  0.00    -0.365 N 
HETATM   27  C   UNL     1     -39.477  49.491 -53.858  1.00  0.00     0.002 A 
HETATM   28  C   UNL     1     -39.513  50.720 -54.513  1.00  0.00     0.001 A 
HETATM   29  H   UNL     1     -40.089  50.090 -49.729  1.00  0.00     0.165 HD
HETATM   30  C   UNL     1     -40.251  52.154 -50.186  1.00  0.00     0.096 A 
ENDBRANCH  20  21
ENDBRANCH  19  20
ENDBRANCH   3  19
TORSDOF 6
ENDMDL
MODEL 2
REMARK VINA RESULT:      -8.2      2.916      3.665
REMARK  6 active torsions:
REMARK  status: ('A' for Active; 'I' for Inactive)
REMARK    1  A    between atoms: O_2  and  C_3 
REMARK    2  A    between atoms: C_6  and  C_7 
REMARK       I    between atoms: C_7  and  N_8 
REMARK    3  A    between atoms: N_8  and  C_9 
REMARK    4  A    between atoms: C_11  and  C_12 
REMARK    5  A    between atoms: C_12  and  C_13 
REMARK    6  A    between atoms: C_13  and  C_14 
ROOT
HETATM    1  C   UNL     1     -42.409  56.156 -56.192  1.00  0.00     0.725 A 
HETATM    2  N   UNL     1     -42.131  56.109 -54.915  1.00  0.00    -0.046 NA
HETATM    3  C   UNL     1     -42.665  54.922 -54.495  1.00  0.00     0.166 A 
HETATM    4  N   UNL     1     -43.262  54.209 -55.460  1.00  0.00    -0.144 NA
HETATM    5  N   UNL     1     -43.083  55.011 -56.524  1.00  0.00    -0.106 N 
HETATM    6  H   UNL     1     -43.442  54.722 -57.424  1.00  0.00     0.208 HD
ENDROOT
BRANCH   1   7
HETATM    7  N   UNL     1     -42.094  57.127 -57.114  1.00  0.00    -0.152 N 
HETATM    8  C   UNL     1     -42.996  57.497 -58.095  1.00  0.00     0.270 C 
HETATM    9  O   UNL     1     -44.070  56.974 -58.358  1.00  0.00    -0.267 OA
HETATM   10  H   UNL     1     -41.171  57.531 -57.110  1.00  0.00     0.187 HD
BRANCH   8  11
HETATM   11  C   UNL     1     -42.551  58.633 -58.946  1.00  0.00     0.033 A 
HETATM   12  C   UNL     1     -42.114  59.807 -58.320  1.00  0.00     0.020 A 
HETATM   13  C   UNL     1     -41.665  60.889 -59.083  1.00  0.00     0.038 A 
HETATM   14  C   UNL     1     -41.636  60.798 -60.475  1.00  0.00     0.068 A 
HETATM   15  C   UNL     1     -42.066  59.622 -61.096  1.00  0.00     0.038 A 
HETATM   16  C   UNL     1     -42.518  58.537 -60.340  1.00  0.00     0.020 A 
BRANCH  14  17
HETATM   17  O   UNL     1     -41.211  61.774 -61.334  1.00  0.00    -0.356 OA
HETATM   18  C   UNL     1     -40.502  62.867 -60.763  1.00  0.00     0.210 C 
ENDBRANCH  14  17
ENDBRANCH   8  11
ENDBRANCH   1   7
BRANCH   3  19
HETATM   19  C   UNL     1     -42.523  54.455 -53.094  1.00  0.00     0.087 C 
BRANCH  19  20
HETATM   20  C   UNL     1     -41.073  54.525 -52.607  1.00  0.00     0.048 C 
BRANCH  20  21
HETATM   21  C   UNL     1     -40.620  53.235 -51.995  1.00  0.00    -0.030 A 
HETATM   22  C   UNL     1     -40.258  52.047 -52.707  1.00  0.00    -0.002 A 
HETATM   23  C   UNL     1     -39.903  51.084 -51.763  1.00  0.00     0.042 A 
HETATM   24  C   UNL     1     -40.203  51.703 -54.074  1.00  0.00     0.014 A 
HETATM   25  C   UNL     1     -39.498  49.791 -52.116  1.00  0.00     0.030 A 
HETATM   26  N   UNL     1     -40.036  51.667 -50.524  1.00  0.00    -0.365 N 
HETATM   27  C   UNL     1     -39.455  49.475 -53.477  1.00  0.00     0.002 A 
HETATM   28  C   UNL     1     -39.801  50.415 -54.445  1.00  0.00     0.001 A 
HETATM   29  H   UNL     1     -39.840  51.201 -49.650  1.00  0.00     0.165 HD
HETATM   30  C   UNL     1     -40.469  52.961 -50.651  1.00  0.00     0.096 A 
ENDBRANCH  20  21
ENDBRANCH  19  20
ENDBRANCH   3  19
TORSDOF 6
ENDMDL
MODEL 3
REMARK VINA RESULT:      -8.0      2.726      9.050
REMARK  6 active torsions:
REMARK  status: ('A' for Active; 'I' for Inactive)
REMARK    1  A    between atoms: O_2  and  C_3 
REMARK    2  A    between atoms: C_6  and  C_7 
REMARK       I    between atoms: C_7  and  N_8 
REMARK    3  A    between atoms: N_8  and  C_9 
REMARK    4  A    between atoms: C_11  and  C_12 
REMARK    5  A    between atoms: C_12  and  C_13 
REMARK    6  A    between atoms: C_13  and  C_14 
ROOT
HETATM    1  C   UNL     1     -43.687  56.660 -54.689  1.00  0.00     0.725 A 
HETATM    2  N   UNL     1     -43.339  57.665 -55.451  1.00  0.00    -0.046 NA
HETATM    3  C   UNL     1     -44.526  58.235 -55.823  1.00  0.00     0.166 A 
HETATM    4  N   UNL     1     -45.613  57.637 -55.317  1.00  0.00    -0.144 NA
HETATM    5  N   UNL     1     -45.053  56.645 -54.600  1.00  0.00    -0.106 N 
HETATM    6  H   UNL     1     -45.652  56.009 -54.091  1.00  0.00     0.208 HD
ENDROOT
BRANCH   1   7
HETATM    7  N   UNL     1     -42.890  55.753 -54.032  1.00  0.00    -0.152 N 
HETATM    8  C   UNL     1     -42.690  54.482 -54.539  1.00  0.00     0.270 C 
HETATM    9  O   UNL     1     -43.247  53.963 -55.498  1.00  0.00    -0.267 OA
HETATM   10  H   UNL     1     -42.495  55.998 -53.138  1.00  0.00     0.187 HD
BRANCH   8  11
HETATM   11  C   UNL     1     -41.718  53.656 -53.773  1.00  0.00     0.033 A 
HETATM   12  C   UNL     1     -41.518  53.943 -52.418  1.00  0.00     0.020 A 
HETATM   13  C   UNL     1     -40.633  53.176 -51.656  1.00  0.00     0.038 A 
HETATM   14  C   UNL     1     -39.953  52.107 -52.241  1.00  0.00     0.068 A 
HETATM   15  C   UNL     1     -40.162  51.818 -53.593  1.00  0.00     0.038 A 
HETATM   16  C   UNL     1     -41.043  52.582 -54.361  1.00  0.00     0.020 A 
BRANCH  14  17
HETATM   17  O   UNL     1     -39.072  51.273 -51.609  1.00  0.00    -0.356 OA
HETATM   18  C   UNL     1     -39.509  49.941 -51.370  1.00  0.00     0.210 C 
ENDBRANCH  14  17
ENDBRANCH   8  11
ENDBRANCH   1   7
BRANCH   3  19
HETATM   19  C   UNL     1     -44.575  59.455 -56.665  1.00  0.00     0.087 C 
BRANCH  19  20
HETATM   20  C   UNL     1     -43.806  59.282 -57.977  1.00  0.00     0.048 C 
BRANCH  20  21
HETATM   21  C   UNL     1     -44.612  58.559 -59.012  1.00  0.00    -0.030 A 
HETATM   22  C   UNL     1     -44.539  57.159 -59.308  1.00  0.00    -0.002 A 
HETATM   23  C   UNL     1     -45.449  56.900 -60.333  1.00  0.00     0.042 A 
HETATM   24  C   UNL     1     -43.776  56.089 -58.797  1.00  0.00     0.014 A 
HETATM   25  C   UNL     1     -45.633  55.623 -60.876  1.00  0.00     0.030 A 
HETATM   26  N   UNL     1     -46.058  58.094 -60.642  1.00  0.00    -0.365 N 
HETATM   27  C   UNL     1     -44.863  54.579 -60.353  1.00  0.00     0.002 A 
HETATM   28  C   UNL     1     -43.947  54.805 -59.328  1.00  0.00     0.001 A 
HETATM   29  H   UNL     1     -46.770  58.205 -61.349  1.00  0.00     0.165 HD
HETATM   30  C   UNL     1     -45.561  59.100 -59.855  1.00  0.00     0.096 A 
ENDBRANCH  20  21
ENDBRANCH  19  20
ENDBRANCH   3  19
TORSDOF 6
ENDMDL
MODEL 4
REMARK VINA RESULT:      -8.0      4.822      7.103
REMARK  6 active torsions:
REMARK  status: ('A' for Active; 'I' for Inactive)
REMARK    1  A    between atoms: O_2  and  C_3 
REMARK    2  A    between atoms: C_6  and  C_7 
REMARK       I    between atoms: C_7  and  N_8 
REMARK    3  A    between atoms: N_8  and  C_9 
REMARK    4  A    between atoms: C_11  and  C_12 
REMARK    5  A    between atoms: C_12  and  C_13 
REMARK    6  A    between atoms: C_13  and  C_14 
ROOT
HETATM    1  C   UNL     1     -43.672  56.881 -53.427  1.00  0.00     0.725 A 
HETATM    2  N   UNL     1     -42.597  56.175 -53.663  1.00  0.00    -0.046 NA
HETATM    3  C   UNL     1     -43.045  55.107 -54.391  1.00  0.00     0.166 A 
HETATM    4  N   UNL     1     -44.362  55.115 -54.635  1.00  0.00    -0.144 NA
HETATM    5  N   UNL     1     -44.734  56.250 -54.017  1.00  0.00    -0.106 N 
HETATM    6  H   UNL     1     -45.708  56.523 -54.035  1.00  0.00     0.208 HD
ENDROOT
BRANCH   1   7
HETATM    7  N   UNL     1     -43.799  58.068 -52.745  1.00  0.00    -0.152 N 
HETATM    8  C   UNL     1     -44.461  58.126 -51.532  1.00  0.00     0.270 C 
HETATM    9  O   UNL     1     -45.098  57.236 -50.985  1.00  0.00    -0.267 OA
HETATM   10  H   UNL     1     -43.457  58.918 -53.165  1.00  0.00     0.187 HD
BRANCH   8  11
HETATM   11  C   UNL     1     -44.419  59.457 -50.868  1.00  0.00     0.033 A 
HETATM   12  C   UNL     1     -45.558  59.899 -50.185  1.00  0.00     0.020 A 
HETATM   13  C   UNL     1     -45.553  61.132 -49.525  1.00  0.00     0.038 A 
HETATM   14  C   UNL     1     -44.404  61.923 -49.534  1.00  0.00     0.068 A 
HETATM   15  C   UNL     1     -43.266  61.475 -50.211  1.00  0.00     0.038 A 
HETATM   16  C   UNL     1     -43.264  60.245 -50.873  1.00  0.00     0.020 A 
BRANCH  14  17
HETATM   17  O   UNL     1     -44.262  63.139 -48.923  1.00  0.00    -0.356 OA
HETATM   18  C   UNL     1     -45.349  64.048 -49.044  1.00  0.00     0.210 C 
ENDBRANCH  14  17
ENDBRANCH   8  11
ENDBRANCH   1   7
BRANCH   3  19
HETATM   19  C   UNL     1     -42.117  54.074 -54.912  1.00  0.00     0.087 C 
BRANCH  19  20
HETATM   20  C   UNL     1     -40.686  54.277 -54.408  1.00  0.00     0.048 C 
BRANCH  20  21
HETATM   21  C   UNL     1     -40.385  53.431 -53.209  1.00  0.00    -0.030 A 
HETATM   22  C   UNL     1     -40.082  52.031 -53.220  1.00  0.00    -0.002 A 
HETATM   23  C   UNL     1     -39.871  51.637 -51.899  1.00  0.00     0.042 A 
HETATM   24  C   UNL     1     -39.971  51.063 -54.239  1.00  0.00     0.014 A 
HETATM   25  C   UNL     1     -39.557  50.319 -51.544  1.00  0.00     0.030 A 
HETATM   26  N   UNL     1     -40.031  52.756 -51.115  1.00  0.00    -0.365 N 
HETATM   27  C   UNL     1     -39.456  49.377 -52.573  1.00  0.00     0.002 A 
HETATM   28  C   UNL     1     -39.658  49.740 -53.902  1.00  0.00     0.001 A 
HETATM   29  H   UNL     1     -39.932  52.767 -50.111  1.00  0.00     0.165 HD
HETATM   30  C   UNL     1     -40.343  53.841 -51.891  1.00  0.00     0.096 A 
ENDBRANCH  20  21
ENDBRANCH  19  20
ENDBRANCH   3  19
TORSDOF 6
ENDMDL
MODEL 5
REMARK VINA RESULT:      -7.9      1.831      2.612
REMARK  6 active torsions:
REMARK  status: ('A' for Active; 'I' for Inactive)
REMARK    1  A    between atoms: O_2  and  C_3 
REMARK    2  A    between atoms: C_6  and  C_7 
REMARK       I    between atoms: C_7  and  N_8 
REMARK    3  A    between atoms: N_8  and  C_9 
REMARK    4  A    between atoms: C_11  and  C_12 
REMARK    5  A    between atoms: C_12  and  C_13 
REMARK    6  A    between atoms: C_13  and  C_14 
ROOT
HETATM    1  C   UNL     1     -43.485  56.920 -57.036  1.00  0.00     0.725 A 
HETATM    2  N   UNL     1     -42.621  55.992 -56.714  1.00  0.00    -0.046 NA
HETATM    3  C   UNL     1     -42.029  56.461 -55.573  1.00  0.00     0.166 A 
HETATM    4  N   UNL     1     -42.492  57.647 -55.154  1.00  0.00    -0.144 NA
HETATM    5  N   UNL     1     -43.415  57.913 -56.096  1.00  0.00    -0.106 N 
HETATM    6  H   UNL     1     -43.945  58.772 -56.036  1.00  0.00     0.208 HD
ENDROOT
BRANCH   1   7
HETATM    7  N   UNL     1     -44.364  56.958 -58.092  1.00  0.00    -0.152 N 
HETATM    8  C   UNL     1     -45.562  57.642 -57.999  1.00  0.00     0.270 C 
HETATM    9  O   UNL     1     -46.049  58.163 -57.004  1.00  0.00    -0.267 OA
HETATM   10  H   UNL     1     -44.158  56.430 -58.926  1.00  0.00     0.187 HD
BRANCH   8  11
HETATM   11  C   UNL     1     -46.352  57.682 -59.258  1.00  0.00     0.033 A 
HETATM   12  C   UNL     1     -46.659  56.472 -59.893  1.00  0.00     0.020 A 
HETATM   13  C   UNL     1     -47.421  56.463 -61.066  1.00  0.00     0.038 A 
HETATM   14  C   UNL     1     -47.892  57.663 -61.601  1.00  0.00     0.068 A 
HETATM   15  C   UNL     1     -47.590  58.867 -60.960  1.00  0.00     0.038 A 
HETATM   16  C   UNL     1     -46.828  58.884 -59.789  1.00  0.00     0.020 A 
BRANCH  14  17
HETATM   17  O   UNL     1     -48.653  57.793 -62.730  1.00  0.00    -0.356 OA
HETATM   18  C   UNL     1     -50.027  58.114 -62.544  1.00  0.00     0.210 C 
ENDBRANCH  14  17
ENDBRANCH   8  11
ENDBRANCH   1   7
BRANCH   3  19
HETATM   19  C   UNL     1     -41.007  55.672 -54.843  1.00  0.00     0.087 C 
BRANCH  19  20
HETATM   20  C   UNL     1     -41.342  54.179 -54.816  1.00  0.00     0.048 C 
BRANCH  20  21
HETATM   21  C   UNL     1     -40.818  53.505 -53.586  1.00  0.00    -0.030 A 
HETATM   22  C   UNL     1     -40.390  52.142 -53.490  1.00  0.00    -0.002 A 
HETATM   23  C   UNL     1     -39.981  51.922 -52.175  1.00  0.00     0.042 A 
HETATM   24  C   UNL     1     -40.316  51.073 -54.407  1.00  0.00     0.014 A 
HETATM   25  C   UNL     1     -39.504  50.684 -51.728  1.00  0.00     0.030 A 
HETATM   26  N   UNL     1     -40.146  53.108 -51.499  1.00  0.00    -0.365 N 
HETATM   27  C   UNL     1     -39.444  49.639 -52.655  1.00  0.00     0.002 A 
HETATM   28  C   UNL     1     -39.843  49.827 -53.976  1.00  0.00     0.001 A 
HETATM   29  H   UNL     1     -39.924  53.245 -50.523  1.00  0.00     0.165 HD
HETATM   30  C   UNL     1     -40.651  54.068 -52.336  1.00  0.00     0.096 A 
ENDBRANCH  20  21
ENDBRANCH  19  20
ENDBRANCH   3  19
TORSDOF 6
ENDMDL
MODEL 6
REMARK VINA RESULT:      -7.8      4.958      8.324
REMARK  6 active torsions:
REMARK  status: ('A' for Active; 'I' for Inactive)
REMARK    1  A    between atoms: O_2  and  C_3 
REMARK    2  A    between atoms: C_6  and  C_7 
REMARK       I    between atoms: C_7  and  N_8 
REMARK    3  A    between atoms: N_8  and  C_9 
REMARK    4  A    between atoms: C_11  and  C_12 
REMARK    5  A    between atoms: C_12  and  C_13 
REMARK    6  A    between atoms: C_13  and  C_14 
ROOT
HETATM    1  C   UNL     1     -43.741  56.594 -52.954  1.00  0.00     0.725 A 
HETATM    2  N   UNL     1     -43.970  57.654 -53.685  1.00  0.00    -0.046 NA
HETATM    3  C   UNL     1     -44.854  58.392 -52.945  1.00  0.00     0.166 A 
HETATM    4  N   UNL     1     -45.184  57.844 -51.767  1.00  0.00    -0.144 NA
HETATM    5  N   UNL     1     -44.463  56.709 -51.796  1.00  0.00    -0.106 N 
HETATM    6  H   UNL     1     -44.516  56.073 -51.012  1.00  0.00     0.208 HD
ENDROOT
BRANCH   1   7
HETATM    7  N   UNL     1     -42.916  55.525 -53.210  1.00  0.00    -0.152 N 
HETATM    8  C   UNL     1     -41.840  55.241 -52.389  1.00  0.00     0.270 C 
HETATM    9  O   UNL     1     -41.410  55.915 -51.462  1.00  0.00    -0.267 OA
HETATM   10  H   UNL     1     -43.062  54.976 -54.043  1.00  0.00     0.187 HD
BRANCH   8  11
HETATM   11  C   UNL     1     -41.109  53.993 -52.735  1.00  0.00     0.033 A 
HETATM   12  C   UNL     1     -40.431  53.311 -51.717  1.00  0.00     0.020 A 
HETATM   13  C   UNL     1     -39.753  52.120 -51.995  1.00  0.00     0.038 A 
HETATM   14  C   UNL     1     -39.760  51.598 -53.288  1.00  0.00     0.068 A 
HETATM   15  C   UNL     1     -40.444  52.278 -54.300  1.00  0.00     0.038 A 
HETATM   16  C   UNL     1     -41.123  53.469 -54.031  1.00  0.00     0.020 A 
BRANCH  14  17
HETATM   17  O   UNL     1     -39.149  50.442 -53.690  1.00  0.00    -0.356 OA
HETATM   18  C   UNL     1     -39.810  49.683 -54.695  1.00  0.00     0.210 C 
ENDBRANCH  14  17
ENDBRANCH   8  11
ENDBRANCH   1   7
BRANCH   3  19
HETATM   19  C   UNL     1     -45.338  59.717 -53.402  1.00  0.00     0.087 C 
BRANCH  19  20
HETATM   20  C   UNL     1     -44.281  60.810 -53.227  1.00  0.00     0.048 C 
BRANCH  20  21
HETATM   21  C   UNL     1     -43.508  60.648 -51.955  1.00  0.00    -0.030 A 
HETATM   22  C   UNL     1     -42.203  60.071 -51.830  1.00  0.00    -0.002 A 
HETATM   23  C   UNL     1     -41.854  60.111 -50.480  1.00  0.00     0.042 A 
HETATM   24  C   UNL     1     -41.287  59.515 -52.747  1.00  0.00     0.014 A 
HETATM   25  C   UNL     1     -40.635  59.619 -49.999  1.00  0.00     0.030 A 
HETATM   26  N   UNL     1     -42.903  60.697 -49.811  1.00  0.00    -0.365 N 
HETATM   27  C   UNL     1     -39.745  59.070 -50.928  1.00  0.00     0.002 A 
HETATM   28  C   UNL     1     -40.063  59.018 -52.283  1.00  0.00     0.001 A 
HETATM   29  H   UNL     1     -42.924  60.861 -48.815  1.00  0.00     0.165 HD
HETATM   30  C   UNL     1     -43.905  61.023 -50.687  1.00  0.00     0.096 A 
ENDBRANCH  20  21
ENDBRANCH  19  20
ENDBRANCH   3  19
TORSDOF 6
ENDMDL
MODEL 7
REMARK VINA RESULT:      -7.8      3.116      4.516
REMARK  6 active torsions:
REMARK  status: ('A' for Active; 'I' for Inactive)
REMARK    1  A    between atoms: O_2  and  C_3 
REMARK    2  A    between atoms: C_6  and  C_7 
REMARK       I    between atoms: C_7  and  N_8 
REMARK    3  A    between atoms: N_8  and  C_9 
REMARK    4  A    between atoms: C_11  and  C_12 
REMARK    5  A    between atoms: C_12  and  C_13 
REMARK    6  A    between atoms: C_13  and  C_14 
ROOT
HETATM    1  C   UNL     1     -42.670  55.989 -56.395  1.00  0.00     0.725 A 
HETATM    2  N   UNL     1     -41.878  54.987 -56.113  1.00  0.00    -0.046 NA
HETATM    3  C   UNL     1     -42.472  54.376 -55.043  1.00  0.00     0.166 A 
HETATM    4  N   UNL     1     -43.617  54.946 -54.642  1.00  0.00    -0.144 NA
HETATM    5  N   UNL     1     -43.721  55.963 -55.517  1.00  0.00    -0.106 N 
HETATM    6  H   UNL     1     -44.514  56.586 -55.454  1.00  0.00     0.208 HD
ENDROOT
BRANCH   1   7
HETATM    7  N   UNL     1     -42.559  56.929 -57.392  1.00  0.00    -0.152 N 
HETATM    8  C   UNL     1     -42.264  58.248 -57.100  1.00  0.00     0.270 C 
HETATM    9  O   UNL     1     -42.192  58.770 -55.995  1.00  0.00    -0.267 OA
HETATM   10  H   UNL     1     -42.756  56.664 -58.345  1.00  0.00     0.187 HD
BRANCH   8  11
HETATM   11  C   UNL     1     -42.070  59.117 -58.291  1.00  0.00     0.033 A 
HETATM   12  C   UNL     1     -41.696  60.452 -58.091  1.00  0.00     0.020 A 
HETATM   13  C   UNL     1     -41.480  61.296 -59.184  1.00  0.00     0.038 A 
HETATM   14  C   UNL     1     -41.623  60.807 -60.483  1.00  0.00     0.068 A 
HETATM   15  C   UNL     1     -41.989  59.472 -60.679  1.00  0.00     0.038 A 
HETATM   16  C   UNL     1     -42.208  58.623 -59.592  1.00  0.00     0.020 A 
BRANCH  14  17
HETATM   17  O   UNL     1     -41.431  61.521 -61.635  1.00  0.00    -0.356 OA
HETATM   18  C   UNL     1     -41.485  62.938 -61.527  1.00  0.00     0.210 C 
ENDBRANCH  14  17
ENDBRANCH   8  11
ENDBRANCH   1   7
BRANCH   3  19
HETATM   19  C   UNL     1     -41.909  53.145 -54.436  1.00  0.00     0.087 C 
BRANCH  19  20
HETATM   20  C   UNL     1     -40.473  53.347 -53.947  1.00  0.00     0.048 C 
BRANCH  20  21
HETATM   21  C   UNL     1     -40.305  52.954 -52.512  1.00  0.00    -0.030 A 
HETATM   22  C   UNL     1     -40.630  53.761 -51.374  1.00  0.00    -0.002 A 
HETATM   23  C   UNL     1     -40.317  53.022 -50.233  1.00  0.00     0.042 A 
HETATM   24  C   UNL     1     -41.160  55.057 -51.214  1.00  0.00     0.014 A 
HETATM   25  C   UNL     1     -40.506  53.516 -48.937  1.00  0.00     0.030 A 
HETATM   26  N   UNL     1     -39.829  51.809 -50.661  1.00  0.00    -0.365 N 
HETATM   27  C   UNL     1     -41.031  54.805 -48.805  1.00  0.00     0.002 A 
HETATM   28  C   UNL     1     -41.355  55.568 -49.924  1.00  0.00     0.001 A 
HETATM   29  H   UNL     1     -39.527  51.067 -50.047  1.00  0.00     0.165 HD
HETATM   30  C   UNL     1     -39.815  51.757 -52.030  1.00  0.00     0.096 A 
ENDBRANCH  20  21
ENDBRANCH  19  20
ENDBRANCH   3  19
TORSDOF 6
ENDMDL
MODEL 8
REMARK VINA RESULT:      -7.7      1.588      3.159
REMARK  6 active torsions:
REMARK  status: ('A' for Active; 'I' for Inactive)
REMARK    1  A    between atoms: O_2  and  C_3 
REMARK    2  A    between atoms: C_6  and  C_7 
REMARK       I    between atoms: C_7  and  N_8 
REMARK    3  A    between atoms: N_8  and  C_9 
REMARK    4  A    between atoms: C_11  and  C_12 
REMARK    5  A    between atoms: C_12  and  C_13 
REMARK    6  A    between atoms: C_13  and  C_14 
ROOT
HETATM    1  C   UNL     1     -43.113  56.317 -56.485  1.00  0.00     0.725 A 
HETATM    2  N   UNL     1     -42.387  55.229 -56.461  1.00  0.00    -0.046 NA
HETATM    3  C   UNL     1     -41.531  55.416 -55.411  1.00  0.00     0.166 A 
HETATM    4  N   UNL     1     -41.694  56.576 -54.761  1.00  0.00    -0.144 NA
HETATM    5  N   UNL     1     -42.704  57.125 -55.459  1.00  0.00    -0.106 N 
HETATM    6  H   UNL     1     -43.052  58.035 -55.187  1.00  0.00     0.208 HD
ENDROOT
BRANCH   1   7
HETATM    7  N   UNL     1     -44.141  56.655 -57.333  1.00  0.00    -0.152 N 
HETATM    8  C   UNL     1     -43.912  56.878 -58.679  1.00  0.00     0.270 C 
HETATM    9  O   UNL     1     -42.832  56.935 -59.253  1.00  0.00    -0.267 OA
HETATM   10  H   UNL     1     -45.065  56.801 -56.957  1.00  0.00     0.187 HD
BRANCH   8  11
HETATM   11  C   UNL     1     -45.138  57.127 -59.483  1.00  0.00     0.033 A 
HETATM   12  C   UNL     1     -45.490  58.451 -59.771  1.00  0.00     0.020 A 
HETATM   13  C   UNL     1     -46.621  58.729 -60.545  1.00  0.00     0.038 A 
HETATM   14  C   UNL     1     -47.397  57.684 -61.047  1.00  0.00     0.068 A 
HETATM   15  C   UNL     1     -47.038  56.363 -60.764  1.00  0.00     0.038 A 
HETATM   16  C   UNL     1     -45.910  56.078 -59.989  1.00  0.00     0.020 A 
BRANCH  14  17
HETATM   17  O   UNL     1     -48.516  57.816 -61.822  1.00  0.00    -0.356 OA
HETATM   18  C   UNL     1     -48.611  56.970 -62.962  1.00  0.00     0.210 C 
ENDBRANCH  14  17
ENDBRANCH   8  11
ENDBRANCH   1   7
BRANCH   3  19
HETATM   19  C   UNL     1     -40.557  54.374 -55.004  1.00  0.00     0.087 C 
BRANCH  19  20
HETATM   20  C   UNL     1     -41.233  53.194 -54.301  1.00  0.00     0.048 C 
BRANCH  20  21
HETATM   21  C   UNL     1     -40.659  52.943 -52.941  1.00  0.00    -0.030 A 
HETATM   22  C   UNL     1     -40.904  53.725 -51.766  1.00  0.00    -0.002 A 
HETATM   23  C   UNL     1     -40.176  53.154 -50.722  1.00  0.00     0.042 A 
HETATM   24  C   UNL     1     -41.679  54.873 -51.499  1.00  0.00     0.014 A 
HETATM   25  C   UNL     1     -40.183  53.673 -49.422  1.00  0.00     0.030 A 
HETATM   26  N   UNL     1     -39.521  52.060 -51.240  1.00  0.00    -0.365 N 
HETATM   27  C   UNL     1     -40.957  54.813 -49.184  1.00  0.00     0.002 A 
HETATM   28  C   UNL     1     -41.696  55.406 -50.204  1.00  0.00     0.001 A 
HETATM   29  H   UNL     1     -38.920  51.450 -50.706  1.00  0.00     0.165 HD
HETATM   30  C   UNL     1     -39.802  51.925 -52.575  1.00  0.00     0.096 A 
ENDBRANCH  20  21
ENDBRANCH  19  20
ENDBRANCH   3  19
TORSDOF 6
ENDMDL
MODEL 9
REMARK VINA RESULT:      -7.6      3.311      8.726
REMARK  6 active torsions:
REMARK  status: ('A' for Active; 'I' for Inactive)
REMARK    1  A    between atoms: O_2  and  C_3 
REMARK    2  A    between atoms: C_6  and  C_7 
REMARK       I    between atoms: C_7  and  N_8 
REMARK    3  A    between atoms: N_8  and  C_9 
REMARK    4  A    between atoms: C_11  and  C_12 
REMARK    5  A    between atoms: C_12  and  C_13 
REMARK    6  A    between atoms: C_13  and  C_14 
ROOT
HETATM    1  C   UNL     1     -41.573  57.652 -53.590  1.00  0.00     0.725 A 
HETATM    2  N   UNL     1     -42.703  58.096 -54.076  1.00  0.00    -0.046 NA
HETATM    3  C   UNL     1     -42.462  59.416 -54.342  1.00  0.00     0.166 A 
HETATM    4  N   UNL     1     -41.218  59.823 -54.054  1.00  0.00    -0.144 NA
HETATM    5  N   UNL     1     -40.676  58.685 -53.582  1.00  0.00    -0.106 N 
HETATM    6  H   UNL     1     -39.712  58.690 -53.277  1.00  0.00     0.208 HD
ENDROOT
BRANCH   1   7
HETATM    7  N   UNL     1     -41.250  56.384 -53.167  1.00  0.00    -0.152 N 
HETATM    8  C   UNL     1     -41.006  55.370 -54.075  1.00  0.00     0.270 C 
HETATM    9  O   UNL     1     -41.156  55.403 -55.289  1.00  0.00    -0.267 OA
HETATM   10  H   UNL     1     -41.249  56.177 -52.180  1.00  0.00     0.187 HD
BRANCH   8  11
HETATM   11  C   UNL     1     -40.562  54.087 -53.466  1.00  0.00     0.033 A 
HETATM   12  C   UNL     1     -40.525  53.987 -52.070  1.00  0.00     0.020 A 
HETATM   13  C   UNL     1     -40.138  52.791 -51.458  1.00  0.00     0.038 A 
HETATM   14  C   UNL     1     -39.801  51.685 -52.238  1.00  0.00     0.068 A 
HETATM   15  C   UNL     1     -39.847  51.786 -53.632  1.00  0.00     0.038 A 
HETATM   16  C   UNL     1     -40.231  52.979 -54.250  1.00  0.00     0.020 A 
BRANCH  14  17
HETATM   17  O   UNL     1     -39.418  50.459 -51.768  1.00  0.00    -0.356 OA
HETATM   18  C   UNL     1     -39.572  49.356 -52.654  1.00  0.00     0.210 C 
ENDBRANCH  14  17
ENDBRANCH   8  11
ENDBRANCH   1   7
BRANCH   3  19
HETATM   19  C   UNL     1     -43.490  60.288 -54.962  1.00  0.00     0.087 C 
BRANCH  19  20
HETATM   20  C   UNL     1     -44.242  59.579 -56.092  1.00  0.00     0.048 C 
BRANCH  20  21
HETATM   21  C   UNL     1     -43.391  59.402 -57.311  1.00  0.00    -0.030 A 
HETATM   22  C   UNL     1     -43.186  58.176 -58.024  1.00  0.00    -0.002 A 
HETATM   23  C   UNL     1     -42.327  58.449 -59.088  1.00  0.00     0.042 A 
HETATM   24  C   UNL     1     -43.653  56.857 -57.855  1.00  0.00     0.014 A 
HETATM   25  C   UNL     1     -41.909  57.466 -59.993  1.00  0.00     0.030 A 
HETATM   26  N   UNL     1     -42.028  59.791 -59.031  1.00  0.00    -0.365 N 
HETATM   27  C   UNL     1     -42.384  56.165 -59.803  1.00  0.00     0.002 A 
HETATM   28  C   UNL     1     -43.244  55.861 -58.751  1.00  0.00     0.001 A 
HETATM   29  H   UNL     1     -41.427  60.270 -59.685  1.00  0.00     0.165 HD
HETATM   30  C   UNL     1     -42.660  60.374 -57.964  1.00  0.00     0.096 A 
ENDBRANCH  20  21
ENDBRANCH  19  20
ENDBRANCH   3  19
TORSDOF 6
ENDMDL
MODEL 10
REMARK VINA RESULT:      -7.6      1.922      2.408
REMARK  6 active torsions:
REMARK  status: ('A' for Active; 'I' for Inactive)
REMARK    1  A    between atoms: O_2  and  C_3 
REMARK    2  A    between atoms: C_6  and  C_7 
REMARK       I    between atoms: C_7  and  N_8 
REMARK    3  A    between atoms: N_8  and  C_9 
REMARK    4  A    between atoms: C_11  and  C_12 
REMARK    5  A    between atoms: C_12  and  C_13 
REMARK    6  A    between atoms: C_13  and  C_14 
ROOT
HETATM    1  C   UNL     1     -42.935  57.935 -54.908  1.00  0.00     0.725 A 
HETATM    2  N   UNL     1     -42.837  57.352 -53.741  1.00  0.00    -0.046 NA
HETATM    3  C   UNL     1     -41.781  57.978 -53.137  1.00  0.00     0.166 A 
HETATM    4  N   UNL     1     -41.212  58.942 -53.873  1.00  0.00    -0.144 NA
HETATM    5  N   UNL     1     -41.964  58.897 -54.987  1.00  0.00    -0.106 N 
HETATM    6  H   UNL     1     -41.758  59.534 -55.745  1.00  0.00     0.208 HD
ENDROOT
BRANCH   1   7
HETATM    7  N   UNL     1     -43.838  57.706 -55.919  1.00  0.00    -0.152 N 
HETATM    8  C   UNL     1     -43.417  57.541 -57.226  1.00  0.00     0.270 C 
HETATM    9  O   UNL     1     -42.287  57.692 -57.672  1.00  0.00    -0.267 OA
HETATM   10  H   UNL     1     -44.824  57.718 -55.713  1.00  0.00     0.187 HD
BRANCH   8  11
HETATM   11  C   UNL     1     -44.500  57.193 -58.185  1.00  0.00     0.033 A 
HETATM   12  C   UNL     1     -44.254  56.199 -59.140  1.00  0.00     0.020 A 
HETATM   13  C   UNL     1     -45.253  55.825 -60.044  1.00  0.00     0.038 A 
HETATM   14  C   UNL     1     -46.508  56.432 -59.989  1.00  0.00     0.068 A 
HETATM   15  C   UNL     1     -46.752  57.418 -59.029  1.00  0.00     0.038 A 
HETATM   16  C   UNL     1     -45.758  57.799 -58.123  1.00  0.00     0.020 A 
BRANCH  14  17
HETATM   17  O   UNL     1     -47.571  56.152 -60.803  1.00  0.00    -0.356 OA
HETATM   18  C   UNL     1     -47.967  57.171 -61.712  1.00  0.00     0.210 C 
ENDBRANCH  14  17
ENDBRANCH   8  11
ENDBRANCH   1   7
BRANCH   3  19
HETATM   19  C   UNL     1     -41.362  57.642 -51.754  1.00  0.00     0.087 C 
BRANCH  19  20
HETATM   20  C   UNL     1     -42.146  56.456 -51.186  1.00  0.00     0.048 C 
BRANCH  20  21
HETATM   21  C   UNL     1     -41.278  55.252 -50.984  1.00  0.00    -0.030 A 
HETATM   22  C   UNL     1     -40.968  54.262 -51.972  1.00  0.00    -0.002 A 
HETATM   23  C   UNL     1     -40.138  53.316 -51.371  1.00  0.00     0.042 A 
HETATM   24  C   UNL     1     -41.322  54.086 -53.326  1.00  0.00     0.014 A 
HETATM   25  C   UNL     1     -39.645  52.199 -52.056  1.00  0.00     0.030 A 
HETATM   26  N   UNL     1     -39.943  53.719 -50.071  1.00  0.00    -0.365 N 
HETATM   27  C   UNL     1     -40.013  52.046 -53.396  1.00  0.00     0.002 A 
HETATM   28  C   UNL     1     -40.839  52.974 -54.025  1.00  0.00     0.001 A 
HETATM   29  H   UNL     1     -39.377  53.224 -49.398  1.00  0.00     0.165 HD
HETATM   30  C   UNL     1     -40.627  54.881 -49.825  1.00  0.00     0.096 A 
ENDBRANCH  20  21
ENDBRANCH  19  20
ENDBRANCH   3  19
TORSDOF 6
ENDMDL
