MODEL 1
REMARK VINA RESULT:      -9.2      0.000      0.000
REMARK  8 active torsions:
REMARK  status: ('A' for Active; 'I' for Inactive)
REMARK    1  A    between atoms: C_6  and  S_7 
REMARK    2  A    between atoms: S_7  and  C_8 
REMARK    3  A    between atoms: C_8  and  C_9 
REMARK       I    between atoms: C_9  and  N_10 
REMARK    4  A    between atoms: N_10  and  C_11 
REMARK    5  A    between atoms: C_24  and  C_25 
REMARK    6  A    between atoms: C_25  and  C_26 
REMARK       I    between atoms: C_26  and  N_27 
REMARK    7  A    between atoms: N_27  and  C_28 
REMARK    8  A    between atoms: C_28  and  C_29 
ROOT
HETATM    1  C   UNL     1     -41.762  60.596 -60.675  1.00  0.00     0.001 A 
HETATM    2  C   UNL     1     -42.147  59.259 -60.569  1.00  0.00     0.018 A 
HETATM    3  C   UNL     1     -42.335  58.703 -59.304  1.00  0.00     0.039 A 
HETATM    4  C   UNL     1     -42.153  59.464 -58.144  1.00  0.00     0.073 A 
HETATM    5  N   UNL     1     -42.416  58.954 -56.867  1.00  0.00    -0.223 NA
HETATM    6  C   UNL     1     -42.788  57.722 -56.764  1.00  0.00     0.178 C 
HETATM    7  N   UNL     1     -42.853  56.850 -57.840  1.00  0.00    -0.241 N 
HETATM    8  C   UNL     1     -42.712  57.298 -59.115  1.00  0.00     0.147 A 
HETATM    9  N   UNL     1     -42.930  56.450 -60.078  1.00  0.00    -0.256 NA
HETATM   10  C   UNL     1     -43.134  55.505 -57.897  1.00  0.00     0.257 A 
HETATM   11  O   UNL     1     -43.303  54.692 -57.002  1.00  0.00    -0.270 OA
HETATM   12  C   UNL     1     -43.208  55.163 -59.372  1.00  0.00     0.211 A 
HETATM   13  C   UNL     1     -41.761  60.797 -58.264  1.00  0.00     0.032 A 
HETATM   14  C   UNL     1     -41.563  61.361 -59.525  1.00  0.00     0.002 A 
ENDROOT
BRANCH  12  15
HETATM   15  C   UNL     1     -44.558  54.563 -59.762  1.00  0.00     0.140 C 
BRANCH  15  16
HETATM   16  C   UNL     1     -45.160  55.223 -60.992  1.00  0.00     0.220 C 
HETATM   17  N   UNL     1     -46.108  56.184 -60.854  1.00  0.00    -0.357 N 
HETATM   18  H   UNL     1     -46.414  56.590 -61.732  1.00  0.00     0.162 HD
HETATM   19  O   UNL     1     -44.816  54.906 -62.133  1.00  0.00    -0.274 OA
BRANCH  17  20
HETATM   20  C   UNL     1     -46.555  56.832 -59.639  1.00  0.00     0.161 C 
BRANCH  20  21
HETATM   21  C   UNL     1     -46.162  58.288 -59.622  1.00  0.00    -0.038 A 
HETATM   22  C   UNL     1     -45.942  58.946 -58.401  1.00  0.00     0.048 A 
HETATM   23  C   UNL     1     -45.571  60.275 -58.434  1.00  0.00     0.105 A 
HETATM   24  C   UNL     1     -45.410  60.954 -59.617  1.00  0.00     0.105 A 
HETATM   25  O   UNL     1     -45.324  61.057 -57.350  1.00  0.00    -0.323 OA
HETATM   26  O   UNL     1     -45.039  62.249 -59.427  1.00  0.00    -0.323 OA
HETATM   27  C   UNL     1     -45.614  60.345 -60.836  1.00  0.00     0.040 A 
HETATM   28  C   UNL     1     -44.996  62.309 -57.986  1.00  0.00     0.352 A 
HETATM   29  C   UNL     1     -46.000  59.000 -60.835  1.00  0.00     0.012 A 
ENDBRANCH  20  21
ENDBRANCH  17  20
ENDBRANCH  15  16
ENDBRANCH  12  15
BRANCH   6  30
HETATM   30  S   UNL     1     -43.340  57.189 -55.201  1.00  0.00    -0.082 SA
BRANCH  30  31
HETATM   31  C   UNL     1     -41.727  56.694 -54.507  1.00  0.00     0.185 C 
BRANCH  31  32
HETATM   32  C   UNL     1     -41.781  55.328 -53.818  1.00  0.00     0.232 C 
HETATM   33  N   UNL     1     -40.568  54.652 -53.856  1.00  0.00    -0.324 N 
HETATM   34  H   UNL     1     -39.788  55.130 -54.314  1.00  0.00     0.169 HD
HETATM   35  O   UNL     1     -42.829  54.932 -53.322  1.00  0.00    -0.272 OA
BRANCH  33  36
HETATM   36  C   UNL     1     -40.253  53.354 -53.377  1.00  0.00     0.073 A 
HETATM   37  C   UNL     1     -39.954  52.995 -52.059  1.00  0.00     0.143 A 
HETATM   38  F   UNL     1     -39.889  53.888 -51.065  1.00  0.00    -0.204 F 
HETATM   39  C   UNL     1     -39.662  51.670 -51.718  1.00  0.00     0.044 A 
HETATM   40  C   UNL     1     -39.660  50.673 -52.690  1.00  0.00     0.003 A 
HETATM   41  C   UNL     1     -39.950  51.006 -54.007  1.00  0.00     0.002 A 
HETATM   42  C   UNL     1     -40.240  52.333 -54.346  1.00  0.00     0.033 A 
ENDBRANCH  33  36
ENDBRANCH  31  32
ENDBRANCH  30  31
ENDBRANCH   6  30
TORSDOF 8
ENDMDL
MODEL 2
REMARK VINA RESULT:      -8.5      5.324     10.233
REMARK  8 active torsions:
REMARK  status: ('A' for Active; 'I' for Inactive)
REMARK    1  A    between atoms: C_6  and  S_7 
REMARK    2  A    between atoms: S_7  and  C_8 
REMARK    3  A    between atoms: C_8  and  C_9 
REMARK       I    between atoms: C_9  and  N_10 
REMARK    4  A    between atoms: N_10  and  C_11 
REMARK    5  A    between atoms: C_24  and  C_25 
REMARK    6  A    between atoms: C_25  and  C_26 
REMARK       I    between atoms: C_26  and  N_27 
REMARK    7  A    between atoms: N_27  and  C_28 
REMARK    8  A    between atoms: C_28  and  C_29 
ROOT
HETATM    1  C   UNL     1     -42.421  55.077 -56.371  1.00  0.00     0.001 A 
HETATM    2  C   UNL     1     -41.988  55.338 -55.070  1.00  0.00     0.018 A 
HETATM    3  C   UNL     1     -42.305  56.562 -54.479  1.00  0.00     0.039 A 
HETATM    4  C   UNL     1     -43.054  57.524 -55.165  1.00  0.00     0.073 A 
HETATM    5  N   UNL     1     -43.456  58.724 -54.566  1.00  0.00    -0.223 NA
HETATM    6  C   UNL     1     -43.072  58.963 -53.356  1.00  0.00     0.178 C 
HETATM    7  N   UNL     1     -42.207  58.140 -52.651  1.00  0.00    -0.241 N 
HETATM    8  C   UNL     1     -41.860  56.915 -53.127  1.00  0.00     0.147 A 
HETATM    9  N   UNL     1     -41.164  56.141 -52.346  1.00  0.00    -0.256 NA
HETATM   10  C   UNL     1     -41.631  58.286 -51.411  1.00  0.00     0.257 A 
HETATM   11  O   UNL     1     -41.644  59.230 -50.637  1.00  0.00    -0.270 OA
HETATM   12  C   UNL     1     -40.916  56.978 -51.134  1.00  0.00     0.211 A 
HETATM   13  C   UNL     1     -43.475  57.253 -56.467  1.00  0.00     0.032 A 
HETATM   14  C   UNL     1     -43.157  56.036 -57.070  1.00  0.00     0.002 A 
ENDROOT
BRANCH  12  15
HETATM   15  C   UNL     1     -41.407  56.309 -49.852  1.00  0.00     0.140 C 
BRANCH  15  16
HETATM   16  C   UNL     1     -42.387  55.178 -50.119  1.00  0.00     0.220 C 
HETATM   17  N   UNL     1     -41.942  53.899 -50.218  1.00  0.00    -0.357 N 
HETATM   18  H   UNL     1     -42.679  53.216 -50.355  1.00  0.00     0.162 HD
HETATM   19  O   UNL     1     -43.595  55.385 -50.259  1.00  0.00    -0.274 OA
BRANCH  17  20
HETATM   20  C   UNL     1     -40.616  53.390 -49.938  1.00  0.00     0.161 C 
BRANCH  20  21
HETATM   21  C   UNL     1     -40.291  52.208 -50.817  1.00  0.00    -0.038 A 
HETATM   22  C   UNL     1     -40.225  52.363 -52.211  1.00  0.00     0.048 A 
HETATM   23  C   UNL     1     -39.911  51.258 -52.976  1.00  0.00     0.105 A 
HETATM   24  C   UNL     1     -39.660  50.031 -52.411  1.00  0.00     0.105 A 
HETATM   25  O   UNL     1     -39.810  51.234 -54.332  1.00  0.00    -0.323 OA
HETATM   26  O   UNL     1     -39.367  49.081 -53.339  1.00  0.00    -0.323 OA
HETATM   27  C   UNL     1     -39.712  49.838 -51.048  1.00  0.00     0.040 A 
HETATM   28  C   UNL     1     -39.474  49.849 -54.555  1.00  0.00     0.352 A 
HETATM   29  C   UNL     1     -40.036  50.937 -50.246  1.00  0.00     0.012 A 
ENDBRANCH  20  21
ENDBRANCH  17  20
ENDBRANCH  15  16
ENDBRANCH  12  15
BRANCH   6  30
HETATM   30  S   UNL     1     -43.783  60.337 -52.556  1.00  0.00    -0.082 SA
BRANCH  30  31
HETATM   31  C   UNL     1     -45.418  59.612 -52.192  1.00  0.00     0.185 C 
BRANCH  31  32
HETATM   32  C   UNL     1     -45.814  59.770 -50.723  1.00  0.00     0.232 C 
HETATM   33  N   UNL     1     -45.561  61.044 -50.226  1.00  0.00    -0.324 N 
HETATM   34  H   UNL     1     -45.162  61.722 -50.880  1.00  0.00     0.169 HD
HETATM   35  O   UNL     1     -46.282  58.820 -50.107  1.00  0.00    -0.272 OA
BRANCH  33  36
HETATM   36  C   UNL     1     -45.742  61.542 -48.910  1.00  0.00     0.073 A 
HETATM   37  C   UNL     1     -46.726  62.437 -48.480  1.00  0.00     0.143 A 
HETATM   38  F   UNL     1     -47.621  62.980 -49.312  1.00  0.00    -0.204 F 
HETATM   39  C   UNL     1     -46.795  62.849 -47.144  1.00  0.00     0.044 A 
HETATM   40  C   UNL     1     -45.879  62.375 -46.209  1.00  0.00     0.003 A 
HETATM   41  C   UNL     1     -44.890  61.487 -46.614  1.00  0.00     0.002 A 
HETATM   42  C   UNL     1     -44.822  61.078 -47.950  1.00  0.00     0.033 A 
ENDBRANCH  33  36
ENDBRANCH  31  32
ENDBRANCH  30  31
ENDBRANCH   6  30
TORSDOF 8
ENDMDL
MODEL 3
REMARK VINA RESULT:      -8.4      2.208      2.827
REMARK  8 active torsions:
REMARK  status: ('A' for Active; 'I' for Inactive)
REMARK    1  A    between atoms: C_6  and  S_7 
REMARK    2  A    between atoms: S_7  and  C_8 
REMARK    3  A    between atoms: C_8  and  C_9 
REMARK       I    between atoms: C_9  and  N_10 
REMARK    4  A    between atoms: N_10  and  C_11 
REMARK    5  A    between atoms: C_24  and  C_25 
REMARK    6  A    between atoms: C_25  and  C_26 
REMARK       I    between atoms: C_26  and  N_27 
REMARK    7  A    between atoms: N_27  and  C_28 
REMARK    8  A    between atoms: C_28  and  C_29 
ROOT
HETATM    1  C   UNL     1     -41.928  60.991 -59.768  1.00  0.00     0.001 A 
HETATM    2  C   UNL     1     -42.345  59.663 -59.863  1.00  0.00     0.018 A 
HETATM    3  C   UNL     1     -42.425  58.890 -58.704  1.00  0.00     0.039 A 
HETATM    4  C   UNL     1     -42.103  59.427 -57.452  1.00  0.00     0.073 A 
HETATM    5  N   UNL     1     -42.255  58.699 -56.266  1.00  0.00    -0.223 NA
HETATM    6  C   UNL     1     -42.656  57.474 -56.347  1.00  0.00     0.178 C 
HETATM    7  N   UNL     1     -42.856  56.812 -57.548  1.00  0.00    -0.241 N 
HETATM    8  C   UNL     1     -42.828  57.480 -58.731  1.00  0.00     0.147 A 
HETATM    9  N   UNL     1     -43.168  56.823 -59.801  1.00  0.00    -0.256 NA
HETATM   10  C   UNL     1     -43.186  55.503 -57.814  1.00  0.00     0.257 A 
HETATM   11  O   UNL     1     -43.293  54.545 -57.066  1.00  0.00    -0.270 OA
HETATM   12  C   UNL     1     -43.417  55.435 -59.311  1.00  0.00     0.211 A 
HETATM   13  C   UNL     1     -41.681  60.754 -57.373  1.00  0.00     0.032 A 
HETATM   14  C   UNL     1     -41.590  61.534 -58.526  1.00  0.00     0.002 A 
ENDROOT
BRANCH  12  15
HETATM   15  C   UNL     1     -44.818  54.935 -59.660  1.00  0.00     0.140 C 
BRANCH  15  16
HETATM   16  C   UNL     1     -45.216  55.260 -61.090  1.00  0.00     0.220 C 
HETATM   17  N   UNL     1     -46.089  56.269 -61.342  1.00  0.00    -0.357 N 
HETATM   18  H   UNL     1     -46.257  56.432 -62.329  1.00  0.00     0.162 HD
HETATM   19  O   UNL     1     -44.773  54.623 -62.049  1.00  0.00    -0.274 OA
BRANCH  17  20
HETATM   20  C   UNL     1     -46.615  57.249 -60.415  1.00  0.00     0.161 C 
BRANCH  20  21
HETATM   21  C   UNL     1     -47.665  58.110 -61.071  1.00  0.00    -0.038 A 
HETATM   22  C   UNL     1     -48.428  57.604 -62.136  1.00  0.00     0.048 A 
HETATM   23  C   UNL     1     -49.386  58.423 -62.699  1.00  0.00     0.105 A 
HETATM   24  C   UNL     1     -49.609  59.699 -62.242  1.00  0.00     0.105 A 
HETATM   25  O   UNL     1     -50.204  58.093 -63.733  1.00  0.00    -0.323 OA
HETATM   26  O   UNL     1     -50.597  60.332 -62.929  1.00  0.00    -0.323 OA
HETATM   27  C   UNL     1     -48.884  60.232 -61.198  1.00  0.00     0.040 A 
HETATM   28  C   UNL     1     -50.963  59.310 -63.880  1.00  0.00     0.352 A 
HETATM   29  C   UNL     1     -47.899  59.430 -60.613  1.00  0.00     0.012 A 
ENDBRANCH  20  21
ENDBRANCH  17  20
ENDBRANCH  15  16
ENDBRANCH  12  15
BRANCH   6  30
HETATM   30  S   UNL     1     -43.068  56.676 -54.854  1.00  0.00    -0.082 SA
BRANCH  30  31
HETATM   31  C   UNL     1     -41.449  55.908 -54.511  1.00  0.00     0.185 C 
BRANCH  31  32
HETATM   32  C   UNL     1     -41.582  54.510 -53.902  1.00  0.00     0.232 C 
HETATM   33  N   UNL     1     -40.386  53.803 -53.898  1.00  0.00    -0.324 N 
HETATM   34  H   UNL     1     -39.566  54.282 -54.279  1.00  0.00     0.169 HD
HETATM   35  O   UNL     1     -42.670  54.118 -53.497  1.00  0.00    -0.272 OA
BRANCH  33  36
HETATM   36  C   UNL     1     -40.135  52.473 -53.470  1.00  0.00     0.073 A 
HETATM   37  C   UNL     1     -39.742  52.063 -52.193  1.00  0.00     0.143 A 
HETATM   38  F   UNL     1     -39.507  52.925 -51.199  1.00  0.00    -0.204 F 
HETATM   39  C   UNL     1     -39.529  50.711 -51.901  1.00  0.00     0.044 A 
HETATM   40  C   UNL     1     -39.705  49.738 -52.882  1.00  0.00     0.003 A 
HETATM   41  C   UNL     1     -40.092  50.123 -54.160  1.00  0.00     0.002 A 
HETATM   42  C   UNL     1     -40.302  51.476 -54.450  1.00  0.00     0.033 A 
ENDBRANCH  33  36
ENDBRANCH  31  32
ENDBRANCH  30  31
ENDBRANCH   6  30
TORSDOF 8
ENDMDL
MODEL 4
REMARK VINA RESULT:      -8.4      3.604      7.243
REMARK  8 active torsions:
REMARK  status: ('A' for Active; 'I' for Inactive)
REMARK    1  A    between atoms: C_6  and  S_7 
REMARK    2  A    between atoms: S_7  and  C_8 
REMARK    3  A    between atoms: C_8  and  C_9 
REMARK       I    between atoms: C_9  and  N_10 
REMARK    4  A    between atoms: N_10  and  C_11 
REMARK    5  A    between atoms: C_24  and  C_25 
REMARK    6  A    between atoms: C_25  and  C_26 
REMARK       I    between atoms: C_26  and  N_27 
REMARK    7  A    between atoms: N_27  and  C_28 
REMARK    8  A    between atoms: C_28  and  C_29 
ROOT
HETATM    1  C   UNL     1     -40.144  51.388 -54.162  1.00  0.00     0.001 A 
HETATM    2  C   UNL     1     -41.099  52.386 -54.354  1.00  0.00     0.018 A 
HETATM    3  C   UNL     1     -41.354  53.292 -53.324  1.00  0.00     0.039 A 
HETATM    4  C   UNL     1     -40.663  53.221 -52.110  1.00  0.00     0.073 A 
HETATM    5  N   UNL     1     -40.839  54.168 -51.093  1.00  0.00    -0.223 NA
HETATM    6  C   UNL     1     -41.710  55.103 -51.273  1.00  0.00     0.178 C 
HETATM    7  N   UNL     1     -42.547  55.169 -52.377  1.00  0.00    -0.241 N 
HETATM    8  C   UNL     1     -42.364  54.350 -53.445  1.00  0.00     0.147 A 
HETATM    9  N   UNL     1     -43.092  54.567 -54.501  1.00  0.00    -0.256 NA
HETATM   10  C   UNL     1     -43.578  56.028 -52.679  1.00  0.00     0.257 A 
HETATM   11  O   UNL     1     -44.103  56.903 -52.009  1.00  0.00    -0.270 OA
HETATM   12  C   UNL     1     -43.993  55.686 -54.097  1.00  0.00     0.211 A 
HETATM   13  C   UNL     1     -39.715  52.214 -51.929  1.00  0.00     0.032 A 
HETATM   14  C   UNL     1     -39.458  51.298 -52.949  1.00  0.00     0.002 A 
ENDROOT
BRANCH  12  15
HETATM   15  C   UNL     1     -43.891  56.887 -55.036  1.00  0.00     0.140 C 
BRANCH  15  16
HETATM   16  C   UNL     1     -42.471  57.135 -55.518  1.00  0.00     0.220 C 
HETATM   17  N   UNL     1     -42.088  56.725 -56.754  1.00  0.00    -0.357 N 
HETATM   18  H   UNL     1     -41.136  56.975 -56.995  1.00  0.00     0.162 HD
HETATM   19  O   UNL     1     -41.634  57.700 -54.809  1.00  0.00    -0.274 OA
BRANCH  17  20
HETATM   20  C   UNL     1     -42.917  56.191 -57.815  1.00  0.00     0.161 C 
BRANCH  20  21
HETATM   21  C   UNL     1     -43.254  57.256 -58.829  1.00  0.00    -0.038 A 
HETATM   22  C   UNL     1     -42.237  58.055 -59.377  1.00  0.00     0.048 A 
HETATM   23  C   UNL     1     -42.590  59.008 -60.311  1.00  0.00     0.105 A 
HETATM   24  C   UNL     1     -43.892  59.184 -60.713  1.00  0.00     0.105 A 
HETATM   25  O   UNL     1     -41.736  59.863 -60.934  1.00  0.00    -0.323 OA
HETATM   26  O   UNL     1     -44.021  60.169 -61.642  1.00  0.00    -0.323 OA
HETATM   27  C   UNL     1     -44.917  58.419 -60.202  1.00  0.00     0.040 A 
HETATM   28  C   UNL     1     -42.650  60.602 -61.769  1.00  0.00     0.352 A 
HETATM   29  C   UNL     1     -44.593  57.450 -59.246  1.00  0.00     0.012 A 
ENDBRANCH  20  21
ENDBRANCH  17  20
ENDBRANCH  15  16
ENDBRANCH  12  15
BRANCH   6  30
HETATM   30  S   UNL     1     -41.734  56.397 -50.107  1.00  0.00    -0.082 SA
BRANCH  30  31
HETATM   31  C   UNL     1     -40.536  57.507 -50.922  1.00  0.00     0.185 C 
BRANCH  31  32
HETATM   32  C   UNL     1     -41.169  58.828 -51.363  1.00  0.00     0.232 C 
HETATM   33  N   UNL     1     -42.390  59.078 -50.748  1.00  0.00    -0.324 N 
HETATM   34  H   UNL     1     -42.719  58.380 -50.076  1.00  0.00     0.169 HD
HETATM   35  O   UNL     1     -40.606  59.532 -52.193  1.00  0.00    -0.272 OA
BRANCH  33  36
HETATM   36  C   UNL     1     -43.286  60.161 -50.946  1.00  0.00     0.073 A 
HETATM   37  C   UNL     1     -43.989  60.464 -52.115  1.00  0.00     0.143 A 
HETATM   38  F   UNL     1     -43.855  59.757 -53.242  1.00  0.00    -0.204 F 
HETATM   39  C   UNL     1     -44.848  61.567 -52.177  1.00  0.00     0.044 A 
HETATM   40  C   UNL     1     -45.022  62.392 -51.069  1.00  0.00     0.003 A 
HETATM   41  C   UNL     1     -44.330  62.112 -49.897  1.00  0.00     0.002 A 
HETATM   42  C   UNL     1     -43.470  61.010 -49.838  1.00  0.00     0.033 A 
ENDBRANCH  33  36
ENDBRANCH  31  32
ENDBRANCH  30  31
ENDBRANCH   6  30
TORSDOF 8
ENDMDL
MODEL 5
REMARK VINA RESULT:      -8.2      3.079      7.017
REMARK  8 active torsions:
REMARK  status: ('A' for Active; 'I' for Inactive)
REMARK    1  A    between atoms: C_6  and  S_7 
REMARK    2  A    between atoms: S_7  and  C_8 
REMARK    3  A    between atoms: C_8  and  C_9 
REMARK       I    between atoms: C_9  and  N_10 
REMARK    4  A    between atoms: N_10  and  C_11 
REMARK    5  A    between atoms: C_24  and  C_25 
REMARK    6  A    between atoms: C_25  and  C_26 
REMARK       I    between atoms: C_26  and  N_27 
REMARK    7  A    between atoms: N_27  and  C_28 
REMARK    8  A    between atoms: C_28  and  C_29 
ROOT
HETATM    1  C   UNL     1     -39.664  51.161 -53.716  1.00  0.00     0.001 A 
HETATM    2  C   UNL     1     -40.414  52.179 -54.307  1.00  0.00     0.018 A 
HETATM    3  C   UNL     1     -40.936  53.194 -53.505  1.00  0.00     0.039 A 
HETATM    4  C   UNL     1     -40.714  53.212 -52.124  1.00  0.00     0.073 A 
HETATM    5  N   UNL     1     -41.155  54.263 -51.309  1.00  0.00    -0.223 NA
HETATM    6  C   UNL     1     -41.835  55.215 -51.855  1.00  0.00     0.178 C 
HETATM    7  N   UNL     1     -42.232  55.209 -53.184  1.00  0.00    -0.241 N 
HETATM    8  C   UNL     1     -41.756  54.280 -54.053  1.00  0.00     0.147 A 
HETATM    9  N   UNL     1     -42.056  54.424 -55.311  1.00  0.00    -0.256 NA
HETATM   10  C   UNL     1     -43.025  56.080 -53.893  1.00  0.00     0.257 A 
HETATM   11  O   UNL     1     -43.678  57.041 -53.520  1.00  0.00    -0.270 OA
HETATM   12  C   UNL     1     -42.951  55.619 -55.336  1.00  0.00     0.211 A 
HETATM   13  C   UNL     1     -39.968  52.186 -51.544  1.00  0.00     0.032 A 
HETATM   14  C   UNL     1     -39.448  51.161 -52.336  1.00  0.00     0.002 A 
ENDROOT
BRANCH  12  15
HETATM   15  C   UNL     1     -42.437  56.714 -56.270  1.00  0.00     0.140 C 
BRANCH  15  16
HETATM   16  C   UNL     1     -43.106  56.681 -57.634  1.00  0.00     0.220 C 
HETATM   17  N   UNL     1     -43.644  57.812 -58.157  1.00  0.00    -0.357 N 
HETATM   18  H   UNL     1     -44.028  57.694 -59.088  1.00  0.00     0.162 HD
HETATM   19  O   UNL     1     -43.185  55.642 -58.294  1.00  0.00    -0.274 OA
BRANCH  17  20
HETATM   20  C   UNL     1     -43.539  59.167 -57.656  1.00  0.00     0.161 C 
BRANCH  20  21
HETATM   21  C   UNL     1     -42.732  60.032 -58.592  1.00  0.00    -0.038 A 
HETATM   22  C   UNL     1     -41.768  60.916 -58.080  1.00  0.00     0.048 A 
HETATM   23  C   UNL     1     -41.043  61.679 -58.974  1.00  0.00     0.105 A 
HETATM   24  C   UNL     1     -41.238  61.587 -60.331  1.00  0.00     0.105 A 
HETATM   25  O   UNL     1     -40.081  62.582 -58.648  1.00  0.00    -0.323 OA
HETATM   26  O   UNL     1     -40.421  62.419 -61.031  1.00  0.00    -0.323 OA
HETATM   27  C   UNL     1     -42.171  60.730 -60.873  1.00  0.00     0.040 A 
HETATM   28  C   UNL     1     -39.696  63.053 -59.956  1.00  0.00     0.352 A 
HETATM   29  C   UNL     1     -42.928  59.951 -59.992  1.00  0.00     0.012 A 
ENDBRANCH  20  21
ENDBRANCH  17  20
ENDBRANCH  15  16
ENDBRANCH  12  15
BRANCH   6  30
HETATM   30  S   UNL     1     -42.159  56.618 -50.875  1.00  0.00    -0.082 SA
BRANCH  30  31
HETATM   31  C   UNL     1     -40.571  57.484 -51.123  1.00  0.00     0.185 C 
BRANCH  31  32
HETATM   32  C   UNL     1     -40.719  58.741 -51.983  1.00  0.00     0.232 C 
HETATM   33  N   UNL     1     -42.016  59.237 -52.001  1.00  0.00    -0.324 N 
HETATM   34  H   UNL     1     -42.711  58.732 -51.445  1.00  0.00     0.169 HD
HETATM   35  O   UNL     1     -39.749  59.194 -52.580  1.00  0.00    -0.272 OA
BRANCH  33  36
HETATM   36  C   UNL     1     -42.541  60.340 -52.723  1.00  0.00     0.073 A 
HETATM   37  C   UNL     1     -42.480  60.544 -54.106  1.00  0.00     0.143 A 
HETATM   38  F   UNL     1     -41.852  59.701 -54.932  1.00  0.00    -0.204 F 
HETATM   39  C   UNL     1     -43.044  61.681 -54.695  1.00  0.00     0.044 A 
HETATM   40  C   UNL     1     -43.681  62.641 -53.914  1.00  0.00     0.003 A 
HETATM   41  C   UNL     1     -43.751  62.462 -52.538  1.00  0.00     0.002 A 
HETATM   42  C   UNL     1     -43.185  61.325 -51.950  1.00  0.00     0.033 A 
ENDBRANCH  33  36
ENDBRANCH  31  32
ENDBRANCH  30  31
ENDBRANCH   6  30
TORSDOF 8
ENDMDL
MODEL 6
REMARK VINA RESULT:      -8.2      3.169      8.973
REMARK  8 active torsions:
REMARK  status: ('A' for Active; 'I' for Inactive)
REMARK    1  A    between atoms: C_6  and  S_7 
REMARK    2  A    between atoms: S_7  and  C_8 
REMARK    3  A    between atoms: C_8  and  C_9 
REMARK       I    between atoms: C_9  and  N_10 
REMARK    4  A    between atoms: N_10  and  C_11 
REMARK    5  A    between atoms: C_24  and  C_25 
REMARK    6  A    between atoms: C_25  and  C_26 
REMARK       I    between atoms: C_26  and  N_27 
REMARK    7  A    between atoms: N_27  and  C_28 
REMARK    8  A    between atoms: C_28  and  C_29 
ROOT
HETATM    1  C   UNL     1     -40.228  54.555 -54.743  1.00  0.00     0.001 A 
HETATM    2  C   UNL     1     -40.373  55.829 -54.194  1.00  0.00     0.018 A 
HETATM    3  C   UNL     1     -41.528  56.562 -54.471  1.00  0.00     0.039 A 
HETATM    4  C   UNL     1     -42.541  56.038 -55.280  1.00  0.00     0.073 A 
HETATM    5  N   UNL     1     -43.744  56.719 -55.505  1.00  0.00    -0.223 NA
HETATM    6  C   UNL     1     -43.890  57.892 -54.986  1.00  0.00     0.178 C 
HETATM    7  N   UNL     1     -42.887  58.554 -54.295  1.00  0.00    -0.241 N 
HETATM    8  C   UNL     1     -41.736  57.918 -53.952  1.00  0.00     0.147 A 
HETATM    9  N   UNL     1     -40.904  58.556 -53.180  1.00  0.00    -0.256 NA
HETATM   10  C   UNL     1     -42.840  59.822 -53.766  1.00  0.00     0.257 A 
HETATM   11  O   UNL     1     -43.633  60.746 -53.849  1.00  0.00    -0.270 OA
HETATM   12  C   UNL     1     -41.536  59.896 -52.996  1.00  0.00     0.211 A 
HETATM   13  C   UNL     1     -42.381  54.766 -55.828  1.00  0.00     0.032 A 
HETATM   14  C   UNL     1     -41.227  54.027 -55.564  1.00  0.00     0.002 A 
ENDROOT
BRANCH  12  15
HETATM   15  C   UNL     1     -41.750  60.243 -51.523  1.00  0.00     0.140 C 
BRANCH  15  16
HETATM   16  C   UNL     1     -40.853  59.440 -50.595  1.00  0.00     0.220 C 
HETATM   17  N   UNL     1     -41.280  58.254 -50.092  1.00  0.00    -0.357 N 
HETATM   18  H   UNL     1     -40.592  57.779 -49.519  1.00  0.00     0.162 HD
HETATM   19  O   UNL     1     -39.732  59.839 -50.271  1.00  0.00    -0.274 OA
BRANCH  17  20
HETATM   20  C   UNL     1     -42.471  57.509 -50.444  1.00  0.00     0.161 C 
BRANCH  20  21
HETATM   21  C   UNL     1     -42.129  56.097 -50.847  1.00  0.00    -0.038 A 
HETATM   22  C   UNL     1     -40.876  55.554 -50.520  1.00  0.00     0.048 A 
HETATM   23  C   UNL     1     -40.611  54.252 -50.897  1.00  0.00     0.105 A 
HETATM   24  C   UNL     1     -41.535  53.488 -51.568  1.00  0.00     0.105 A 
HETATM   25  O   UNL     1     -39.453  53.579 -50.664  1.00  0.00    -0.323 OA
HETATM   26  O   UNL     1     -41.076  52.237 -51.839  1.00  0.00    -0.323 OA
HETATM   27  C   UNL     1     -42.776  53.983 -51.904  1.00  0.00     0.040 A 
HETATM   28  C   UNL     1     -39.751  52.306 -51.272  1.00  0.00     0.352 A 
HETATM   29  C   UNL     1     -43.071  55.302 -51.544  1.00  0.00     0.012 A 
ENDBRANCH  20  21
ENDBRANCH  17  20
ENDBRANCH  15  16
ENDBRANCH  12  15
BRANCH   6  30
HETATM   30  S   UNL     1     -45.477  58.606 -55.076  1.00  0.00    -0.082 SA
BRANCH  30  31
HETATM   31  C   UNL     1     -45.184  59.719 -56.492  1.00  0.00     0.185 C 
BRANCH  31  32
HETATM   32  C   UNL     1     -44.690  58.970 -57.732  1.00  0.00     0.232 C 
HETATM   33  N   UNL     1     -45.446  57.841 -58.022  1.00  0.00    -0.324 N 
HETATM   34  H   UNL     1     -46.237  57.644 -57.402  1.00  0.00     0.169 HD
HETATM   35  O   UNL     1     -43.709  59.376 -58.344  1.00  0.00    -0.272 OA
BRANCH  33  36
HETATM   36  C   UNL     1     -45.259  56.879 -59.048  1.00  0.00     0.073 A 
HETATM   37  C   UNL     1     -44.109  56.120 -59.285  1.00  0.00     0.143 A 
HETATM   38  F   UNL     1     -42.992  56.256 -58.563  1.00  0.00    -0.204 F 
HETATM   39  C   UNL     1     -44.055  55.197 -60.336  1.00  0.00     0.044 A 
HETATM   40  C   UNL     1     -45.152  55.014 -61.174  1.00  0.00     0.003 A 
HETATM   41  C   UNL     1     -46.304  55.760 -60.960  1.00  0.00     0.002 A 
HETATM   42  C   UNL     1     -46.355  56.683 -59.909  1.00  0.00     0.033 A 
ENDBRANCH  33  36
ENDBRANCH  31  32
ENDBRANCH  30  31
ENDBRANCH   6  30
TORSDOF 8
ENDMDL
MODEL 7
REMARK VINA RESULT:      -8.2      3.358      5.482
REMARK  8 active torsions:
REMARK  status: ('A' for Active; 'I' for Inactive)
REMARK    1  A    between atoms: C_6  and  S_7 
REMARK    2  A    between atoms: S_7  and  C_8 
REMARK    3  A    between atoms: C_8  and  C_9 
REMARK       I    between atoms: C_9  and  N_10 
REMARK    4  A    between atoms: N_10  and  C_11 
REMARK    5  A    between atoms: C_24  and  C_25 
REMARK    6  A    between atoms: C_25  and  C_26 
REMARK       I    between atoms: C_26  and  N_27 
REMARK    7  A    between atoms: N_27  and  C_28 
REMARK    8  A    between atoms: C_28  and  C_29 
ROOT
HETATM    1  C   UNL     1     -44.028  63.155 -51.996  1.00  0.00     0.001 A 
HETATM    2  C   UNL     1     -43.644  62.147 -52.880  1.00  0.00     0.018 A 
HETATM    3  C   UNL     1     -42.926  61.053 -52.396  1.00  0.00     0.039 A 
HETATM    4  C   UNL     1     -42.593  60.948 -51.041  1.00  0.00     0.073 A 
HETATM    5  N   UNL     1     -41.947  59.823 -50.516  1.00  0.00    -0.223 NA
HETATM    6  C   UNL     1     -41.603  58.879 -51.328  1.00  0.00     0.178 C 
HETATM    7  N   UNL     1     -41.756  58.960 -52.704  1.00  0.00    -0.241 N 
HETATM    8  C   UNL     1     -42.464  59.971 -53.272  1.00  0.00     0.147 A 
HETATM    9  N   UNL     1     -42.689  59.902 -54.552  1.00  0.00    -0.256 NA
HETATM   10  C   UNL     1     -41.367  58.104 -53.708  1.00  0.00     0.257 A 
HETATM   11  O   UNL     1     -40.691  57.089 -53.666  1.00  0.00    -0.270 OA
HETATM   12  C   UNL     1     -41.963  58.670 -54.982  1.00  0.00     0.211 A 
HETATM   13  C   UNL     1     -42.978  61.966 -50.169  1.00  0.00     0.032 A 
HETATM   14  C   UNL     1     -43.690  63.068 -50.644  1.00  0.00     0.002 A 
ENDROOT
BRANCH  12  15
HETATM   15  C   UNL     1     -42.878  57.670 -55.688  1.00  0.00     0.140 C 
BRANCH  15  16
HETATM   16  C   UNL     1     -44.319  57.759 -55.216  1.00  0.00     0.220 C 
HETATM   17  N   UNL     1     -45.228  58.474 -55.927  1.00  0.00    -0.357 N 
HETATM   18  H   UNL     1     -46.168  58.435 -55.552  1.00  0.00     0.162 HD
HETATM   19  O   UNL     1     -44.700  57.200 -54.184  1.00  0.00    -0.274 OA
BRANCH  17  20
HETATM   20  C   UNL     1     -45.065  59.077 -57.234  1.00  0.00     0.161 C 
BRANCH  20  21
HETATM   21  C   UNL     1     -45.429  58.106 -58.330  1.00  0.00    -0.038 A 
HETATM   22  C   UNL     1     -44.428  57.353 -58.966  1.00  0.00     0.048 A 
HETATM   23  C   UNL     1     -44.808  56.467 -59.955  1.00  0.00     0.105 A 
HETATM   24  C   UNL     1     -46.123  56.305 -60.318  1.00  0.00     0.105 A 
HETATM   25  O   UNL     1     -43.971  55.670 -60.669  1.00  0.00    -0.323 OA
HETATM   26  O   UNL     1     -46.279  55.383 -61.305  1.00  0.00    -0.323 OA
HETATM   27  C   UNL     1     -47.134  57.022 -59.716  1.00  0.00     0.040 A 
HETATM   28  C   UNL     1     -44.909  54.991 -61.529  1.00  0.00     0.352 A 
HETATM   29  C   UNL     1     -46.780  57.935 -58.717  1.00  0.00     0.012 A 
ENDBRANCH  20  21
ENDBRANCH  17  20
ENDBRANCH  15  16
ENDBRANCH  12  15
BRANCH   6  30
HETATM   30  S   UNL     1     -41.027  57.396 -50.620  1.00  0.00    -0.082 SA
BRANCH  30  31
HETATM   31  C   UNL     1     -42.576  56.437 -50.720  1.00  0.00     0.185 C 
BRANCH  31  32
HETATM   32  C   UNL     1     -42.340  54.988 -51.149  1.00  0.00     0.232 C 
HETATM   33  N   UNL     1     -41.169  54.821 -51.878  1.00  0.00    -0.324 N 
HETATM   34  H   UNL     1     -40.600  55.657 -52.034  1.00  0.00     0.169 HD
HETATM   35  O   UNL     1     -43.156  54.120 -50.859  1.00  0.00    -0.272 OA
BRANCH  33  36
HETATM   36  C   UNL     1     -40.653  53.646 -52.485  1.00  0.00     0.073 A 
HETATM   37  C   UNL     1     -40.731  53.296 -53.836  1.00  0.00     0.143 A 
HETATM   38  F   UNL     1     -41.369  54.047 -54.740  1.00  0.00    -0.204 F 
HETATM   39  C   UNL     1     -40.175  52.102 -54.308  1.00  0.00     0.044 A 
HETATM   40  C   UNL     1     -39.528  51.229 -53.436  1.00  0.00     0.003 A 
HETATM   41  C   UNL     1     -39.441  51.554 -52.088  1.00  0.00     0.002 A 
HETATM   42  C   UNL     1     -40.000  52.749 -51.619  1.00  0.00     0.033 A 
ENDBRANCH  33  36
ENDBRANCH  31  32
ENDBRANCH  30  31
ENDBRANCH   6  30
TORSDOF 8
ENDMDL
MODEL 8
REMARK VINA RESULT:      -8.0      4.489      6.302
REMARK  8 active torsions:
REMARK  status: ('A' for Active; 'I' for Inactive)
REMARK    1  A    between atoms: C_6  and  S_7 
REMARK    2  A    between atoms: S_7  and  C_8 
REMARK    3  A    between atoms: C_8  and  C_9 
REMARK       I    between atoms: C_9  and  N_10 
REMARK    4  A    between atoms: N_10  and  C_11 
REMARK    5  A    between atoms: C_24  and  C_25 
REMARK    6  A    between atoms: C_25  and  C_26 
REMARK       I    between atoms: C_26  and  N_27 
REMARK    7  A    between atoms: N_27  and  C_28 
REMARK    8  A    between atoms: C_28  and  C_29 
ROOT
HETATM    1  C   UNL     1     -43.368  63.336 -51.761  1.00  0.00     0.001 A 
HETATM    2  C   UNL     1     -43.050  62.340 -52.685  1.00  0.00     0.018 A 
HETATM    3  C   UNL     1     -42.480  61.149 -52.234  1.00  0.00     0.039 A 
HETATM    4  C   UNL     1     -42.231  60.935 -50.874  1.00  0.00     0.073 A 
HETATM    5  N   UNL     1     -41.738  59.718 -50.387  1.00  0.00    -0.223 NA
HETATM    6  C   UNL     1     -41.458  58.788 -51.237  1.00  0.00     0.178 C 
HETATM    7  N   UNL     1     -41.530  58.959 -52.611  1.00  0.00    -0.241 N 
HETATM    8  C   UNL     1     -42.094  60.071 -53.151  1.00  0.00     0.147 A 
HETATM    9  N   UNL     1     -42.259  60.096 -54.441  1.00  0.00    -0.256 NA
HETATM   10  C   UNL     1     -41.185  58.120 -53.645  1.00  0.00     0.257 A 
HETATM   11  O   UNL     1     -40.626  57.035 -53.633  1.00  0.00    -0.270 OA
HETATM   12  C   UNL     1     -41.650  58.816 -54.910  1.00  0.00     0.211 A 
HETATM   13  C   UNL     1     -42.548  61.941 -49.962  1.00  0.00     0.032 A 
HETATM   14  C   UNL     1     -43.112  63.139 -50.403  1.00  0.00     0.002 A 
ENDROOT
BRANCH  12  15
HETATM   15  C   UNL     1     -42.629  57.963 -55.715  1.00  0.00     0.140 C 
BRANCH  15  16
HETATM   16  C   UNL     1     -43.467  57.047 -54.838  1.00  0.00     0.220 C 
HETATM   17  N   UNL     1     -44.586  57.519 -54.231  1.00  0.00    -0.357 N 
HETATM   18  H   UNL     1     -45.095  56.819 -53.704  1.00  0.00     0.162 HD
HETATM   19  O   UNL     1     -43.157  55.869 -54.646  1.00  0.00    -0.274 OA
BRANCH  17  20
HETATM   20  C   UNL     1     -45.235  58.799 -54.425  1.00  0.00     0.161 C 
BRANCH  20  21
HETATM   21  C   UNL     1     -45.512  59.473 -53.104  1.00  0.00    -0.038 A 
HETATM   22  C   UNL     1     -46.074  60.760 -53.073  1.00  0.00     0.048 A 
HETATM   23  C   UNL     1     -46.323  61.333 -51.842  1.00  0.00     0.105 A 
HETATM   24  C   UNL     1     -46.042  60.680 -50.667  1.00  0.00     0.105 A 
HETATM   25  O   UNL     1     -46.856  62.566 -51.635  1.00  0.00    -0.323 OA
HETATM   26  O   UNL     1     -46.366  61.418 -49.572  1.00  0.00    -0.323 OA
HETATM   27  C   UNL     1     -45.493  59.416 -50.654  1.00  0.00     0.040 A 
HETATM   28  C   UNL     1     -46.873  62.617 -50.194  1.00  0.00     0.352 A 
HETATM   29  C   UNL     1     -45.221  58.812 -51.886  1.00  0.00     0.012 A 
ENDBRANCH  20  21
ENDBRANCH  17  20
ENDBRANCH  15  16
ENDBRANCH  12  15
BRANCH   6  30
HETATM   30  S   UNL     1     -41.082  57.214 -50.593  1.00  0.00    -0.082 SA
BRANCH  30  31
HETATM   31  C   UNL     1     -42.655  56.382 -50.998  1.00  0.00     0.185 C 
BRANCH  31  32
HETATM   32  C   UNL     1     -42.454  54.923 -51.415  1.00  0.00     0.232 C 
HETATM   33  N   UNL     1     -41.172  54.663 -51.882  1.00  0.00    -0.324 N 
HETATM   34  H   UNL     1     -40.514  55.448 -51.885  1.00  0.00     0.169 HD
HETATM   35  O   UNL     1     -43.383  54.128 -51.334  1.00  0.00    -0.272 OA
BRANCH  33  36
HETATM   36  C   UNL     1     -40.637  53.456 -52.404  1.00  0.00     0.073 A 
HETATM   37  C   UNL     1     -40.045  52.418 -51.677  1.00  0.00     0.143 A 
HETATM   38  F   UNL     1     -39.872  52.472 -50.352  1.00  0.00    -0.204 F 
HETATM   39  C   UNL     1     -39.558  51.274 -52.317  1.00  0.00     0.044 A 
HETATM   40  C   UNL     1     -39.651  51.142 -53.700  1.00  0.00     0.003 A 
HETATM   41  C   UNL     1     -40.232  52.162 -54.443  1.00  0.00     0.002 A 
HETATM   42  C   UNL     1     -40.717  53.307 -53.801  1.00  0.00     0.033 A 
ENDBRANCH  33  36
ENDBRANCH  31  32
ENDBRANCH  30  31
ENDBRANCH   6  30
TORSDOF 8
ENDMDL
MODEL 9
REMARK VINA RESULT:      -8.0      2.782      7.581
REMARK  8 active torsions:
REMARK  status: ('A' for Active; 'I' for Inactive)
REMARK    1  A    between atoms: C_6  and  S_7 
REMARK    2  A    between atoms: S_7  and  C_8 
REMARK    3  A    between atoms: C_8  and  C_9 
REMARK       I    between atoms: C_9  and  N_10 
REMARK    4  A    between atoms: N_10  and  C_11 
REMARK    5  A    between atoms: C_24  and  C_25 
REMARK    6  A    between atoms: C_25  and  C_26 
REMARK       I    between atoms: C_26  and  N_27 
REMARK    7  A    between atoms: N_27  and  C_28 
REMARK    8  A    between atoms: C_28  and  C_29 
ROOT
HETATM    1  C   UNL     1     -47.346  56.594 -61.181  1.00  0.00     0.001 A 
HETATM    2  C   UNL     1     -46.296  56.163 -60.370  1.00  0.00     0.018 A 
HETATM    3  C   UNL     1     -45.666  57.080 -59.527  1.00  0.00     0.039 A 
HETATM    4  C   UNL     1     -46.075  58.417 -59.477  1.00  0.00     0.073 A 
HETATM    5  N   UNL     1     -45.516  59.336 -58.581  1.00  0.00    -0.223 NA
HETATM    6  C   UNL     1     -44.555  58.938 -57.816  1.00  0.00     0.178 C 
HETATM    7  N   UNL     1     -43.984  57.677 -57.897  1.00  0.00    -0.241 N 
HETATM    8  C   UNL     1     -44.538  56.705 -58.667  1.00  0.00     0.147 A 
HETATM    9  N   UNL     1     -44.034  55.508 -58.581  1.00  0.00    -0.256 NA
HETATM   10  C   UNL     1     -42.911  57.127 -57.236  1.00  0.00     0.257 A 
HETATM   11  O   UNL     1     -42.106  57.635 -56.472  1.00  0.00    -0.270 OA
HETATM   12  C   UNL     1     -42.884  55.667 -57.642  1.00  0.00     0.211 A 
HETATM   13  C   UNL     1     -47.121  58.836 -60.299  1.00  0.00     0.032 A 
HETATM   14  C   UNL     1     -47.753  57.929 -61.151  1.00  0.00     0.002 A 
ENDROOT
BRANCH  12  15
HETATM   15  C   UNL     1     -42.978  54.729 -56.439  1.00  0.00     0.140 C 
BRANCH  15  16
HETATM   16  C   UNL     1     -43.131  55.475 -55.125  1.00  0.00     0.220 C 
HETATM   17  N   UNL     1     -42.100  55.524 -54.243  1.00  0.00    -0.357 N 
HETATM   18  H   UNL     1     -42.288  56.081 -53.418  1.00  0.00     0.162 HD
HETATM   19  O   UNL     1     -44.182  56.044 -54.819  1.00  0.00    -0.274 OA
BRANCH  17  20
HETATM   20  C   UNL     1     -40.735  55.078 -54.439  1.00  0.00     0.161 C 
BRANCH  20  21
HETATM   21  C   UNL     1     -40.445  53.843 -53.624  1.00  0.00    -0.038 A 
HETATM   22  C   UNL     1     -40.198  52.617 -54.264  1.00  0.00     0.048 A 
HETATM   23  C   UNL     1     -39.924  51.515 -53.479  1.00  0.00     0.105 A 
HETATM   24  C   UNL     1     -39.882  51.593 -52.108  1.00  0.00     0.105 A 
HETATM   25  O   UNL     1     -39.668  50.260 -53.935  1.00  0.00    -0.323 OA
HETATM   26  O   UNL     1     -39.592  50.397 -51.529  1.00  0.00    -0.323 OA
HETATM   27  C   UNL     1     -40.116  52.776 -51.442  1.00  0.00     0.040 A 
HETATM   28  C   UNL     1     -39.467  49.555 -52.694  1.00  0.00     0.352 A 
HETATM   29  C   UNL     1     -40.406  53.909 -52.210  1.00  0.00     0.012 A 
ENDBRANCH  20  21
ENDBRANCH  17  20
ENDBRANCH  15  16
ENDBRANCH  12  15
BRANCH   6  30
HETATM   30  S   UNL     1     -44.049  60.023 -56.551  1.00  0.00    -0.082 SA
BRANCH  30  31
HETATM   31  C   UNL     1     -45.287  59.558 -55.294  1.00  0.00     0.185 C 
BRANCH  31  32
HETATM   32  C   UNL     1     -44.675  59.397 -53.901  1.00  0.00     0.232 C 
HETATM   33  N   UNL     1     -43.379  58.895 -53.933  1.00  0.00    -0.324 N 
HETATM   34  H   UNL     1     -42.980  58.705 -54.855  1.00  0.00     0.169 HD
HETATM   35  O   UNL     1     -45.329  59.684 -52.906  1.00  0.00    -0.272 OA
BRANCH  33  36
HETATM   36  C   UNL     1     -42.523  58.563 -52.851  1.00  0.00     0.073 A 
HETATM   37  C   UNL     1     -42.761  57.612 -51.853  1.00  0.00     0.143 A 
HETATM   38  F   UNL     1     -43.896  56.909 -51.784  1.00  0.00    -0.204 F 
HETATM   39  C   UNL     1     -41.827  57.379 -50.838  1.00  0.00     0.044 A 
HETATM   40  C   UNL     1     -40.633  58.093 -50.797  1.00  0.00     0.003 A 
HETATM   41  C   UNL     1     -40.375  59.046 -51.776  1.00  0.00     0.002 A 
HETATM   42  C   UNL     1     -41.312  59.278 -52.789  1.00  0.00     0.033 A 
ENDBRANCH  33  36
ENDBRANCH  31  32
ENDBRANCH  30  31
ENDBRANCH   6  30
TORSDOF 8
ENDMDL
MODEL 10
REMARK VINA RESULT:      -7.9      1.992      5.091
REMARK  8 active torsions:
REMARK  status: ('A' for Active; 'I' for Inactive)
REMARK    1  A    between atoms: C_6  and  S_7 
REMARK    2  A    between atoms: S_7  and  C_8 
REMARK    3  A    between atoms: C_8  and  C_9 
REMARK       I    between atoms: C_9  and  N_10 
REMARK    4  A    between atoms: N_10  and  C_11 
REMARK    5  A    between atoms: C_24  and  C_25 
REMARK    6  A    between atoms: C_25  and  C_26 
REMARK       I    between atoms: C_26  and  N_27 
REMARK    7  A    between atoms: N_27  and  C_28 
REMARK    8  A    between atoms: C_28  and  C_29 
ROOT
HETATM    1  C   UNL     1     -46.550  59.005 -60.642  1.00  0.00     0.001 A 
HETATM    2  C   UNL     1     -45.998  59.971 -59.801  1.00  0.00     0.018 A 
HETATM    3  C   UNL     1     -45.790  59.663 -58.456  1.00  0.00     0.039 A 
HETATM    4  C   UNL     1     -46.117  58.404 -57.942  1.00  0.00     0.073 A 
HETATM    5  N   UNL     1     -45.841  58.042 -56.618  1.00  0.00    -0.223 NA
HETATM    6  C   UNL     1     -45.315  58.928 -55.839  1.00  0.00     0.178 C 
HETATM    7  N   UNL     1     -45.094  60.244 -56.215  1.00  0.00    -0.241 N 
HETATM    8  C   UNL     1     -45.241  60.638 -57.507  1.00  0.00     0.147 A 
HETATM    9  N   UNL     1     -44.876  61.849 -57.811  1.00  0.00    -0.256 NA
HETATM   10  C   UNL     1     -44.637  61.324 -55.496  1.00  0.00     0.257 A 
HETATM   11  O   UNL     1     -44.400  61.440 -54.304  1.00  0.00    -0.270 OA
HETATM   12  C   UNL     1     -44.461  62.442 -56.505  1.00  0.00     0.211 A 
HETATM   13  C   UNL     1     -46.674  57.449 -58.793  1.00  0.00     0.032 A 
HETATM   14  C   UNL     1     -46.893  57.749 -60.138  1.00  0.00     0.002 A 
ENDROOT
BRANCH  12  15
HETATM   15  C   UNL     1     -43.030  62.976 -56.534  1.00  0.00     0.140 C 
BRANCH  15  16
HETATM   16  C   UNL     1     -42.417  62.935 -57.924  1.00  0.00     0.220 C 
HETATM   17  N   UNL     1     -41.682  61.863 -58.314  1.00  0.00    -0.357 N 
HETATM   18  H   UNL     1     -41.354  61.914 -59.272  1.00  0.00     0.162 HD
HETATM   19  O   UNL     1     -42.559  63.863 -58.725  1.00  0.00    -0.274 OA
BRANCH  17  20
HETATM   20  C   UNL     1     -41.508  60.600 -57.626  1.00  0.00     0.161 C 
BRANCH  20  21
HETATM   21  C   UNL     1     -42.032  59.453 -58.453  1.00  0.00    -0.038 A 
HETATM   22  C   UNL     1     -42.348  58.229 -57.841  1.00  0.00     0.048 A 
HETATM   23  C   UNL     1     -42.837  57.211 -58.635  1.00  0.00     0.105 A 
HETATM   24  C   UNL     1     -43.024  57.370 -59.986  1.00  0.00     0.105 A 
HETATM   25  O   UNL     1     -43.187  55.969 -58.206  1.00  0.00    -0.323 OA
HETATM   26  O   UNL     1     -43.518  56.249 -60.578  1.00  0.00    -0.323 OA
HETATM   27  C   UNL     1     -42.729  58.555 -60.624  1.00  0.00     0.040 A 
HETATM   28  C   UNL     1     -43.609  55.362 -59.444  1.00  0.00     0.352 A 
HETATM   29  C   UNL     1     -42.223  59.603 -59.848  1.00  0.00     0.012 A 
ENDBRANCH  20  21
ENDBRANCH  17  20
ENDBRANCH  15  16
ENDBRANCH  12  15
BRANCH   6  30
HETATM   30  S   UNL     1     -44.761  58.382 -54.280  1.00  0.00    -0.082 SA
BRANCH  30  31
HETATM   31  C   UNL     1     -44.603  56.605 -54.665  1.00  0.00     0.185 C 
BRANCH  31  32
HETATM   32  C   UNL     1     -43.210  56.059 -54.343  1.00  0.00     0.232 C 
HETATM   33  N   UNL     1     -43.241  54.787 -53.783  1.00  0.00    -0.324 N 
HETATM   34  H   UNL     1     -44.162  54.360 -53.662  1.00  0.00     0.169 HD
HETATM   35  O   UNL     1     -42.217  56.740 -54.568  1.00  0.00    -0.272 OA
BRANCH  33  36
HETATM   36  C   UNL     1     -42.165  53.993 -53.309  1.00  0.00     0.073 A 
HETATM   37  C   UNL     1     -41.657  53.959 -52.007  1.00  0.00     0.143 A 
HETATM   38  F   UNL     1     -42.127  54.741 -51.029  1.00  0.00    -0.204 F 
HETATM   39  C   UNL     1     -40.587  53.124 -51.669  1.00  0.00     0.044 A 
HETATM   40  C   UNL     1     -39.999  52.304 -52.628  1.00  0.00     0.003 A 
HETATM   41  C   UNL     1     -40.484  52.323 -53.930  1.00  0.00     0.002 A 
HETATM   42  C   UNL     1     -41.553  53.161 -54.266  1.00  0.00     0.033 A 
ENDBRANCH  33  36
ENDBRANCH  31  32
ENDBRANCH  30  31
ENDBRANCH   6  30
TORSDOF 8
ENDMDL
