MODEL 1
REMARK VINA RESULT:      -9.2      0.000      0.000
REMARK  1 active torsions:
REMARK  status: ('A' for Active; 'I' for Inactive)
REMARK    1  A    between atoms: C_8  and  C_9 
ROOT
HETATM    1  C   UNL     1     -39.612  58.693 -50.805  1.00  0.00     0.073 C 
HETATM    2  C   UNL     1     -40.496  58.669 -52.001  1.00  0.00     0.062 C 
HETATM    3  N   UNL     1     -40.129  59.342 -53.095  1.00  0.00    -0.178 NA
HETATM    4  N   UNL     1     -41.093  59.068 -53.977  1.00  0.00    -0.262 N 
HETATM    5  H   UNL     1     -41.016  59.468 -54.905  1.00  0.00     0.191 HD
HETATM    6  C   UNL     1     -42.136  58.355 -53.450  1.00  0.00     0.134 C 
HETATM    7  C   UNL     1     -41.742  57.975 -52.183  1.00  0.00     0.032 C 
HETATM    8  C   UNL     1     -42.352  57.029 -51.195  1.00  0.00     0.119 C 
HETATM    9  S   UNL     1     -44.135  56.685 -51.214  1.00  0.00    -0.141 SA
HETATM   10  C   UNL     1     -44.838  58.009 -52.228  1.00  0.00     0.136 C 
HETATM   11  C   UNL     1     -44.665  59.418 -51.674  1.00  0.00     0.031 C 
HETATM   12  C   UNL     1     -44.507  57.853 -53.707  1.00  0.00     0.236 C 
HETATM   13  O   UNL     1     -45.388  57.566 -54.526  1.00  0.00    -0.272 OA
HETATM   14  N   UNL     1     -43.264  58.131 -54.194  1.00  0.00    -0.311 N 
HETATM   15  H   UNL     1     -43.238  58.224 -55.204  1.00  0.00     0.170 HD
ENDROOT
BRANCH   8  16
HETATM   16  C   UNL     1     -41.578  55.723 -51.372  1.00  0.00    -0.039 A 
HETATM   17  C   UNL     1     -41.596  55.009 -52.588  1.00  0.00     0.021 A 
HETATM   18  C   UNL     1     -40.900  53.801 -52.749  1.00  0.00    -0.025 A 
HETATM   19  C   UNL     1     -40.156  53.285 -51.667  1.00  0.00    -0.026 A 
HETATM   20  C   UNL     1     -40.934  53.094 -53.963  1.00  0.00     0.012 A 
HETATM   21  C   UNL     1     -40.136  53.988 -50.453  1.00  0.00     0.013 A 
HETATM   22  C   UNL     1     -39.460  52.075 -51.830  1.00  0.00     0.012 A 
HETATM   23  C   UNL     1     -40.841  55.188 -50.305  1.00  0.00     0.009 A 
HETATM   24  C   UNL     1     -39.504  51.384 -53.042  1.00  0.00     0.001 A 
HETATM   25  C   UNL     1     -40.241  51.892 -54.107  1.00  0.00     0.001 A 
ENDBRANCH   8  16
TORSDOF 1
ENDMDL
MODEL 2
REMARK VINA RESULT:      -8.8      2.305      3.243
REMARK  1 active torsions:
REMARK  status: ('A' for Active; 'I' for Inactive)
REMARK    1  A    between atoms: C_8  and  C_9 
ROOT
HETATM    1  C   UNL     1     -40.782  54.556 -55.487  1.00  0.00     0.073 C 
HETATM    2  C   UNL     1     -42.040  54.926 -54.787  1.00  0.00     0.062 C 
HETATM    3  N   UNL     1     -43.211  54.693 -55.388  1.00  0.00    -0.178 NA
HETATM    4  N   UNL     1     -44.116  55.080 -54.485  1.00  0.00    -0.262 N 
HETATM    5  H   UNL     1     -45.096  54.980 -54.721  1.00  0.00     0.191 HD
HETATM    6  C   UNL     1     -43.572  55.678 -53.380  1.00  0.00     0.134 C 
HETATM    7  C   UNL     1     -42.205  55.504 -53.481  1.00  0.00     0.032 C 
HETATM    8  C   UNL     1     -41.097  55.757 -52.506  1.00  0.00     0.119 C 
HETATM    9  S   UNL     1     -41.279  56.996 -51.191  1.00  0.00    -0.141 SA
HETATM   10  C   UNL     1     -42.702  57.990 -51.703  1.00  0.00     0.136 C 
HETATM   11  C   UNL     1     -42.530  58.754 -53.011  1.00  0.00     0.031 C 
HETATM   12  C   UNL     1     -44.021  57.239 -51.564  1.00  0.00     0.236 C 
HETATM   13  O   UNL     1     -44.850  57.570 -50.708  1.00  0.00    -0.272 OA
HETATM   14  N   UNL     1     -44.382  56.260 -52.442  1.00  0.00    -0.311 N 
HETATM   15  H   UNL     1     -45.364  56.015 -52.390  1.00  0.00     0.170 HD
ENDROOT
BRANCH   8  16
HETATM   16  C   UNL     1     -40.803  54.392 -51.884  1.00  0.00    -0.039 A 
HETATM   17  C   UNL     1     -40.395  53.293 -52.668  1.00  0.00     0.021 A 
HETATM   18  C   UNL     1     -40.141  52.033 -52.102  1.00  0.00    -0.025 A 
HETATM   19  C   UNL     1     -40.292  51.860 -50.710  1.00  0.00    -0.026 A 
HETATM   20  C   UNL     1     -39.745  50.943 -52.895  1.00  0.00     0.012 A 
HETATM   21  C   UNL     1     -40.700  52.949 -49.925  1.00  0.00     0.013 A 
HETATM   22  C   UNL     1     -40.037  50.598 -50.146  1.00  0.00     0.012 A 
HETATM   23  C   UNL     1     -40.957  54.196 -50.503  1.00  0.00     0.009 A 
HETATM   24  C   UNL     1     -39.644  49.524 -50.947  1.00  0.00     0.001 A 
HETATM   25  C   UNL     1     -39.500  49.696 -52.319  1.00  0.00     0.001 A 
ENDBRANCH   8  16
TORSDOF 1
ENDMDL
MODEL 3
REMARK VINA RESULT:      -8.4      2.294      3.699
REMARK  1 active torsions:
REMARK  status: ('A' for Active; 'I' for Inactive)
REMARK    1  A    between atoms: C_8  and  C_9 
ROOT
HETATM    1  C   UNL     1     -43.635  56.332 -56.268  1.00  0.00     0.073 C 
HETATM    2  C   UNL     1     -43.851  56.820 -54.880  1.00  0.00     0.062 C 
HETATM    3  N   UNL     1     -45.090  56.832 -54.380  1.00  0.00    -0.178 NA
HETATM    4  N   UNL     1     -44.925  57.262 -53.127  1.00  0.00    -0.262 N 
HETATM    5  H   UNL     1     -45.745  57.338 -52.539  1.00  0.00     0.191 HD
HETATM    6  C   UNL     1     -43.644  57.655 -52.843  1.00  0.00     0.134 C 
HETATM    7  C   UNL     1     -42.877  57.283 -53.930  1.00  0.00     0.032 C 
HETATM    8  C   UNL     1     -41.394  57.263 -54.137  1.00  0.00     0.119 C 
HETATM    9  S   UNL     1     -40.307  58.377 -53.202  1.00  0.00    -0.141 SA
HETATM   10  C   UNL     1     -41.424  59.625 -52.517  1.00  0.00     0.136 C 
HETATM   11  C   UNL     1     -42.157  60.480 -53.543  1.00  0.00     0.031 C 
HETATM   12  C   UNL     1     -42.297  59.077 -51.394  1.00  0.00     0.236 C 
HETATM   13  O   UNL     1     -42.128  59.443 -50.225  1.00  0.00    -0.272 OA
HETATM   14  N   UNL     1     -43.357  58.258 -51.647  1.00  0.00    -0.311 N 
HETATM   15  H   UNL     1     -43.990  58.163 -50.861  1.00  0.00     0.170 HD
ENDROOT
BRANCH   8  16
HETATM   16  C   UNL     1     -40.982  55.813 -53.881  1.00  0.00    -0.039 A 
HETATM   17  C   UNL     1     -40.968  55.265 -52.582  1.00  0.00     0.021 A 
HETATM   18  C   UNL     1     -40.574  53.939 -52.341  1.00  0.00    -0.025 A 
HETATM   19  C   UNL     1     -40.184  53.128 -53.428  1.00  0.00    -0.026 A 
HETATM   20  C   UNL     1     -40.554  53.407 -51.041  1.00  0.00     0.012 A 
HETATM   21  C   UNL     1     -40.193  53.667 -54.723  1.00  0.00     0.013 A 
HETATM   22  C   UNL     1     -39.790  51.801 -53.185  1.00  0.00     0.012 A 
HETATM   23  C   UNL     1     -40.581  54.993 -54.947  1.00  0.00     0.009 A 
HETATM   24  C   UNL     1     -39.776  51.286 -51.886  1.00  0.00     0.001 A 
HETATM   25  C   UNL     1     -40.156  52.090 -50.816  1.00  0.00     0.001 A 
ENDBRANCH   8  16
TORSDOF 1
ENDMDL
MODEL 4
REMARK VINA RESULT:      -8.3      1.485      2.259
REMARK  1 active torsions:
REMARK  status: ('A' for Active; 'I' for Inactive)
REMARK    1  A    between atoms: C_8  and  C_9 
ROOT
HETATM    1  C   UNL     1     -41.024  57.176 -50.367  1.00  0.00     0.073 C 
HETATM    2  C   UNL     1     -41.027  57.862 -51.686  1.00  0.00     0.062 C 
HETATM    3  N   UNL     1     -40.123  58.817 -51.924  1.00  0.00    -0.178 NA
HETATM    4  N   UNL     1     -40.361  59.173 -53.189  1.00  0.00    -0.262 N 
HETATM    5  H   UNL     1     -39.774  59.889 -53.600  1.00  0.00     0.191 HD
HETATM    6  C   UNL     1     -41.469  58.579 -53.730  1.00  0.00     0.134 C 
HETATM    7  C   UNL     1     -41.880  57.627 -52.819  1.00  0.00     0.032 C 
HETATM    8  C   UNL     1     -42.900  56.535 -52.916  1.00  0.00     0.119 C 
HETATM    9  S   UNL     1     -44.302  56.669 -54.062  1.00  0.00    -0.141 SA
HETATM   10  C   UNL     1     -44.346  58.420 -54.517  1.00  0.00     0.136 C 
HETATM   11  C   UNL     1     -44.616  59.387 -53.371  1.00  0.00     0.031 C 
HETATM   12  C   UNL     1     -43.195  58.814 -55.435  1.00  0.00     0.236 C 
HETATM   13  O   UNL     1     -43.402  59.113 -56.617  1.00  0.00    -0.272 OA
HETATM   14  N   UNL     1     -41.923  58.962 -54.964  1.00  0.00    -0.311 N 
HETATM   15  H   UNL     1     -41.311  59.454 -55.605  1.00  0.00     0.170 HD
ENDROOT
BRANCH   8  16
HETATM   16  C   UNL     1     -42.096  55.274 -53.237  1.00  0.00    -0.039 A 
HETATM   17  C   UNL     1     -41.586  54.441 -52.221  1.00  0.00     0.021 A 
HETATM   18  C   UNL     1     -40.832  53.293 -52.513  1.00  0.00    -0.025 A 
HETATM   19  C   UNL     1     -40.581  52.958 -53.860  1.00  0.00    -0.026 A 
HETATM   20  C   UNL     1     -40.321  52.476 -51.491  1.00  0.00     0.012 A 
HETATM   21  C   UNL     1     -41.084  53.784 -54.877  1.00  0.00     0.013 A 
HETATM   22  C   UNL     1     -39.826  51.808 -54.150  1.00  0.00     0.012 A 
HETATM   23  C   UNL     1     -41.826  54.930 -54.571  1.00  0.00     0.009 A 
HETATM   24  C   UNL     1     -39.324  51.005 -53.123  1.00  0.00     0.001 A 
HETATM   25  C   UNL     1     -39.570  51.340 -51.796  1.00  0.00     0.001 A 
ENDBRANCH   8  16
TORSDOF 1
ENDMDL
MODEL 5
REMARK VINA RESULT:      -7.5      2.319      3.358
REMARK  1 active torsions:
REMARK  status: ('A' for Active; 'I' for Inactive)
REMARK    1  A    between atoms: C_8  and  C_9 
ROOT
HETATM    1  C   UNL     1     -42.792  57.462 -56.803  1.00  0.00     0.073 C 
HETATM    2  C   UNL     1     -43.643  57.892 -55.662  1.00  0.00     0.062 C 
HETATM    3  N   UNL     1     -44.972  57.832 -55.784  1.00  0.00    -0.178 NA
HETATM    4  N   UNL     1     -45.420  58.225 -54.589  1.00  0.00    -0.262 N 
HETATM    5  H   UNL     1     -46.422  58.245 -54.440  1.00  0.00     0.191 HD
HETATM    6  C   UNL     1     -44.434  58.665 -53.747  1.00  0.00     0.134 C 
HETATM    7  C   UNL     1     -43.236  58.364 -54.367  1.00  0.00     0.032 C 
HETATM    8  C   UNL     1     -41.823  58.417 -53.875  1.00  0.00     0.119 C 
HETATM    9  S   UNL     1     -41.345  59.546 -52.535  1.00  0.00    -0.141 SA
HETATM   10  C   UNL     1     -42.718  60.719 -52.423  1.00  0.00     0.136 C 
HETATM   11  C   UNL     1     -42.949  61.575 -53.662  1.00  0.00     0.031 C 
HETATM   12  C   UNL     1     -43.975  60.094 -51.828  1.00  0.00     0.236 C 
HETATM   13  O   UNL     1     -44.377  60.428 -50.708  1.00  0.00    -0.272 OA
HETATM   14  N   UNL     1     -44.756  59.239 -52.547  1.00  0.00    -0.311 N 
HETATM   15  H   UNL     1     -45.672  59.089 -52.137  1.00  0.00     0.170 HD
ENDROOT
BRANCH   8  16
HETATM   16  C   UNL     1     -41.494  56.979 -53.473  1.00  0.00    -0.039 A 
HETATM   17  C   UNL     1     -40.989  56.047 -54.403  1.00  0.00     0.021 A 
HETATM   18  C   UNL     1     -40.702  54.721 -54.041  1.00  0.00    -0.025 A 
HETATM   19  C   UNL     1     -40.919  54.307 -52.710  1.00  0.00    -0.026 A 
HETATM   20  C   UNL     1     -40.209  53.799 -54.979  1.00  0.00     0.012 A 
HETATM   21  C   UNL     1     -41.424  55.229 -51.780  1.00  0.00     0.013 A 
HETATM   22  C   UNL     1     -40.632  52.979 -52.350  1.00  0.00     0.012 A 
HETATM   23  C   UNL     1     -41.713  56.545 -52.157  1.00  0.00     0.009 A 
HETATM   24  C   UNL     1     -40.142  52.074 -53.294  1.00  0.00     0.001 A 
HETATM   25  C   UNL     1     -39.932  52.483 -54.607  1.00  0.00     0.001 A 
ENDBRANCH   8  16
TORSDOF 1
ENDMDL
MODEL 6
REMARK VINA RESULT:      -7.2     16.652     18.672
REMARK  1 active torsions:
REMARK  status: ('A' for Active; 'I' for Inactive)
REMARK    1  A    between atoms: C_8  and  C_9 
ROOT
HETATM    1  C   UNL     1     -37.111  40.448 -51.503  1.00  0.00     0.073 C 
HETATM    2  C   UNL     1     -36.215  41.010 -52.548  1.00  0.00     0.062 C 
HETATM    3  N   UNL     1     -36.361  42.287 -52.912  1.00  0.00    -0.178 NA
HETATM    4  N   UNL     1     -35.386  42.478 -53.804  1.00  0.00    -0.262 N 
HETATM    5  H   UNL     1     -35.292  43.400 -54.215  1.00  0.00     0.191 HD
HETATM    6  C   UNL     1     -34.702  41.337 -54.127  1.00  0.00     0.134 C 
HETATM    7  C   UNL     1     -35.138  40.365 -53.248  1.00  0.00     0.032 C 
HETATM    8  C   UNL     1     -34.636  38.982 -52.970  1.00  0.00     0.119 C 
HETATM    9  S   UNL     1     -33.734  38.045 -54.238  1.00  0.00    -0.141 SA
HETATM   10  C   UNL     1     -34.077  38.930 -55.779  1.00  0.00     0.136 C 
HETATM   11  C   UNL     1     -35.539  38.958 -56.206  1.00  0.00     0.031 C 
HETATM   12  C   UNL     1     -33.357  40.271 -55.856  1.00  0.00     0.236 C 
HETATM   13  O   UNL     1     -32.429  40.446 -56.655  1.00  0.00    -0.272 OA
HETATM   14  N   UNL     1     -33.777  41.350 -55.137  1.00  0.00    -0.311 N 
HETATM   15  H   UNL     1     -33.377  42.227 -55.454  1.00  0.00     0.170 HD
ENDROOT
BRANCH   8  16
HETATM   16  C   UNL     1     -33.763  39.124 -51.723  1.00  0.00    -0.039 A 
HETATM   17  C   UNL     1     -34.093  38.484 -50.510  1.00  0.00     0.021 A 
HETATM   18  C   UNL     1     -33.303  38.628 -49.358  1.00  0.00    -0.025 A 
HETATM   19  C   UNL     1     -32.144  39.429 -49.413  1.00  0.00    -0.026 A 
HETATM   20  C   UNL     1     -33.647  37.993 -48.153  1.00  0.00     0.012 A 
HETATM   21  C   UNL     1     -31.811  40.071 -50.616  1.00  0.00     0.013 A 
HETATM   22  C   UNL     1     -31.354  39.572 -48.259  1.00  0.00     0.012 A 
HETATM   23  C   UNL     1     -32.612  39.926 -51.754  1.00  0.00     0.009 A 
HETATM   24  C   UNL     1     -31.709  38.934 -47.068  1.00  0.00     0.001 A 
HETATM   25  C   UNL     1     -32.855  38.147 -47.016  1.00  0.00     0.001 A 
ENDBRANCH   8  16
TORSDOF 1
ENDMDL
MODEL 7
REMARK VINA RESULT:      -7.2     16.244     18.187
REMARK  1 active torsions:
REMARK  status: ('A' for Active; 'I' for Inactive)
REMARK    1  A    between atoms: C_8  and  C_9 
ROOT
HETATM    1  C   UNL     1     -33.920  37.366 -55.881  1.00  0.00     0.073 C 
HETATM    2  C   UNL     1     -33.479  38.470 -54.987  1.00  0.00     0.062 C 
HETATM    3  N   UNL     1     -32.174  38.736 -54.878  1.00  0.00    -0.178 NA
HETATM    4  N   UNL     1     -32.132  39.793 -54.063  1.00  0.00    -0.262 N 
HETATM    5  H   UNL     1     -31.225  40.187 -53.844  1.00  0.00     0.191 HD
HETATM    6  C   UNL     1     -33.349  40.134 -53.537  1.00  0.00     0.134 C 
HETATM    7  C   UNL     1     -34.284  39.361 -54.198  1.00  0.00     0.032 C 
HETATM    8  C   UNL     1     -35.781  39.409 -54.209  1.00  0.00     0.119 C 
HETATM    9  S   UNL     1     -36.702  40.094 -52.802  1.00  0.00    -0.141 SA
HETATM   10  C   UNL     1     -35.492  40.153 -51.458  1.00  0.00     0.136 C 
HETATM   11  C   UNL     1     -34.942  38.803 -51.013  1.00  0.00     0.031 C 
HETATM   12  C   UNL     1     -34.443  41.240 -51.662  1.00  0.00     0.236 C 
HETATM   13  O   UNL     1     -34.417  42.239 -50.934  1.00  0.00    -0.272 OA
HETATM   14  N   UNL     1     -33.436  41.100 -52.570  1.00  0.00    -0.311 N 
HETATM   15  H   UNL     1     -32.681  41.764 -52.441  1.00  0.00     0.170 HD
ENDROOT
BRANCH   8  16
HETATM   16  C   UNL     1     -36.139  40.181 -55.479  1.00  0.00    -0.039 A 
HETATM   17  C   UNL     1     -36.535  39.522 -56.661  1.00  0.00     0.021 A 
HETATM   18  C   UNL     1     -36.848  40.228 -57.834  1.00  0.00    -0.025 A 
HETATM   19  C   UNL     1     -36.769  41.636 -57.832  1.00  0.00    -0.026 A 
HETATM   20  C   UNL     1     -37.232  39.559 -59.008  1.00  0.00     0.012 A 
HETATM   21  C   UNL     1     -36.373  42.299 -56.660  1.00  0.00     0.013 A 
HETATM   22  C   UNL     1     -37.082  42.341 -59.007  1.00  0.00     0.012 A 
HETATM   23  C   UNL     1     -36.056  41.582 -55.501  1.00  0.00     0.009 A 
HETATM   24  C   UNL     1     -37.463  41.662 -60.167  1.00  0.00     0.001 A 
HETATM   25  C   UNL     1     -37.536  40.273 -60.167  1.00  0.00     0.001 A 
ENDBRANCH   8  16
TORSDOF 1
ENDMDL
MODEL 8
REMARK VINA RESULT:      -7.1     16.447     18.291
REMARK  1 active torsions:
REMARK  status: ('A' for Active; 'I' for Inactive)
REMARK    1  A    between atoms: C_8  and  C_9 
ROOT
HETATM    1  C   UNL     1     -32.887  38.309 -57.762  1.00  0.00     0.073 C 
HETATM    2  C   UNL     1     -34.316  38.382 -57.359  1.00  0.00     0.062 C 
HETATM    3  N   UNL     1     -35.079  37.290 -57.467  1.00  0.00    -0.178 NA
HETATM    4  N   UNL     1     -36.260  37.675 -56.979  1.00  0.00    -0.262 N 
HETATM    5  H   UNL     1     -37.007  36.992 -56.947  1.00  0.00     0.191 HD
HETATM    6  C   UNL     1     -36.326  39.011 -56.685  1.00  0.00     0.134 C 
HETATM    7  C   UNL     1     -35.040  39.498 -56.816  1.00  0.00     0.032 C 
HETATM    8  C   UNL     1     -34.437  40.819 -56.449  1.00  0.00     0.119 C 
HETATM    9  S   UNL     1     -35.460  42.317 -56.357  1.00  0.00    -0.141 SA
HETATM   10  C   UNL     1     -36.986  41.873 -57.222  1.00  0.00     0.136 C 
HETATM   11  C   UNL     1     -36.827  41.536 -58.699  1.00  0.00     0.031 C 
HETATM   12  C   UNL     1     -37.847  40.897 -56.428  1.00  0.00     0.236 C 
HETATM   13  O   UNL     1     -38.927  41.256 -55.942  1.00  0.00    -0.272 OA
HETATM   14  N   UNL     1     -37.518  39.579 -56.320  1.00  0.00    -0.311 N 
HETATM   15  H   UNL     1     -38.279  38.999 -55.983  1.00  0.00     0.170 HD
ENDROOT
BRANCH   8  16
HETATM   16  C   UNL     1     -33.760  40.579 -55.099  1.00  0.00    -0.039 A 
HETATM   17  C   UNL     1     -34.466  40.700 -53.884  1.00  0.00     0.021 A 
HETATM   18  C   UNL     1     -33.842  40.498 -52.642  1.00  0.00    -0.025 A 
HETATM   19  C   UNL     1     -32.474  40.158 -52.605  1.00  0.00    -0.026 A 
HETATM   20  C   UNL     1     -34.553  40.631 -51.438  1.00  0.00     0.012 A 
HETATM   21  C   UNL     1     -31.765  40.038 -53.811  1.00  0.00     0.013 A 
HETATM   22  C   UNL     1     -31.852  39.955 -51.361  1.00  0.00     0.012 A 
HETATM   23  C   UNL     1     -32.397  40.251 -55.040  1.00  0.00     0.009 A 
HETATM   24  C   UNL     1     -32.572  40.092 -50.172  1.00  0.00     0.001 A 
HETATM   25  C   UNL     1     -33.920  40.430 -50.211  1.00  0.00     0.001 A 
ENDBRANCH   8  16
TORSDOF 1
ENDMDL
MODEL 9
REMARK VINA RESULT:      -7.1      3.930      5.513
REMARK  1 active torsions:
REMARK  status: ('A' for Active; 'I' for Inactive)
REMARK    1  A    between atoms: C_8  and  C_9 
ROOT
HETATM    1  C   UNL     1     -43.171  55.938 -59.470  1.00  0.00     0.073 C 
HETATM    2  C   UNL     1     -44.294  56.705 -58.869  1.00  0.00     0.062 C 
HETATM    3  N   UNL     1     -45.541  56.467 -59.286  1.00  0.00    -0.178 NA
HETATM    4  N   UNL     1     -46.291  57.263 -58.520  1.00  0.00    -0.262 N 
HETATM    5  H   UNL     1     -47.295  57.240 -58.651  1.00  0.00     0.191 HD
HETATM    6  C   UNL     1     -45.564  58.103 -57.720  1.00  0.00     0.134 C 
HETATM    7  C   UNL     1     -44.248  57.700 -57.833  1.00  0.00     0.032 C 
HETATM    8  C   UNL     1     -43.021  58.091 -57.068  1.00  0.00     0.119 C 
HETATM    9  S   UNL     1     -42.910  59.708 -56.249  1.00  0.00    -0.141 SA
HETATM   10  C   UNL     1     -44.245  60.680 -56.989  1.00  0.00     0.136 C 
HETATM   11  C   UNL     1     -44.118  60.932 -58.486  1.00  0.00     0.031 C 
HETATM   12  C   UNL     1     -45.624  60.226 -56.526  1.00  0.00     0.236 C 
HETATM   13  O   UNL     1     -46.312  60.943 -55.789  1.00  0.00    -0.272 OA
HETATM   14  N   UNL     1     -46.193  59.079 -56.993  1.00  0.00    -0.311 N 
HETATM   15  H   UNL     1     -47.188  59.016 -56.804  1.00  0.00     0.170 HD
ENDROOT
BRANCH   8  16
HETATM   16  C   UNL     1     -42.834  56.980 -56.034  1.00  0.00    -0.039 A 
HETATM   17  C   UNL     1     -41.744  56.088 -56.094  1.00  0.00     0.021 A 
HETATM   18  C   UNL     1     -41.578  55.056 -55.156  1.00  0.00    -0.025 A 
HETATM   19  C   UNL     1     -42.524  54.909 -54.120  1.00  0.00    -0.026 A 
HETATM   20  C   UNL     1     -40.493  54.167 -55.232  1.00  0.00     0.012 A 
HETATM   21  C   UNL     1     -43.613  55.792 -54.056  1.00  0.00     0.013 A 
HETATM   22  C   UNL     1     -42.357  53.875 -53.182  1.00  0.00     0.012 A 
HETATM   23  C   UNL     1     -43.770  56.810 -55.002  1.00  0.00     0.009 A 
HETATM   24  C   UNL     1     -41.273  52.999 -53.271  1.00  0.00     0.001 A 
HETATM   25  C   UNL     1     -40.344  53.144 -54.296  1.00  0.00     0.001 A 
ENDBRANCH   8  16
TORSDOF 1
ENDMDL
MODEL 10
REMARK VINA RESULT:      -6.9     15.787     18.295
REMARK  1 active torsions:
REMARK  status: ('A' for Active; 'I' for Inactive)
REMARK    1  A    between atoms: C_8  and  C_9 
ROOT
HETATM    1  C   UNL     1     -34.144  39.590 -50.170  1.00  0.00     0.073 C 
HETATM    2  C   UNL     1     -34.426  40.674 -51.148  1.00  0.00     0.062 C 
HETATM    3  N   UNL     1     -34.189  41.942 -50.798  1.00  0.00    -0.178 NA
HETATM    4  N   UNL     1     -34.488  42.637 -51.898  1.00  0.00    -0.262 N 
HETATM    5  H   UNL     1     -34.368  43.643 -51.872  1.00  0.00     0.191 HD
HETATM    6  C   UNL     1     -35.037  41.880 -52.898  1.00  0.00     0.134 C 
HETATM    7  C   UNL     1     -34.917  40.564 -52.494  1.00  0.00     0.032 C 
HETATM    8  C   UNL     1     -35.150  39.277 -53.223  1.00  0.00     0.119 C 
HETATM    9  S   UNL     1     -36.300  39.196 -54.626  1.00  0.00    -0.141 SA
HETATM   10  C   UNL     1     -37.272  40.716 -54.500  1.00  0.00     0.136 C 
HETATM   11  C   UNL     1     -38.119  40.848 -53.240  1.00  0.00     0.031 C 
HETATM   12  C   UNL     1     -36.468  41.958 -54.868  1.00  0.00     0.236 C 
HETATM   13  O   UNL     1     -36.716  42.588 -55.903  1.00  0.00    -0.272 OA
HETATM   14  N   UNL     1     -35.532  42.479 -54.025  1.00  0.00    -0.311 N 
HETATM   15  H   UNL     1     -35.249  43.422 -54.270  1.00  0.00     0.170 HD
ENDROOT
BRANCH   8  16
HETATM   16  C   UNL     1     -33.760  38.826 -53.674  1.00  0.00    -0.039 A 
HETATM   17  C   UNL     1     -33.081  39.464 -54.732  1.00  0.00     0.021 A 
HETATM   18  C   UNL     1     -31.812  39.041 -55.160  1.00  0.00    -0.025 A 
HETATM   19  C   UNL     1     -31.195  37.950 -54.513  1.00  0.00    -0.026 A 
HETATM   20  C   UNL     1     -31.149  39.680 -56.221  1.00  0.00     0.012 A 
HETATM   21  C   UNL     1     -31.867  37.309 -53.461  1.00  0.00     0.013 A 
HETATM   22  C   UNL     1     -29.925  37.529 -54.943  1.00  0.00     0.012 A 
HETATM   23  C   UNL     1     -33.134  37.736 -53.051  1.00  0.00     0.009 A 
HETATM   24  C   UNL     1     -29.279  38.173 -56.000  1.00  0.00     0.001 A 
HETATM   25  C   UNL     1     -29.891  39.246 -56.639  1.00  0.00     0.001 A 
ENDBRANCH   8  16
TORSDOF 1
ENDMDL
