MODEL 1
REMARK VINA RESULT:      -7.4      0.000      0.000
REMARK  3 active torsions:
REMARK  status: ('A' for Active; 'I' for Inactive)
REMARK       I    between atoms: C_2  and  N_3 
REMARK    1  A    between atoms: N_3  and  C_4 
REMARK    2  A    between atoms: C_7  and  N_8 
REMARK       I    between atoms: N_8  and  C_9 
REMARK    3  A    between atoms: C_9  and  C_10 
ROOT
HETATM    1  C   UNL     1     -43.934  59.079 -51.326  1.00  0.00     0.052 A 
HETATM    2  C   UNL     1     -44.534  57.906 -51.765  1.00  0.00     0.148 A 
HETATM    3  N   UNL     1     -43.853  56.779 -52.106  1.00  0.00    -0.241 NA
HETATM    4  C   UNL     1     -42.508  56.808 -52.013  1.00  0.00     0.130 A 
HETATM    5  C   UNL     1     -41.819  57.936 -51.598  1.00  0.00     0.053 A 
HETATM    6  C   UNL     1     -42.542  59.080 -51.250  1.00  0.00     0.035 A 
ENDROOT
BRANCH   4   7
HETATM    7  N   UNL     1     -41.908  55.600 -52.368  1.00  0.00    -0.307 N 
HETATM    8  C   UNL     1     -41.158  54.760 -51.581  1.00  0.00     0.257 C 
HETATM    9  O   UNL     1     -40.886  54.930 -50.398  1.00  0.00    -0.267 OA
HETATM   10  H   UNL     1     -42.151  55.339 -53.313  1.00  0.00     0.170 HD
BRANCH   8  11
HETATM   11  C   UNL     1     -40.666  53.518 -52.250  1.00  0.00     0.032 A 
HETATM   12  C   UNL     1     -41.012  53.310 -53.595  1.00  0.00     0.018 A 
HETATM   13  C   UNL     1     -40.574  52.168 -54.271  1.00  0.00     0.025 A 
HETATM   14  C   UNL     1     -39.795  51.226 -53.602  1.00  0.00     0.034 A 
HETATM   15 CL   UNL     1     -39.253  49.821 -54.433  1.00  0.00    -0.084 Cl
HETATM   16  C   UNL     1     -39.459  51.411 -52.262  1.00  0.00     0.025 A 
HETATM   17  C   UNL     1     -39.898  52.553 -51.581  1.00  0.00     0.018 A 
ENDBRANCH   8  11
ENDBRANCH   4   7
BRANCH   1  18
HETATM   18  N   UNL     1     -44.614  60.255 -50.949  1.00  0.00    -0.326 N 
HETATM   19  C   UNL     1     -45.580  60.369 -49.968  1.00  0.00     0.218 C 
HETATM   20  C   UNL     1     -46.066  61.787 -49.810  1.00  0.00     0.117 C 
HETATM   21  O   UNL     1     -46.021  59.462 -49.270  1.00  0.00    -0.274 OA
HETATM   22  H   UNL     1     -44.358  61.101 -51.442  1.00  0.00     0.169 HD
ENDBRANCH   1  18
TORSDOF 3
ENDMDL
MODEL 2
REMARK VINA RESULT:      -7.2      1.659      2.050
REMARK  3 active torsions:
REMARK  status: ('A' for Active; 'I' for Inactive)
REMARK       I    between atoms: C_2  and  N_3 
REMARK    1  A    between atoms: N_3  and  C_4 
REMARK    2  A    between atoms: C_7  and  N_8 
REMARK       I    between atoms: N_8  and  C_9 
REMARK    3  A    between atoms: C_9  and  C_10 
ROOT
HETATM    1  C   UNL     1     -42.430  59.654 -50.707  1.00  0.00     0.052 A 
HETATM    2  C   UNL     1     -43.218  58.729 -51.381  1.00  0.00     0.148 A 
HETATM    3  N   UNL     1     -42.772  57.523 -51.823  1.00  0.00    -0.241 NA
HETATM    4  C   UNL     1     -41.480  57.210 -51.595  1.00  0.00     0.130 A 
HETATM    5  C   UNL     1     -40.614  58.073 -50.943  1.00  0.00     0.053 A 
HETATM    6  C   UNL     1     -41.097  59.305 -50.495  1.00  0.00     0.035 A 
ENDROOT
BRANCH   4   7
HETATM    7  N   UNL     1     -41.129  55.947 -52.072  1.00  0.00    -0.307 N 
HETATM    8  C   UNL     1     -40.993  54.778 -51.363  1.00  0.00     0.257 C 
HETATM    9  O   UNL     1     -41.170  54.640 -50.157  1.00  0.00    -0.267 OA
HETATM   10  H   UNL     1     -41.044  55.951 -53.078  1.00  0.00     0.170 HD
BRANCH   8  11
HETATM   11  C   UNL     1     -40.624  53.575 -52.168  1.00  0.00     0.032 A 
HETATM   12  C   UNL     1     -39.867  52.570 -51.545  1.00  0.00     0.018 A 
HETATM   13  C   UNL     1     -39.500  51.420 -52.249  1.00  0.00     0.025 A 
HETATM   14  C   UNL     1     -39.882  51.275 -53.581  1.00  0.00     0.034 A 
HETATM   15 CL   UNL     1     -39.433  49.859 -54.449  1.00  0.00    -0.084 Cl
HETATM   16  C   UNL     1     -40.619  52.272 -54.217  1.00  0.00     0.025 A 
HETATM   17  C   UNL     1     -40.987  53.426 -53.515  1.00  0.00     0.018 A 
ENDBRANCH   8  11
ENDBRANCH   4   7
BRANCH   1  18
HETATM   18  N   UNL     1     -42.868  60.902 -50.222  1.00  0.00    -0.326 N 
HETATM   19  C   UNL     1     -43.151  62.026 -50.975  1.00  0.00     0.218 C 
HETATM   20  C   UNL     1     -43.631  63.174 -50.124  1.00  0.00     0.117 C 
HETATM   21  O   UNL     1     -43.053  62.131 -52.192  1.00  0.00    -0.274 OA
HETATM   22  H   UNL     1     -42.998  60.976 -49.221  1.00  0.00     0.169 HD
ENDBRANCH   1  18
TORSDOF 3
ENDMDL
MODEL 3
REMARK VINA RESULT:      -7.0      4.769      5.555
REMARK  3 active torsions:
REMARK  status: ('A' for Active; 'I' for Inactive)
REMARK       I    between atoms: C_2  and  N_3 
REMARK    1  A    between atoms: N_3  and  C_4 
REMARK    2  A    between atoms: C_7  and  N_8 
REMARK       I    between atoms: N_8  and  C_9 
REMARK    3  A    between atoms: C_9  and  C_10 
ROOT
HETATM    1  C   UNL     1     -44.103  57.293 -57.736  1.00  0.00     0.052 A 
HETATM    2  C   UNL     1     -44.006  57.370 -56.352  1.00  0.00     0.148 A 
HETATM    3  N   UNL     1     -43.378  56.446 -55.577  1.00  0.00    -0.241 NA
HETATM    4  C   UNL     1     -42.818  55.386 -56.195  1.00  0.00     0.130 A 
HETATM    5  C   UNL     1     -42.874  55.216 -57.569  1.00  0.00     0.053 A 
HETATM    6  C   UNL     1     -43.522  56.182 -58.344  1.00  0.00     0.035 A 
ENDROOT
BRANCH   4   7
HETATM    7  N   UNL     1     -42.186  54.509 -55.314  1.00  0.00    -0.307 N 
HETATM    8  C   UNL     1     -40.967  54.654 -54.699  1.00  0.00     0.257 C 
HETATM    9  O   UNL     1     -40.208  55.610 -54.815  1.00  0.00    -0.267 OA
HETATM   10  H   UNL     1     -42.783  53.724 -55.095  1.00  0.00     0.170 HD
BRANCH   8  11
HETATM   11  C   UNL     1     -40.569  53.541 -53.784  1.00  0.00     0.032 A 
HETATM   12  C   UNL     1     -40.237  52.303 -54.356  1.00  0.00     0.018 A 
HETATM   13  C   UNL     1     -39.852  51.230 -53.548  1.00  0.00     0.025 A 
HETATM   14  C   UNL     1     -39.805  51.389 -52.165  1.00  0.00     0.034 A 
HETATM   15 CL   UNL     1     -39.329  50.070 -51.169  1.00  0.00    -0.084 Cl
HETATM   16  C   UNL     1     -40.149  52.608 -51.583  1.00  0.00     0.025 A 
HETATM   17  C   UNL     1     -40.537  53.684 -52.389  1.00  0.00     0.018 A 
ENDBRANCH   8  11
ENDBRANCH   4   7
BRANCH   1  18
HETATM   18  N   UNL     1     -44.731  58.244 -58.566  1.00  0.00    -0.326 N 
HETATM   19  C   UNL     1     -46.037  58.210 -59.016  1.00  0.00     0.218 C 
HETATM   20  C   UNL     1     -46.380  59.412 -59.858  1.00  0.00     0.117 C 
HETATM   21  O   UNL     1     -46.866  57.338 -58.782  1.00  0.00    -0.274 OA
HETATM   22  H   UNL     1     -44.167  59.035 -58.851  1.00  0.00     0.169 HD
ENDBRANCH   1  18
TORSDOF 3
ENDMDL
MODEL 4
REMARK VINA RESULT:      -7.0     16.263     18.378
REMARK  3 active torsions:
REMARK  status: ('A' for Active; 'I' for Inactive)
REMARK       I    between atoms: C_2  and  N_3 
REMARK    1  A    between atoms: N_3  and  C_4 
REMARK    2  A    between atoms: C_7  and  N_8 
REMARK       I    between atoms: N_8  and  C_9 
REMARK    3  A    between atoms: C_9  and  C_10 
ROOT
HETATM    1  C   UNL     1     -32.458  40.201 -49.881  1.00  0.00     0.052 A 
HETATM    2  C   UNL     1     -31.844  40.436 -51.106  1.00  0.00     0.148 A 
HETATM    3  N   UNL     1     -32.515  40.660 -52.267  1.00  0.00    -0.241 NA
HETATM    4  C   UNL     1     -33.863  40.650 -52.223  1.00  0.00     0.130 A 
HETATM    5  C   UNL     1     -34.564  40.413 -51.052  1.00  0.00     0.053 A 
HETATM    6  C   UNL     1     -33.851  40.188 -49.871  1.00  0.00     0.035 A 
ENDROOT
BRANCH   4   7
HETATM    7  N   UNL     1     -34.454  40.908 -53.460  1.00  0.00    -0.307 N 
HETATM    8  C   UNL     1     -35.335  41.909 -53.790  1.00  0.00     0.257 C 
HETATM    9  O   UNL     1     -35.758  42.776 -53.034  1.00  0.00    -0.267 OA
HETATM   10  H   UNL     1     -34.094  40.285 -54.169  1.00  0.00     0.170 HD
BRANCH   8  11
HETATM   11  C   UNL     1     -35.777  41.936 -55.217  1.00  0.00     0.032 A 
HETATM   12  C   UNL     1     -37.150  41.828 -55.485  1.00  0.00     0.018 A 
HETATM   13  C   UNL     1     -37.619  41.854 -56.801  1.00  0.00     0.025 A 
HETATM   14  C   UNL     1     -36.715  41.979 -57.854  1.00  0.00     0.034 A 
HETATM   15 CL   UNL     1     -37.291  42.014 -59.475  1.00  0.00    -0.084 Cl
HETATM   16  C   UNL     1     -35.347  42.069 -57.603  1.00  0.00     0.025 A 
HETATM   17  C   UNL     1     -34.874  42.042 -56.285  1.00  0.00     0.018 A 
ENDBRANCH   8  11
ENDBRANCH   4   7
BRANCH   1  18
HETATM   18  N   UNL     1     -31.789  39.983 -48.660  1.00  0.00    -0.326 N 
HETATM   19  C   UNL     1     -31.557  38.763 -48.054  1.00  0.00     0.218 C 
HETATM   20  C   UNL     1     -30.779  38.904 -46.770  1.00  0.00     0.117 C 
HETATM   21  O   UNL     1     -31.908  37.665 -48.469  1.00  0.00    -0.274 OA
HETATM   22  H   UNL     1     -31.435  40.805 -48.187  1.00  0.00     0.169 HD
ENDBRANCH   1  18
TORSDOF 3
ENDMDL
MODEL 5
REMARK VINA RESULT:      -6.8     16.535     18.117
REMARK  3 active torsions:
REMARK  status: ('A' for Active; 'I' for Inactive)
REMARK       I    between atoms: C_2  and  N_3 
REMARK    1  A    between atoms: N_3  and  C_4 
REMARK    2  A    between atoms: C_7  and  N_8 
REMARK       I    between atoms: N_8  and  C_9 
REMARK    3  A    between atoms: C_9  and  C_10 
ROOT
HETATM    1  C   UNL     1     -35.506  41.955 -56.816  1.00  0.00     0.052 A 
HETATM    2  C   UNL     1     -34.364  41.202 -56.573  1.00  0.00     0.148 A 
HETATM    3  N   UNL     1     -33.923  40.860 -55.333  1.00  0.00    -0.241 NA
HETATM    4  C   UNL     1     -34.641  41.284 -54.274  1.00  0.00     0.130 A 
HETATM    5  C   UNL     1     -35.788  42.050 -54.415  1.00  0.00     0.053 A 
HETATM    6  C   UNL     1     -36.221  42.385 -55.700  1.00  0.00     0.035 A 
ENDROOT
BRANCH   4   7
HETATM    7  N   UNL     1     -34.115  40.865 -53.052  1.00  0.00    -0.307 N 
HETATM    8  C   UNL     1     -34.557  39.849 -52.239  1.00  0.00     0.257 C 
HETATM    9  O   UNL     1     -35.511  39.111 -52.459  1.00  0.00    -0.267 OA
HETATM   10  H   UNL     1     -33.269  41.370 -52.830  1.00  0.00     0.170 HD
BRANCH   8  11
HETATM   11  C   UNL     1     -33.763  39.628 -50.993  1.00  0.00     0.032 A 
HETATM   12  C   UNL     1     -34.372  38.933 -49.936  1.00  0.00     0.018 A 
HETATM   13  C   UNL     1     -33.673  38.693 -48.750  1.00  0.00     0.025 A 
HETATM   14  C   UNL     1     -32.365  39.153 -48.615  1.00  0.00     0.034 A 
HETATM   15 CL   UNL     1     -31.501  38.855 -47.157  1.00  0.00    -0.084 Cl
HETATM   16  C   UNL     1     -31.754  39.859 -49.649  1.00  0.00     0.025 A 
HETATM   17  C   UNL     1     -32.452  40.103 -50.838  1.00  0.00     0.018 A 
ENDBRANCH   8  11
ENDBRANCH   4   7
BRANCH   1  18
HETATM   18  N   UNL     1     -35.996  42.310 -58.089  1.00  0.00    -0.326 N 
HETATM   19  C   UNL     1     -37.088  41.759 -58.734  1.00  0.00     0.218 C 
HETATM   20  C   UNL     1     -37.345  42.407 -60.070  1.00  0.00     0.117 C 
HETATM   21  O   UNL     1     -37.804  40.858 -58.313  1.00  0.00    -0.274 OA
HETATM   22  H   UNL     1     -35.503  43.050 -58.572  1.00  0.00     0.169 HD
ENDBRANCH   1  18
TORSDOF 3
ENDMDL
MODEL 6
REMARK VINA RESULT:      -6.8      2.074      2.391
REMARK  3 active torsions:
REMARK  status: ('A' for Active; 'I' for Inactive)
REMARK       I    between atoms: C_2  and  N_3 
REMARK    1  A    between atoms: N_3  and  C_4 
REMARK    2  A    between atoms: C_7  and  N_8 
REMARK       I    between atoms: N_8  and  C_9 
REMARK    3  A    between atoms: C_9  and  C_10 
ROOT
HETATM    1  C   UNL     1     -42.590  59.720 -52.596  1.00  0.00     0.052 A 
HETATM    2  C   UNL     1     -43.389  58.598 -52.415  1.00  0.00     0.148 A 
HETATM    3  N   UNL     1     -42.932  57.319 -52.464  1.00  0.00    -0.241 NA
HETATM    4  C   UNL     1     -41.620  57.131 -52.708  1.00  0.00     0.130 A 
HETATM    5  C   UNL     1     -40.746  58.186 -52.914  1.00  0.00     0.053 A 
HETATM    6  C   UNL     1     -41.240  59.493 -52.855  1.00  0.00     0.035 A 
ENDROOT
BRANCH   4   7
HETATM    7  N   UNL     1     -41.251  55.785 -52.720  1.00  0.00    -0.307 N 
HETATM    8  C   UNL     1     -40.849  55.023 -53.790  1.00  0.00     0.257 C 
HETATM    9  O   UNL     1     -40.734  55.409 -54.948  1.00  0.00    -0.267 OA
HETATM   10  H   UNL     1     -41.238  55.406 -51.784  1.00  0.00     0.170 HD
BRANCH   8  11
HETATM   11  C   UNL     1     -40.497  53.606 -53.476  1.00  0.00     0.032 A 
HETATM   12  C   UNL     1     -40.262  53.265 -52.135  1.00  0.00     0.018 A 
HETATM   13  C   UNL     1     -39.935  51.952 -51.784  1.00  0.00     0.025 A 
HETATM   14  C   UNL     1     -39.834  50.978 -52.775  1.00  0.00     0.034 A 
HETATM   15 CL   UNL     1     -39.434  49.360 -52.345  1.00  0.00    -0.084 Cl
HETATM   16  C   UNL     1     -40.048  51.306 -54.113  1.00  0.00     0.025 A 
HETATM   17  C   UNL     1     -40.374  52.621 -54.467  1.00  0.00     0.018 A 
ENDBRANCH   8  11
ENDBRANCH   4   7
BRANCH   1  18
HETATM   18  N   UNL     1     -43.031  61.058 -52.533  1.00  0.00    -0.326 N 
HETATM   19  C   UNL     1     -43.116  61.845 -51.400  1.00  0.00     0.218 C 
HETATM   20  C   UNL     1     -43.597  63.239 -51.711  1.00  0.00     0.117 C 
HETATM   21  O   UNL     1     -42.837  61.507 -50.256  1.00  0.00    -0.274 OA
HETATM   22  H   UNL     1     -43.302  61.484 -53.410  1.00  0.00     0.169 HD
ENDBRANCH   1  18
TORSDOF 3
ENDMDL
MODEL 7
REMARK VINA RESULT:      -6.6      2.383      2.644
REMARK  3 active torsions:
REMARK  status: ('A' for Active; 'I' for Inactive)
REMARK       I    between atoms: C_2  and  N_3 
REMARK    1  A    between atoms: N_3  and  C_4 
REMARK    2  A    between atoms: C_7  and  N_8 
REMARK       I    between atoms: N_8  and  C_9 
REMARK    3  A    between atoms: C_9  and  C_10 
ROOT
HETATM    1  C   UNL     1     -44.991  58.593 -53.423  1.00  0.00     0.052 A 
HETATM    2  C   UNL     1     -44.346  58.089 -52.300  1.00  0.00     0.148 A 
HETATM    3  N   UNL     1     -43.617  56.941 -52.287  1.00  0.00    -0.241 NA
HETATM    4  C   UNL     1     -43.520  56.248 -53.440  1.00  0.00     0.130 A 
HETATM    5  C   UNL     1     -44.137  56.664 -54.609  1.00  0.00     0.053 A 
HETATM    6  C   UNL     1     -44.878  57.849 -54.596  1.00  0.00     0.035 A 
ENDROOT
BRANCH   4   7
HETATM    7  N   UNL     1     -42.738  55.099 -53.324  1.00  0.00    -0.307 N 
HETATM    8  C   UNL     1     -41.401  54.949 -53.601  1.00  0.00     0.257 C 
HETATM    9  O   UNL     1     -40.643  55.826 -54.000  1.00  0.00    -0.267 OA
HETATM   10  H   UNL     1     -43.268  54.341 -52.919  1.00  0.00     0.170 HD
BRANCH   8  11
HETATM   11  C   UNL     1     -40.839  53.586 -53.353  1.00  0.00     0.032 A 
HETATM   12  C   UNL     1     -40.800  52.683 -54.427  1.00  0.00     0.018 A 
HETATM   13  C   UNL     1     -40.280  51.398 -54.253  1.00  0.00     0.025 A 
HETATM   14  C   UNL     1     -39.804  51.009 -53.002  1.00  0.00     0.034 A 
HETATM   15 CL   UNL     1     -39.161  49.428 -52.786  1.00  0.00    -0.084 Cl
HETATM   16  C   UNL     1     -39.853  51.890 -51.923  1.00  0.00     0.025 A 
HETATM   17  C   UNL     1     -40.375  53.178 -52.094  1.00  0.00     0.018 A 
ENDBRANCH   8  11
ENDBRANCH   4   7
BRANCH   1  18
HETATM   18  N   UNL     1     -45.737  59.788 -53.471  1.00  0.00    -0.326 N 
HETATM   19  C   UNL     1     -45.255  61.049 -53.765  1.00  0.00     0.218 C 
HETATM   20  C   UNL     1     -46.345  62.090 -53.760  1.00  0.00     0.117 C 
HETATM   21  O   UNL     1     -44.093  61.344 -54.019  1.00  0.00    -0.274 OA
HETATM   22  H   UNL     1     -46.728  59.708 -53.279  1.00  0.00     0.169 HD
ENDBRANCH   1  18
TORSDOF 3
ENDMDL
MODEL 8
REMARK VINA RESULT:      -6.6      5.986      6.734
REMARK  3 active torsions:
REMARK  status: ('A' for Active; 'I' for Inactive)
REMARK       I    between atoms: C_2  and  N_3 
REMARK    1  A    between atoms: N_3  and  C_4 
REMARK    2  A    between atoms: C_7  and  N_8 
REMARK       I    between atoms: N_8  and  C_9 
REMARK    3  A    between atoms: C_9  and  C_10 
ROOT
HETATM    1  C   UNL     1     -43.493  58.197 -59.167  1.00  0.00     0.052 A 
HETATM    2  C   UNL     1     -42.815  58.565 -58.012  1.00  0.00     0.148 A 
HETATM    3  N   UNL     1     -42.354  57.686 -57.083  1.00  0.00    -0.241 NA
HETATM    4  C   UNL     1     -42.576  56.373 -57.298  1.00  0.00     0.130 A 
HETATM    5  C   UNL     1     -43.254  55.910 -58.415  1.00  0.00     0.053 A 
HETATM    6  C   UNL     1     -43.714  56.834 -59.357  1.00  0.00     0.035 A 
ENDROOT
BRANCH   4   7
HETATM    7  N   UNL     1     -42.049  55.557 -56.297  1.00  0.00    -0.307 N 
HETATM    8  C   UNL     1     -42.616  55.215 -55.093  1.00  0.00     0.257 C 
HETATM    9  O   UNL     1     -43.716  55.572 -54.685  1.00  0.00    -0.267 OA
HETATM   10  H   UNL     1     -41.172  55.149 -56.587  1.00  0.00     0.170 HD
BRANCH   8  11
HETATM   11  C   UNL     1     -41.807  54.297 -54.236  1.00  0.00     0.032 A 
HETATM   12  C   UNL     1     -40.886  53.445 -54.867  1.00  0.00     0.018 A 
HETATM   13  C   UNL     1     -40.099  52.571 -54.114  1.00  0.00     0.025 A 
HETATM   14  C   UNL     1     -40.235  52.539 -52.728  1.00  0.00     0.034 A 
HETATM   15 CL   UNL     1     -39.265  51.465 -51.798  1.00  0.00    -0.084 Cl
HETATM   16  C   UNL     1     -41.157  53.367 -52.090  1.00  0.00     0.025 A 
HETATM   17  C   UNL     1     -41.949  54.243 -52.842  1.00  0.00     0.018 A 
ENDBRANCH   8  11
ENDBRANCH   4   7
BRANCH   1  18
HETATM   18  N   UNL     1     -43.965  59.083 -60.156  1.00  0.00    -0.326 N 
HETATM   19  C   UNL     1     -43.201  59.770 -61.080  1.00  0.00     0.218 C 
HETATM   20  C   UNL     1     -44.045  60.603 -62.011  1.00  0.00     0.117 C 
HETATM   21  O   UNL     1     -41.980  59.736 -61.185  1.00  0.00    -0.274 OA
HETATM   22  H   UNL     1     -44.967  59.220 -60.197  1.00  0.00     0.169 HD
ENDBRANCH   1  18
TORSDOF 3
ENDMDL
MODEL 9
REMARK VINA RESULT:      -6.6      4.130      8.409
REMARK  3 active torsions:
REMARK  status: ('A' for Active; 'I' for Inactive)
REMARK       I    between atoms: C_2  and  N_3 
REMARK    1  A    between atoms: N_3  and  C_4 
REMARK    2  A    between atoms: C_7  and  N_8 
REMARK       I    between atoms: N_8  and  C_9 
REMARK    3  A    between atoms: C_9  and  C_10 
ROOT
HETATM    1  C   UNL     1     -40.923  53.408 -53.998  1.00  0.00     0.052 A 
HETATM    2  C   UNL     1     -41.807  53.792 -52.998  1.00  0.00     0.148 A 
HETATM    3  N   UNL     1     -42.107  55.083 -52.697  1.00  0.00    -0.241 NA
HETATM    4  C   UNL     1     -41.503  56.051 -53.416  1.00  0.00     0.130 A 
HETATM    5  C   UNL     1     -40.597  55.767 -54.425  1.00  0.00     0.053 A 
HETATM    6  C   UNL     1     -40.308  54.431 -54.717  1.00  0.00     0.035 A 
ENDROOT
BRANCH   4   7
HETATM    7  N   UNL     1     -41.893  57.337 -53.041  1.00  0.00    -0.307 N 
HETATM    8  C   UNL     1     -41.440  58.087 -51.983  1.00  0.00     0.257 C 
HETATM    9  O   UNL     1     -40.586  57.750 -51.170  1.00  0.00    -0.267 OA
HETATM   10  H   UNL     1     -42.540  57.728 -53.709  1.00  0.00     0.170 HD
BRANCH   8  11
HETATM   11  C   UNL     1     -42.040  59.450 -51.855  1.00  0.00     0.032 A 
HETATM   12  C   UNL     1     -42.424  60.116 -53.030  1.00  0.00     0.018 A 
HETATM   13  C   UNL     1     -42.995  61.389 -52.969  1.00  0.00     0.025 A 
HETATM   14  C   UNL     1     -43.178  62.005 -51.732  1.00  0.00     0.034 A 
HETATM   15 CL   UNL     1     -43.884  63.571 -51.654  1.00  0.00    -0.084 Cl
HETATM   16  C   UNL     1     -42.786  61.362 -50.559  1.00  0.00     0.025 A 
HETATM   17  C   UNL     1     -42.211  60.087 -50.618  1.00  0.00     0.018 A 
ENDBRANCH   8  11
ENDBRANCH   4   7
BRANCH   1  18
HETATM   18  N   UNL     1     -40.606  52.079 -54.344  1.00  0.00    -0.326 N 
HETATM   19  C   UNL     1     -39.784  51.218 -53.642  1.00  0.00     0.218 C 
HETATM   20  C   UNL     1     -39.700  49.858 -54.287  1.00  0.00     0.117 C 
HETATM   21  O   UNL     1     -39.178  51.471 -52.607  1.00  0.00    -0.274 OA
HETATM   22  H   UNL     1     -41.034  51.719 -55.188  1.00  0.00     0.169 HD
ENDBRANCH   1  18
TORSDOF 3
ENDMDL
MODEL 10
REMARK VINA RESULT:      -6.3      5.703      7.645
REMARK  3 active torsions:
REMARK  status: ('A' for Active; 'I' for Inactive)
REMARK       I    between atoms: C_2  and  N_3 
REMARK    1  A    between atoms: N_3  and  C_4 
REMARK    2  A    between atoms: C_7  and  N_8 
REMARK       I    between atoms: N_8  and  C_9 
REMARK    3  A    between atoms: C_9  and  C_10 
ROOT
HETATM    1  C   UNL     1     -41.324  54.424 -52.903  1.00  0.00     0.052 A 
HETATM    2  C   UNL     1     -42.640  54.868 -52.946  1.00  0.00     0.148 A 
HETATM    3  N   UNL     1     -43.313  55.155 -54.092  1.00  0.00    -0.241 NA
HETATM    4  C   UNL     1     -42.657  55.000 -55.260  1.00  0.00     0.130 A 
HETATM    5  C   UNL     1     -41.339  54.573 -55.318  1.00  0.00     0.053 A 
HETATM    6  C   UNL     1     -40.671  54.282 -54.126  1.00  0.00     0.035 A 
ENDROOT
BRANCH   4   7
HETATM    7  N   UNL     1     -43.440  55.302 -56.373  1.00  0.00    -0.307 N 
HETATM    8  C   UNL     1     -43.240  56.285 -57.312  1.00  0.00     0.257 C 
HETATM    9  O   UNL     1     -42.308  57.081 -57.337  1.00  0.00    -0.267 OA
HETATM   10  H   UNL     1     -44.193  54.637 -56.478  1.00  0.00     0.170 HD
BRANCH   8  11
HETATM   11  C   UNL     1     -44.253  56.345 -58.409  1.00  0.00     0.032 A 
HETATM   12  C   UNL     1     -44.247  55.320 -59.369  1.00  0.00     0.018 A 
HETATM   13  C   UNL     1     -45.175  55.323 -60.414  1.00  0.00     0.025 A 
HETATM   14  C   UNL     1     -46.107  56.355 -60.506  1.00  0.00     0.034 A 
HETATM   15 CL   UNL     1     -47.253  56.359 -61.790  1.00  0.00    -0.084 Cl
HETATM   16  C   UNL     1     -46.113  57.387 -59.570  1.00  0.00     0.025 A 
HETATM   17  C   UNL     1     -45.183  57.388 -58.524  1.00  0.00     0.018 A 
ENDBRANCH   8  11
ENDBRANCH   4   7
BRANCH   1  18
HETATM   18  N   UNL     1     -40.607  54.102 -51.733  1.00  0.00    -0.326 N 
HETATM   19  C   UNL     1     -40.537  54.855 -50.576  1.00  0.00     0.218 C 
HETATM   20  C   UNL     1     -39.706  54.187 -49.511  1.00  0.00     0.117 C 
HETATM   21  O   UNL     1     -41.076  55.939 -50.379  1.00  0.00    -0.274 OA
HETATM   22  H   UNL     1     -40.101  53.226 -51.741  1.00  0.00     0.169 HD
ENDBRANCH   1  18
TORSDOF 3
ENDMDL
