MODEL 1
REMARK VINA RESULT:      -9.1      0.000      0.000
REMARK  6 active torsions:
REMARK  status: ('A' for Active; 'I' for Inactive)
REMARK    1  A    between atoms: C_2  and  O_3 
REMARK    2  A    between atoms: O_3  and  C_4 
REMARK    3  A    between atoms: C_7  and  N_8 
REMARK    4  A    between atoms: N_8  and  C_9 
REMARK    5  A    between atoms: C_10  and  C_11 
REMARK    6  A    between atoms: C_14  and  C_15 
ROOT
HETATM    1  C   UNL     1     -44.850  58.374 -52.659  1.00  0.00     0.113 C 
HETATM    2  C   UNL     1     -44.002  58.903 -51.755  1.00  0.00     0.082 C 
HETATM    3  C   UNL     1     -44.258  60.300 -51.213  1.00  0.00     0.024 C 
HETATM    4  N   UNL     1     -44.470  61.460 -50.763  1.00  0.00    -0.096 N 
ENDROOT
BRANCH   2   5
HETATM    5  C   UNL     1     -42.825  58.193 -51.335  1.00  0.00     0.119 A 
HETATM    6  S   UNL     1     -41.404  59.058 -50.826  1.00  0.00    -0.078 SA
HETATM    7  C   UNL     1     -40.585  57.585 -50.548  1.00  0.00     0.084 A 
HETATM    8  C   UNL     1     -41.411  56.521 -50.831  1.00  0.00     0.081 A 
HETATM    9  N   UNL     1     -42.683  56.874 -51.270  1.00  0.00    -0.239 NA
BRANCH   8  10
HETATM   10  C   UNL     1     -41.063  55.124 -50.771  1.00  0.00     0.070 A 
HETATM   11  C   UNL     1     -40.927  54.448 -49.440  1.00  0.00     0.301 A 
HETATM   12  O   UNL     1     -41.157  55.017 -48.377  1.00  0.00    -0.259 OA
HETATM   13  O   UNL     1     -40.518  53.116 -49.436  1.00  0.00    -0.274 OA
HETATM   14  C   UNL     1     -40.288  52.402 -50.622  1.00  0.00     0.089 A 
HETATM   15  C   UNL     1     -40.459  53.014 -51.857  1.00  0.00     0.000 A 
HETATM   16  C   UNL     1     -39.889  51.072 -50.508  1.00  0.00     0.039 A 
HETATM   17  C   UNL     1     -40.224  52.272 -53.017  1.00  0.00     0.033 A 
HETATM   18  C   UNL     1     -40.852  54.411 -51.894  1.00  0.00     0.034 A 
HETATM   19  C   UNL     1     -39.824  50.937 -52.915  1.00  0.00     0.012 A 
HETATM   20  C   UNL     1     -39.654  50.334 -51.667  1.00  0.00     0.022 A 
HETATM   21 BR   UNL     1     -39.504  49.934 -54.487  1.00  0.00    -0.051 Br
ENDBRANCH   8  10
ENDBRANCH   2   5
BRANCH   1  22
HETATM   22  N   UNL     1     -44.730  57.168 -53.312  1.00  0.00    -0.364 N 
HETATM   23  H   UNL     1     -45.162  56.377 -52.825  1.00  0.00     0.165 HD
BRANCH  22  24
HETATM   24  C   UNL     1     -44.254  56.883 -54.600  1.00  0.00     0.032 A 
HETATM   25  C   UNL     1     -43.493  55.721 -54.786  1.00  0.00     0.032 A 
HETATM   26  C   UNL     1     -42.975  55.387 -56.040  1.00  0.00     0.039 A 
HETATM   27  C   UNL     1     -43.212  56.207 -57.142  1.00  0.00     0.068 A 
HETATM   28  C   UNL     1     -43.936  57.384 -56.967  1.00  0.00     0.039 A 
HETATM   29  C   UNL     1     -44.444  57.721 -55.703  1.00  0.00     0.032 A 
BRANCH  27  30
HETATM   30  O   UNL     1     -42.675  55.761 -58.316  1.00  0.00    -0.352 OA
BRANCH  30  31
HETATM   31  C   UNL     1     -43.486  55.902 -59.481  1.00  0.00     0.171 C 
HETATM   32  C   UNL     1     -44.331  54.648 -59.616  1.00  0.00     0.034 C 
ENDBRANCH  30  31
ENDBRANCH  27  30
ENDBRANCH  22  24
ENDBRANCH   1  22
TORSDOF 6
ENDMDL
MODEL 2
REMARK VINA RESULT:      -8.6      2.474      3.291
REMARK  6 active torsions:
REMARK  status: ('A' for Active; 'I' for Inactive)
REMARK    1  A    between atoms: C_2  and  O_3 
REMARK    2  A    between atoms: O_3  and  C_4 
REMARK    3  A    between atoms: C_7  and  N_8 
REMARK    4  A    between atoms: N_8  and  C_9 
REMARK    5  A    between atoms: C_10  and  C_11 
REMARK    6  A    between atoms: C_14  and  C_15 
ROOT
HETATM    1  C   UNL     1     -42.293  60.284 -56.403  1.00  0.00     0.113 C 
HETATM    2  C   UNL     1     -42.996  60.156 -55.260  1.00  0.00     0.082 C 
HETATM    3  C   UNL     1     -43.417  61.400 -54.494  1.00  0.00     0.024 C 
HETATM    4  N   UNL     1     -43.766  62.432 -53.858  1.00  0.00    -0.096 N 
ENDROOT
BRANCH   2   5
HETATM    5  C   UNL     1     -43.305  58.860 -54.719  1.00  0.00     0.119 A 
HETATM    6  S   UNL     1     -44.953  58.311 -54.628  1.00  0.00    -0.078 SA
HETATM    7  C   UNL     1     -44.443  56.841 -53.923  1.00  0.00     0.084 A 
HETATM    8  C   UNL     1     -43.072  56.822 -53.804  1.00  0.00     0.081 A 
HETATM    9  N   UNL     1     -42.433  57.968 -54.266  1.00  0.00    -0.239 NA
BRANCH   8  10
HETATM   10  C   UNL     1     -42.276  55.778 -53.209  1.00  0.00     0.070 A 
HETATM   11  C   UNL     1     -41.761  55.941 -51.811  1.00  0.00     0.301 A 
HETATM   12  O   UNL     1     -42.034  56.910 -51.109  1.00  0.00    -0.259 OA
HETATM   13  O   UNL     1     -40.937  54.935 -51.310  1.00  0.00    -0.274 OA
HETATM   14  C   UNL     1     -40.631  53.782 -52.050  1.00  0.00     0.089 A 
HETATM   15  C   UNL     1     -41.146  53.609 -53.329  1.00  0.00     0.000 A 
HETATM   16  C   UNL     1     -39.804  52.834 -51.454  1.00  0.00     0.039 A 
HETATM   17  C   UNL     1     -40.824  52.448 -54.035  1.00  0.00     0.033 A 
HETATM   18  C   UNL     1     -41.981  54.655 -53.890  1.00  0.00     0.034 A 
HETATM   19  C   UNL     1     -39.995  51.489 -53.447  1.00  0.00     0.012 A 
HETATM   20  C   UNL     1     -39.483  51.676 -52.161  1.00  0.00     0.022 A 
HETATM   21 BR   UNL     1     -39.557  49.918 -54.405  1.00  0.00    -0.051 Br
ENDBRANCH   8  10
ENDBRANCH   2   5
BRANCH   1  22
HETATM   22  N   UNL     1     -41.763  59.276 -57.176  1.00  0.00    -0.364 N 
HETATM   23  H   UNL     1     -40.816  58.989 -56.908  1.00  0.00     0.165 HD
BRANCH  22  24
HETATM   24  C   UNL     1     -42.366  58.479 -58.160  1.00  0.00     0.032 A 
HETATM   25  C   UNL     1     -42.635  57.137 -57.857  1.00  0.00     0.032 A 
HETATM   26  C   UNL     1     -43.220  56.286 -58.798  1.00  0.00     0.039 A 
HETATM   27  C   UNL     1     -43.556  56.760 -60.065  1.00  0.00     0.068 A 
HETATM   28  C   UNL     1     -43.262  58.081 -60.394  1.00  0.00     0.039 A 
HETATM   29  C   UNL     1     -42.664  58.929 -59.450  1.00  0.00     0.032 A 
BRANCH  27  30
HETATM   30  O   UNL     1     -44.144  55.839 -60.886  1.00  0.00    -0.352 OA
BRANCH  30  31
HETATM   31  C   UNL     1     -45.296  55.172 -60.374  1.00  0.00     0.171 C 
HETATM   32  C   UNL     1     -46.471  56.129 -60.475  1.00  0.00     0.034 C 
ENDBRANCH  30  31
ENDBRANCH  27  30
ENDBRANCH  22  24
ENDBRANCH   1  22
TORSDOF 6
ENDMDL
MODEL 3
REMARK VINA RESULT:      -8.1      3.369      7.376
REMARK  6 active torsions:
REMARK  status: ('A' for Active; 'I' for Inactive)
REMARK    1  A    between atoms: C_2  and  O_3 
REMARK    2  A    between atoms: O_3  and  C_4 
REMARK    3  A    between atoms: C_7  and  N_8 
REMARK    4  A    between atoms: N_8  and  C_9 
REMARK    5  A    between atoms: C_10  and  C_11 
REMARK    6  A    between atoms: C_14  and  C_15 
ROOT
HETATM    1  C   UNL     1     -41.277  56.385 -50.414  1.00  0.00     0.113 C 
HETATM    2  C   UNL     1     -41.606  57.525 -51.053  1.00  0.00     0.082 C 
HETATM    3  C   UNL     1     -41.093  58.856 -50.528  1.00  0.00     0.024 C 
HETATM    4  N   UNL     1     -40.667  59.961 -50.092  1.00  0.00    -0.096 N 
ENDROOT
BRANCH   2   5
HETATM    5  C   UNL     1     -42.483  57.511 -52.192  1.00  0.00     0.119 A 
HETATM    6  S   UNL     1     -44.209  57.485 -51.978  1.00  0.00    -0.078 SA
HETATM    7  C   UNL     1     -44.437  57.469 -53.671  1.00  0.00     0.084 A 
HETATM    8  C   UNL     1     -43.220  57.500 -54.314  1.00  0.00     0.081 A 
HETATM    9  N   UNL     1     -42.117  57.532 -53.468  1.00  0.00    -0.239 NA
BRANCH   8  10
HETATM   10  C   UNL     1     -43.000  57.445 -55.737  1.00  0.00     0.070 A 
HETATM   11  C   UNL     1     -42.948  56.116 -56.430  1.00  0.00     0.301 A 
HETATM   12  O   UNL     1     -43.145  55.053 -55.850  1.00  0.00    -0.259 OA
HETATM   13  O   UNL     1     -42.661  56.116 -57.794  1.00  0.00    -0.274 OA
HETATM   14  C   UNL     1     -42.474  57.303 -58.519  1.00  0.00     0.089 A 
HETATM   15  C   UNL     1     -42.568  58.536 -57.887  1.00  0.00     0.000 A 
HETATM   16  C   UNL     1     -42.198  57.192 -59.879  1.00  0.00     0.039 A 
HETATM   17  C   UNL     1     -42.380  59.698 -58.640  1.00  0.00     0.033 A 
HETATM   18  C   UNL     1     -42.834  58.569 -56.460  1.00  0.00     0.034 A 
HETATM   19  C   UNL     1     -42.103  59.599 -60.006  1.00  0.00     0.012 A 
HETATM   20  C   UNL     1     -42.011  58.352 -60.629  1.00  0.00     0.022 A 
HETATM   21 BR   UNL     1     -41.847  61.172 -61.024  1.00  0.00    -0.051 Br
ENDBRANCH   8  10
ENDBRANCH   2   5
BRANCH   1  22
HETATM   22  N   UNL     1     -41.714  55.111 -50.697  1.00  0.00    -0.364 N 
HETATM   23  H   UNL     1     -42.624  54.875 -50.292  1.00  0.00     0.165 HD
BRANCH  22  24
HETATM   24  C   UNL     1     -41.189  54.151 -51.574  1.00  0.00     0.032 A 
HETATM   25  C   UNL     1     -40.105  53.375 -51.141  1.00  0.00     0.032 A 
HETATM   26  C   UNL     1     -39.526  52.412 -51.972  1.00  0.00     0.039 A 
HETATM   27  C   UNL     1     -40.022  52.198 -53.256  1.00  0.00     0.068 A 
HETATM   28  C   UNL     1     -41.075  52.986 -53.716  1.00  0.00     0.039 A 
HETATM   29  C   UNL     1     -41.646  53.959 -52.883  1.00  0.00     0.032 A 
BRANCH  27  30
HETATM   30  O   UNL     1     -39.388  51.215 -53.961  1.00  0.00    -0.352 OA
BRANCH  30  31
HETATM   31  C   UNL     1     -39.993  49.923 -53.938  1.00  0.00     0.171 C 
HETATM   32  C   UNL     1     -39.566  49.231 -52.656  1.00  0.00     0.034 C 
ENDBRANCH  30  31
ENDBRANCH  27  30
ENDBRANCH  22  24
ENDBRANCH   1  22
TORSDOF 6
ENDMDL
MODEL 4
REMARK VINA RESULT:      -8.0      1.775      2.155
REMARK  6 active torsions:
REMARK  status: ('A' for Active; 'I' for Inactive)
REMARK    1  A    between atoms: C_2  and  O_3 
REMARK    2  A    between atoms: O_3  and  C_4 
REMARK    3  A    between atoms: C_7  and  N_8 
REMARK    4  A    between atoms: N_8  and  C_9 
REMARK    5  A    between atoms: C_10  and  C_11 
REMARK    6  A    between atoms: C_14  and  C_15 
ROOT
HETATM    1  C   UNL     1     -42.263  60.309 -54.217  1.00  0.00     0.113 C 
HETATM    2  C   UNL     1     -42.924  60.162 -53.052  1.00  0.00     0.082 C 
HETATM    3  C   UNL     1     -43.380  61.395 -52.288  1.00  0.00     0.024 C 
HETATM    4  N   UNL     1     -43.759  62.417 -51.653  1.00  0.00    -0.096 N 
ENDROOT
BRANCH   2   5
HETATM    5  C   UNL     1     -43.155  58.861 -52.488  1.00  0.00     0.119 A 
HETATM    6  S   UNL     1     -44.683  58.473 -51.754  1.00  0.00    -0.078 SA
HETATM    7  C   UNL     1     -44.128  56.902 -51.383  1.00  0.00     0.084 A 
HETATM    8  C   UNL     1     -42.839  56.734 -51.836  1.00  0.00     0.081 A 
HETATM    9  N   UNL     1     -42.297  57.848 -52.469  1.00  0.00    -0.239 NA
BRANCH   8  10
HETATM   10  C   UNL     1     -42.013  55.566 -51.663  1.00  0.00     0.070 A 
HETATM   11  C   UNL     1     -41.262  55.369 -50.380  1.00  0.00     0.301 A 
HETATM   12  O   UNL     1     -41.359  56.135 -49.426  1.00  0.00    -0.259 OA
HETATM   13  O   UNL     1     -40.423  54.260 -50.293  1.00  0.00    -0.274 OA
HETATM   14  C   UNL     1     -40.309  53.325 -51.334  1.00  0.00     0.089 A 
HETATM   15  C   UNL     1     -41.040  53.482 -52.505  1.00  0.00     0.000 A 
HETATM   16  C   UNL     1     -39.447  52.248 -51.143  1.00  0.00     0.039 A 
HETATM   17  C   UNL     1     -40.905  52.530 -53.518  1.00  0.00     0.033 A 
HETATM   18  C   UNL     1     -41.899  54.645 -52.638  1.00  0.00     0.034 A 
HETATM   19  C   UNL     1     -40.043  51.445 -53.338  1.00  0.00     0.012 A 
HETATM   20  C   UNL     1     -39.313  51.300 -52.156  1.00  0.00     0.022 A 
HETATM   21 BR   UNL     1     -39.860  50.159 -54.712  1.00  0.00    -0.051 Br
ENDBRANCH   8  10
ENDBRANCH   2   5
BRANCH   1  22
HETATM   22  N   UNL     1     -41.709  59.318 -54.995  1.00  0.00    -0.364 N 
HETATM   23  H   UNL     1     -40.801  58.976 -54.664  1.00  0.00     0.165 HD
BRANCH  22  24
HETATM   24  C   UNL     1     -42.256  58.598 -56.067  1.00  0.00     0.032 A 
HETATM   25  C   UNL     1     -42.134  59.130 -57.358  1.00  0.00     0.032 A 
HETATM   26  C   UNL     1     -42.671  58.472 -58.467  1.00  0.00     0.039 A 
HETATM   27  C   UNL     1     -43.341  57.260 -58.311  1.00  0.00     0.068 A 
HETATM   28  C   UNL     1     -43.503  56.735 -57.031  1.00  0.00     0.039 A 
HETATM   29  C   UNL     1     -42.972  57.405 -55.919  1.00  0.00     0.032 A 
BRANCH  27  30
HETATM   30  O   UNL     1     -43.799  56.702 -59.471  1.00  0.00    -0.352 OA
BRANCH  30  31
HETATM   31  C   UNL     1     -43.613  55.296 -59.619  1.00  0.00     0.171 C 
HETATM   32  C   UNL     1     -44.931  54.697 -60.077  1.00  0.00     0.034 C 
ENDBRANCH  30  31
ENDBRANCH  27  30
ENDBRANCH  22  24
ENDBRANCH   1  22
TORSDOF 6
ENDMDL
MODEL 5
REMARK VINA RESULT:      -7.9      3.190      7.593
REMARK  6 active torsions:
REMARK  status: ('A' for Active; 'I' for Inactive)
REMARK    1  A    between atoms: C_2  and  O_3 
REMARK    2  A    between atoms: O_3  and  C_4 
REMARK    3  A    between atoms: C_7  and  N_8 
REMARK    4  A    between atoms: N_8  and  C_9 
REMARK    5  A    between atoms: C_10  and  C_11 
REMARK    6  A    between atoms: C_14  and  C_15 
ROOT
HETATM    1  C   UNL     1     -43.772  56.870 -51.516  1.00  0.00     0.113 C 
HETATM    2  C   UNL     1     -43.519  58.058 -52.101  1.00  0.00     0.082 C 
HETATM    3  C   UNL     1     -43.649  59.337 -51.289  1.00  0.00     0.024 C 
HETATM    4  N   UNL     1     -43.757  60.398 -50.617  1.00  0.00    -0.096 N 
ENDROOT
BRANCH   2   5
HETATM    5  C   UNL     1     -43.183  58.142 -53.496  1.00  0.00     0.119 A 
HETATM    6  S   UNL     1     -41.899  59.184 -54.035  1.00  0.00    -0.078 SA
HETATM    7  C   UNL     1     -42.175  58.717 -55.654  1.00  0.00     0.084 A 
HETATM    8  C   UNL     1     -43.197  57.797 -55.716  1.00  0.00     0.081 A 
HETATM    9  N   UNL     1     -43.759  57.470 -54.486  1.00  0.00    -0.239 NA
BRANCH   8  10
HETATM   10  C   UNL     1     -43.754  57.210 -56.908  1.00  0.00     0.070 A 
HETATM   11  C   UNL     1     -43.204  55.914 -57.425  1.00  0.00     0.301 A 
HETATM   12  O   UNL     1     -42.328  55.282 -56.844  1.00  0.00    -0.259 OA
HETATM   13  O   UNL     1     -43.730  55.427 -58.621  1.00  0.00    -0.274 OA
HETATM   14  C   UNL     1     -44.766  56.082 -59.304  1.00  0.00     0.089 A 
HETATM   15  C   UNL     1     -45.307  57.259 -58.801  1.00  0.00     0.000 A 
HETATM   16  C   UNL     1     -45.223  55.508 -60.487  1.00  0.00     0.039 A 
HETATM   17  C   UNL     1     -46.341  57.882 -59.504  1.00  0.00     0.033 A 
HETATM   18  C   UNL     1     -44.759  57.808 -57.574  1.00  0.00     0.034 A 
HETATM   19  C   UNL     1     -46.808  57.315 -60.693  1.00  0.00     0.012 A 
HETATM   20  C   UNL     1     -46.254  56.132 -61.188  1.00  0.00     0.022 A 
HETATM   21 BR   UNL     1     -48.206  58.161 -61.646  1.00  0.00    -0.051 Br
ENDBRANCH   8  10
ENDBRANCH   2   5
BRANCH   1  22
HETATM   22  N   UNL     1     -43.784  55.630 -52.113  1.00  0.00    -0.364 N 
HETATM   23  H   UNL     1     -44.658  55.401 -52.598  1.00  0.00     0.165 HD
BRANCH  22  24
HETATM   24  C   UNL     1     -42.746  54.705 -52.296  1.00  0.00     0.032 A 
HETATM   25  C   UNL     1     -42.059  54.243 -51.165  1.00  0.00     0.032 A 
HETATM   26  C   UNL     1     -41.004  53.334 -51.279  1.00  0.00     0.039 A 
HETATM   27  C   UNL     1     -40.615  52.860 -52.530  1.00  0.00     0.068 A 
HETATM   28  C   UNL     1     -41.263  53.336 -53.667  1.00  0.00     0.039 A 
HETATM   29  C   UNL     1     -42.314  54.258 -53.549  1.00  0.00     0.032 A 
BRANCH  27  30
HETATM   30  O   UNL     1     -39.589  51.958 -52.509  1.00  0.00    -0.352 OA
BRANCH  30  31
HETATM   31  C   UNL     1     -39.334  51.254 -53.723  1.00  0.00     0.171 C 
HETATM   32  C   UNL     1     -39.808  49.823 -53.540  1.00  0.00     0.034 C 
ENDBRANCH  30  31
ENDBRANCH  27  30
ENDBRANCH  22  24
ENDBRANCH   1  22
TORSDOF 6
ENDMDL
MODEL 6
REMARK VINA RESULT:      -7.8      3.151      6.554
REMARK  6 active torsions:
REMARK  status: ('A' for Active; 'I' for Inactive)
REMARK    1  A    between atoms: C_2  and  O_3 
REMARK    2  A    between atoms: O_3  and  C_4 
REMARK    3  A    between atoms: C_7  and  N_8 
REMARK    4  A    between atoms: N_8  and  C_9 
REMARK    5  A    between atoms: C_10  and  C_11 
REMARK    6  A    between atoms: C_14  and  C_15 
ROOT
HETATM    1  C   UNL     1     -45.127  59.960 -52.459  1.00  0.00     0.113 C 
HETATM    2  C   UNL     1     -44.465  59.447 -53.516  1.00  0.00     0.082 C 
HETATM    3  C   UNL     1     -45.102  59.495 -54.896  1.00  0.00     0.024 C 
HETATM    4  N   UNL     1     -45.631  59.533 -56.040  1.00  0.00    -0.096 N 
ENDROOT
BRANCH   2   5
HETATM    5  C   UNL     1     -43.191  58.803 -53.353  1.00  0.00     0.119 A 
HETATM    6  S   UNL     1     -41.724  59.614 -53.819  1.00  0.00    -0.078 SA
HETATM    7  C   UNL     1     -40.801  58.259 -53.340  1.00  0.00     0.084 A 
HETATM    8  C   UNL     1     -41.625  57.275 -52.842  1.00  0.00     0.081 A 
HETATM    9  N   UNL     1     -42.979  57.595 -52.845  1.00  0.00    -0.239 NA
BRANCH   8  10
HETATM   10  C   UNL     1     -41.224  55.967 -52.389  1.00  0.00     0.070 A 
HETATM   11  C   UNL     1     -41.035  55.713 -50.923  1.00  0.00     0.301 A 
HETATM   12  O   UNL     1     -41.264  56.560 -50.065  1.00  0.00    -0.259 OA
HETATM   13  O   UNL     1     -40.577  54.453 -50.545  1.00  0.00    -0.274 OA
HETATM   14  C   UNL     1     -40.344  53.431 -51.478  1.00  0.00     0.089 A 
HETATM   15  C   UNL     1     -40.564  53.651 -52.833  1.00  0.00     0.000 A 
HETATM   16  C   UNL     1     -39.894  52.205 -50.995  1.00  0.00     0.039 A 
HETATM   17  C   UNL     1     -40.326  52.610 -53.733  1.00  0.00     0.033 A 
HETATM   18  C   UNL     1     -41.010  54.964 -53.261  1.00  0.00     0.034 A 
HETATM   19  C   UNL     1     -39.874  51.376 -53.260  1.00  0.00     0.012 A 
HETATM   20  C   UNL     1     -39.656  51.168 -51.896  1.00  0.00     0.022 A 
HETATM   21 BR   UNL     1     -39.550  49.968 -54.481  1.00  0.00    -0.051 Br
ENDBRANCH   8  10
ENDBRANCH   2   5
BRANCH   1  22
HETATM   22  N   UNL     1     -44.743  59.930 -51.138  1.00  0.00    -0.364 N 
HETATM   23  H   UNL     1     -44.312  59.049 -50.841  1.00  0.00     0.165 HD
BRANCH  22  24
HETATM   24  C   UNL     1     -44.704  60.959 -50.186  1.00  0.00     0.032 A 
HETATM   25  C   UNL     1     -45.416  60.787 -48.991  1.00  0.00     0.032 A 
HETATM   26  C   UNL     1     -45.432  61.780 -48.008  1.00  0.00     0.039 A 
HETATM   27  C   UNL     1     -44.729  62.969 -48.195  1.00  0.00     0.068 A 
HETATM   28  C   UNL     1     -44.046  63.171 -49.393  1.00  0.00     0.039 A 
HETATM   29  C   UNL     1     -44.042  62.176 -50.381  1.00  0.00     0.032 A 
BRANCH  27  30
HETATM   30  O   UNL     1     -44.802  63.850 -47.154  1.00  0.00    -0.352 OA
BRANCH  30  31
HETATM   31  C   UNL     1     -45.752  63.552 -46.132  1.00  0.00     0.171 C 
HETATM   32  C   UNL     1     -45.001  63.438 -44.817  1.00  0.00     0.034 C 
ENDBRANCH  30  31
ENDBRANCH  27  30
ENDBRANCH  22  24
ENDBRANCH   1  22
TORSDOF 6
ENDMDL
MODEL 7
REMARK VINA RESULT:      -7.8      1.912      2.453
REMARK  6 active torsions:
REMARK  status: ('A' for Active; 'I' for Inactive)
REMARK    1  A    between atoms: C_2  and  O_3 
REMARK    2  A    between atoms: O_3  and  C_4 
REMARK    3  A    between atoms: C_7  and  N_8 
REMARK    4  A    between atoms: N_8  and  C_9 
REMARK    5  A    between atoms: C_10  and  C_11 
REMARK    6  A    between atoms: C_14  and  C_15 
ROOT
HETATM    1  C   UNL     1     -45.330  58.373 -54.649  1.00  0.00     0.113 C 
HETATM    2  C   UNL     1     -44.761  58.811 -53.509  1.00  0.00     0.082 C 
HETATM    3  C   UNL     1     -45.450  59.893 -52.693  1.00  0.00     0.024 C 
HETATM    4  N   UNL     1     -46.021  60.791 -52.016  1.00  0.00    -0.096 N 
ENDROOT
BRANCH   2   5
HETATM    5  C   UNL     1     -43.483  58.314 -53.078  1.00  0.00     0.119 A 
HETATM    6  S   UNL     1     -42.107  59.374 -52.988  1.00  0.00    -0.078 SA
HETATM    7  C   UNL     1     -41.124  58.083 -52.456  1.00  0.00     0.084 A 
HETATM    8  C   UNL     1     -41.868  56.929 -52.355  1.00  0.00     0.081 A 
HETATM    9  N   UNL     1     -43.208  57.071 -52.702  1.00  0.00    -0.239 NA
BRANCH   8  10
HETATM   10  C   UNL     1     -41.382  55.623 -51.991  1.00  0.00     0.070 A 
HETATM   11  C   UNL     1     -41.128  55.299 -50.549  1.00  0.00     0.301 A 
HETATM   12  O   UNL     1     -41.372  56.083 -49.637  1.00  0.00    -0.259 OA
HETATM   13  O   UNL     1     -40.590  54.046 -50.259  1.00  0.00    -0.274 OA
HETATM   14  C   UNL     1     -40.336  53.093 -51.256  1.00  0.00     0.089 A 
HETATM   15  C   UNL     1     -40.614  53.375 -52.588  1.00  0.00     0.000 A 
HETATM   16  C   UNL     1     -39.804  51.869 -50.859  1.00  0.00     0.039 A 
HETATM   17  C   UNL     1     -40.353  52.400 -53.554  1.00  0.00     0.033 A 
HETATM   18  C   UNL     1     -41.145  54.683 -52.926  1.00  0.00     0.034 A 
HETATM   19  C   UNL     1     -39.819  51.169 -53.167  1.00  0.00     0.012 A 
HETATM   20  C   UNL     1     -39.543  50.898 -51.824  1.00  0.00     0.022 A 
HETATM   21 BR   UNL     1     -39.463  49.851 -54.476  1.00  0.00    -0.051 Br
ENDBRANCH   8  10
ENDBRANCH   2   5
BRANCH   1  22
HETATM   22  N   UNL     1     -44.813  57.468 -55.548  1.00  0.00    -0.364 N 
HETATM   23  H   UNL     1     -44.920  56.487 -55.272  1.00  0.00     0.165 HD
BRANCH  22  24
HETATM   24  C   UNL     1     -44.310  57.667 -56.842  1.00  0.00     0.032 A 
HETATM   25  C   UNL     1     -44.999  58.538 -57.697  1.00  0.00     0.032 A 
HETATM   26  C   UNL     1     -44.561  58.768 -59.004  1.00  0.00     0.039 A 
HETATM   27  C   UNL     1     -43.417  58.135 -59.485  1.00  0.00     0.068 A 
HETATM   28  C   UNL     1     -42.741  57.238 -58.661  1.00  0.00     0.039 A 
HETATM   29  C   UNL     1     -43.191  57.002 -57.354  1.00  0.00     0.032 A 
BRANCH  27  30
HETATM   30  O   UNL     1     -43.076  58.460 -60.768  1.00  0.00    -0.352 OA
BRANCH  30  31
HETATM   31  C   UNL     1     -41.816  59.103 -60.949  1.00  0.00     0.171 C 
HETATM   32  C   UNL     1     -41.932  60.517 -60.405  1.00  0.00     0.034 C 
ENDBRANCH  30  31
ENDBRANCH  27  30
ENDBRANCH  22  24
ENDBRANCH   1  22
TORSDOF 6
ENDMDL
MODEL 8
REMARK VINA RESULT:      -7.7      5.919     10.212
REMARK  6 active torsions:
REMARK  status: ('A' for Active; 'I' for Inactive)
REMARK    1  A    between atoms: C_2  and  O_3 
REMARK    2  A    between atoms: O_3  and  C_4 
REMARK    3  A    between atoms: C_7  and  N_8 
REMARK    4  A    between atoms: N_8  and  C_9 
REMARK    5  A    between atoms: C_10  and  C_11 
REMARK    6  A    between atoms: C_14  and  C_15 
ROOT
HETATM    1  C   UNL     1     -43.186  55.302 -58.050  1.00  0.00     0.113 C 
HETATM    2  C   UNL     1     -43.770  56.020 -59.029  1.00  0.00     0.082 C 
HETATM    3  C   UNL     1     -44.406  55.303 -60.209  1.00  0.00     0.024 C 
HETATM    4  N   UNL     1     -44.933  54.708 -61.189  1.00  0.00    -0.096 N 
ENDROOT
BRANCH   2   5
HETATM    5  C   UNL     1     -43.754  57.458 -59.007  1.00  0.00     0.119 A 
HETATM    6  S   UNL     1     -45.233  58.356 -58.840  1.00  0.00    -0.078 SA
HETATM    7  C   UNL     1     -44.370  59.828 -58.917  1.00  0.00     0.084 A 
HETATM    8  C   UNL     1     -43.022  59.581 -59.047  1.00  0.00     0.081 A 
HETATM    9  N   UNL     1     -42.680  58.233 -59.089  1.00  0.00    -0.239 NA
BRANCH   8  10
HETATM   10  C   UNL     1     -41.979  60.565 -59.196  1.00  0.00     0.070 A 
HETATM   11  C   UNL     1     -41.225  61.039 -57.990  1.00  0.00     0.301 A 
HETATM   12  O   UNL     1     -41.411  60.582 -56.866  1.00  0.00    -0.259 OA
HETATM   13  O   UNL     1     -40.277  62.042 -58.181  1.00  0.00    -0.274 OA
HETATM   14  C   UNL     1     -39.989  62.567 -59.450  1.00  0.00     0.089 A 
HETATM   15  C   UNL     1     -40.655  62.096 -60.575  1.00  0.00     0.000 A 
HETATM   16  C   UNL     1     -39.020  63.563 -59.532  1.00  0.00     0.039 A 
HETATM   17  C   UNL     1     -40.340  62.637 -61.823  1.00  0.00     0.033 A 
HETATM   18  C   UNL     1     -41.671  61.073 -60.405  1.00  0.00     0.034 A 
HETATM   19  C   UNL     1     -39.368  63.637 -61.918  1.00  0.00     0.012 A 
HETATM   20  C   UNL     1     -38.707  64.103 -60.779  1.00  0.00     0.022 A 
HETATM   21 BR   UNL     1     -38.945  64.372 -63.608  1.00  0.00    -0.051 Br
ENDBRANCH   8  10
ENDBRANCH   2   5
BRANCH   1  22
HETATM   22  N   UNL     1     -42.496  55.781 -56.959  1.00  0.00    -0.364 N 
HETATM   23  H   UNL     1     -42.156  56.742 -57.061  1.00  0.00     0.165 HD
BRANCH  22  24
HETATM   24  C   UNL     1     -42.323  55.224 -55.684  1.00  0.00     0.032 A 
HETATM   25  C   UNL     1     -41.198  54.419 -55.456  1.00  0.00     0.032 A 
HETATM   26  C   UNL     1     -40.976  53.821 -54.213  1.00  0.00     0.039 A 
HETATM   27  C   UNL     1     -41.872  54.018 -53.165  1.00  0.00     0.068 A 
HETATM   28  C   UNL     1     -43.015  54.784 -53.386  1.00  0.00     0.039 A 
HETATM   29  C   UNL     1     -43.240  55.374 -54.638  1.00  0.00     0.032 A 
BRANCH  27  30
HETATM   30  O   UNL     1     -41.533  53.402 -51.994  1.00  0.00    -0.352 OA
BRANCH  30  31
HETATM   31  C   UNL     1     -40.183  53.557 -51.560  1.00  0.00     0.171 C 
HETATM   32  C   UNL     1     -40.151  53.352 -50.056  1.00  0.00     0.034 C 
ENDBRANCH  30  31
ENDBRANCH  27  30
ENDBRANCH  22  24
ENDBRANCH   1  22
TORSDOF 6
ENDMDL
MODEL 9
REMARK VINA RESULT:      -7.7      4.092      8.199
REMARK  6 active torsions:
REMARK  status: ('A' for Active; 'I' for Inactive)
REMARK    1  A    between atoms: C_2  and  O_3 
REMARK    2  A    between atoms: O_3  and  C_4 
REMARK    3  A    between atoms: C_7  and  N_8 
REMARK    4  A    between atoms: N_8  and  C_9 
REMARK    5  A    between atoms: C_10  and  C_11 
REMARK    6  A    between atoms: C_14  and  C_15 
ROOT
HETATM    1  C   UNL     1     -43.002  54.959 -56.324  1.00  0.00     0.113 C 
HETATM    2  C   UNL     1     -43.012  56.006 -57.173  1.00  0.00     0.082 C 
HETATM    3  C   UNL     1     -43.190  55.762 -58.663  1.00  0.00     0.024 C 
HETATM    4  N   UNL     1     -43.336  55.561 -59.900  1.00  0.00    -0.096 N 
ENDROOT
BRANCH   2   5
HETATM    5  C   UNL     1     -42.801  57.347 -56.701  1.00  0.00     0.119 A 
HETATM    6  S   UNL     1     -42.271  58.595 -57.791  1.00  0.00    -0.078 SA
HETATM    7  C   UNL     1     -42.270  59.732 -56.517  1.00  0.00     0.084 A 
HETATM    8  C   UNL     1     -42.679  59.135 -55.346  1.00  0.00     0.081 A 
HETATM    9  N   UNL     1     -42.986  57.783 -55.461  1.00  0.00    -0.239 NA
BRANCH   8  10
HETATM   10  C   UNL     1     -42.756  59.754 -54.047  1.00  0.00     0.070 A 
HETATM   11  C   UNL     1     -41.561  59.734 -53.142  1.00  0.00     0.301 A 
HETATM   12  O   UNL     1     -40.479  59.260 -53.476  1.00  0.00    -0.259 OA
HETATM   13  O   UNL     1     -41.712  60.284 -51.870  1.00  0.00    -0.274 OA
HETATM   14  C   UNL     1     -42.910  60.883 -51.452  1.00  0.00     0.089 A 
HETATM   15  C   UNL     1     -44.003  60.943 -52.307  1.00  0.00     0.000 A 
HETATM   16  C   UNL     1     -42.953  61.408 -50.163  1.00  0.00     0.039 A 
HETATM   17  C   UNL     1     -45.178  61.550 -51.859  1.00  0.00     0.033 A 
HETATM   18  C   UNL     1     -43.888  60.350 -53.627  1.00  0.00     0.034 A 
HETATM   19  C   UNL     1     -45.233  62.081 -50.567  1.00  0.00     0.012 A 
HETATM   20  C   UNL     1     -44.127  62.013 -49.717  1.00  0.00     0.022 A 
HETATM   21 BR   UNL     1     -46.827  62.900 -49.961  1.00  0.00    -0.051 Br
ENDBRANCH   8  10
ENDBRANCH   2   5
BRANCH   1  22
HETATM   22  N   UNL     1     -42.772  54.985 -54.967  1.00  0.00    -0.364 N 
HETATM   23  H   UNL     1     -43.407  55.593 -54.441  1.00  0.00     0.165 HD
BRANCH  22  24
HETATM   24  C   UNL     1     -41.919  54.197 -54.181  1.00  0.00     0.032 A 
HETATM   25  C   UNL     1     -41.968  54.348 -52.788  1.00  0.00     0.032 A 
HETATM   26  C   UNL     1     -41.134  53.606 -51.949  1.00  0.00     0.039 A 
HETATM   27  C   UNL     1     -40.232  52.688 -52.484  1.00  0.00     0.068 A 
HETATM   28  C   UNL     1     -40.144  52.552 -53.868  1.00  0.00     0.039 A 
HETATM   29  C   UNL     1     -40.976  53.308 -54.707  1.00  0.00     0.032 A 
BRANCH  27  30
HETATM   30  O   UNL     1     -39.489  52.007 -51.562  1.00  0.00    -0.352 OA
BRANCH  30  31
HETATM   31  C   UNL     1     -39.322  50.608 -51.785  1.00  0.00     0.171 C 
HETATM   32  C   UNL     1     -39.833  49.876 -50.557  1.00  0.00     0.034 C 
ENDBRANCH  30  31
ENDBRANCH  27  30
ENDBRANCH  22  24
ENDBRANCH   1  22
TORSDOF 6
ENDMDL
MODEL 10
REMARK VINA RESULT:      -7.6      2.219      2.844
REMARK  6 active torsions:
REMARK  status: ('A' for Active; 'I' for Inactive)
REMARK    1  A    between atoms: C_2  and  O_3 
REMARK    2  A    between atoms: O_3  and  C_4 
REMARK    3  A    between atoms: C_7  and  N_8 
REMARK    4  A    between atoms: N_8  and  C_9 
REMARK    5  A    between atoms: C_10  and  C_11 
REMARK    6  A    between atoms: C_14  and  C_15 
ROOT
HETATM    1  C   UNL     1     -43.702  60.152 -54.419  1.00  0.00     0.113 C 
HETATM    2  C   UNL     1     -43.782  59.680 -53.160  1.00  0.00     0.082 C 
HETATM    3  C   UNL     1     -44.851  60.217 -52.222  1.00  0.00     0.024 C 
HETATM    4  N   UNL     1     -45.738  60.663 -51.443  1.00  0.00    -0.096 N 
ENDROOT
BRANCH   2   5
HETATM    5  C   UNL     1     -42.836  58.716 -52.666  1.00  0.00     0.119 A 
HETATM    6  S   UNL     1     -41.886  59.055 -51.249  1.00  0.00    -0.078 SA
HETATM    7  C   UNL     1     -41.113  57.538 -51.382  1.00  0.00     0.084 A 
HETATM    8  C   UNL     1     -41.609  56.845 -52.464  1.00  0.00     0.081 A 
HETATM    9  N   UNL     1     -42.592  57.518 -53.183  1.00  0.00    -0.239 NA
BRANCH   8  10
HETATM   10  C   UNL     1     -41.170  55.555 -52.932  1.00  0.00     0.070 A 
HETATM   11  C   UNL     1     -41.068  55.293 -54.405  1.00  0.00     0.301 A 
HETATM   12  O   UNL     1     -41.287  56.155 -55.251  1.00  0.00    -0.259 OA
HETATM   13  O   UNL     1     -40.708  54.008 -54.804  1.00  0.00    -0.274 OA
HETATM   14  C   UNL     1     -40.399  52.998 -53.880  1.00  0.00     0.089 A 
HETATM   15  C   UNL     1     -40.449  53.252 -52.515  1.00  0.00     0.000 A 
HETATM   16  C   UNL     1     -40.045  51.749 -54.384  1.00  0.00     0.039 A 
HETATM   17  C   UNL     1     -40.131  52.224 -51.624  1.00  0.00     0.033 A 
HETATM   18  C   UNL     1     -40.852  54.573 -52.068  1.00  0.00     0.034 A 
HETATM   19  C   UNL     1     -39.773  50.967 -52.118  1.00  0.00     0.012 A 
HETATM   20  C   UNL     1     -39.729  50.724 -53.493  1.00  0.00     0.022 A 
HETATM   21 BR   UNL     1     -39.346  49.575 -50.911  1.00  0.00    -0.051 Br
ENDBRANCH   8  10
ENDBRANCH   2   5
BRANCH   1  22
HETATM   22  N   UNL     1     -42.756  59.844 -55.370  1.00  0.00    -0.364 N 
HETATM   23  H   UNL     1     -41.805  60.142 -55.134  1.00  0.00     0.165 HD
BRANCH  22  24
HETATM   24  C   UNL     1     -42.861  59.055 -56.525  1.00  0.00     0.032 A 
HETATM   25  C   UNL     1     -43.754  57.975 -56.515  1.00  0.00     0.032 A 
HETATM   26  C   UNL     1     -43.894  57.141 -57.627  1.00  0.00     0.039 A 
HETATM   27  C   UNL     1     -43.146  57.371 -58.780  1.00  0.00     0.068 A 
HETATM   28  C   UNL     1     -42.227  58.418 -58.794  1.00  0.00     0.039 A 
HETATM   29  C   UNL     1     -42.081  59.246 -57.671  1.00  0.00     0.032 A 
BRANCH  27  30
HETATM   30  O   UNL     1     -43.389  56.504 -59.807  1.00  0.00    -0.352 OA
BRANCH  30  31
HETATM   31  C   UNL     1     -44.756  56.316 -60.172  1.00  0.00     0.171 C 
HETATM   32  C   UNL     1     -44.831  55.105 -61.085  1.00  0.00     0.034 C 
ENDBRANCH  30  31
ENDBRANCH  27  30
ENDBRANCH  22  24
ENDBRANCH   1  22
TORSDOF 6
ENDMDL
