MODEL 1
REMARK VINA RESULT:      -8.1      0.000      0.000
REMARK  2 active torsions:
REMARK  status: ('A' for Active; 'I' for Inactive)
REMARK    1  A    between atoms: C_8  and  N_9 
REMARK       I    between atoms: N_9  and  C_10 
REMARK       I    between atoms: C_10  and  N_11 
REMARK    2  A    between atoms: N_11  and  C_12 
ROOT
HETATM    1  C   UNL     1     -39.957  50.511 -54.013  1.00  0.00     0.044 A 
HETATM    2  C   UNL     1     -39.604  50.236 -52.699  1.00  0.00     0.117 A 
HETATM    3  F   UNL     1     -39.284  48.984 -52.353  1.00  0.00    -0.206 F 
HETATM    4  C   UNL     1     -39.605  51.234 -51.734  1.00  0.00     0.067 A 
HETATM    5  C   UNL     1     -39.948  52.548 -52.084  1.00  0.00     0.074 A 
HETATM    6  C   UNL     1     -40.088  53.496 -51.013  1.00  0.00     0.102 C 
HETATM    7  N   UNL     1     -40.241  54.252 -50.143  1.00  0.00    -0.191 NA
HETATM    8  C   UNL     1     -40.262  52.854 -53.428  1.00  0.00     0.057 A 
HETATM    9  C   UNL     1     -40.295  51.817 -54.375  1.00  0.00     0.034 A 
ENDROOT
BRANCH   8  10
HETATM   10  N   UNL     1     -40.609  54.144 -53.905  1.00  0.00    -0.308 N 
HETATM   11  C   UNL     1     -41.896  54.562 -54.142  1.00  0.00     0.321 C 
HETATM   12  N   UNL     1     -41.925  55.731 -54.870  1.00  0.00    -0.336 N 
HETATM   13  O   UNL     1     -42.915  54.002 -53.766  1.00  0.00    -0.247 OA
HETATM   14  H   UNL     1     -41.077  55.903 -55.396  1.00  0.00     0.164 HD
HETATM   15  H   UNL     1     -39.964  54.893 -53.688  1.00  0.00     0.170 HD
BRANCH  12  16
HETATM   16  C   UNL     1     -43.160  56.234 -55.450  1.00  0.00     0.118 C 
HETATM   17  C   UNL     1     -43.151  56.599 -56.944  1.00  0.00     0.210 C 
HETATM   18  N   UNL     1     -44.424  57.415 -57.063  1.00  0.00    -0.065 N 
HETATM   19  C   UNL     1     -43.231  55.447 -57.932  1.00  0.00     0.035 C 
HETATM   20  H   UNL     1     -45.235  56.791 -56.940  1.00  0.00     0.280 HD
HETATM   21  C   UNL     1     -44.557  58.063 -58.406  1.00  0.00     0.235 C 
HETATM   22  C   UNL     1     -44.376  58.334 -55.871  1.00  0.00     0.237 C 
HETATM   23  C   UNL     1     -44.604  56.956 -59.458  1.00  0.00     0.028 C 
HETATM   24  C   UNL     1     -43.418  55.989 -59.353  1.00  0.00     0.004 C 
HETATM   25  C   UNL     1     -43.672  57.523 -54.783  1.00  0.00     0.055 C 
ENDBRANCH  12  16
ENDBRANCH   8  10
TORSDOF 2
ENDMDL
MODEL 2
REMARK VINA RESULT:      -8.0      3.105      7.558
REMARK  2 active torsions:
REMARK  status: ('A' for Active; 'I' for Inactive)
REMARK    1  A    between atoms: C_8  and  N_9 
REMARK       I    between atoms: N_9  and  C_10 
REMARK       I    between atoms: C_10  and  N_11 
REMARK    2  A    between atoms: N_11  and  C_12 
ROOT
HETATM    1  C   UNL     1     -43.000  56.007 -58.600  1.00  0.00     0.044 A 
HETATM    2  C   UNL     1     -42.888  57.359 -58.893  1.00  0.00     0.117 A 
HETATM    3  F   UNL     1     -43.026  57.772 -60.158  1.00  0.00    -0.206 F 
HETATM    4  C   UNL     1     -42.608  58.285 -57.897  1.00  0.00     0.067 A 
HETATM    5  C   UNL     1     -42.451  57.862 -56.569  1.00  0.00     0.074 A 
HETATM    6  C   UNL     1     -42.003  58.842 -55.618  1.00  0.00     0.102 C 
HETATM    7  N   UNL     1     -41.600  59.624 -54.858  1.00  0.00    -0.191 NA
HETATM    8  C   UNL     1     -42.612  56.495 -56.248  1.00  0.00     0.057 A 
HETATM    9  C   UNL     1     -42.853  55.574 -57.281  1.00  0.00     0.034 A 
ENDROOT
BRANCH   8  10
HETATM   10  N   UNL     1     -42.493  55.950 -54.944  1.00  0.00    -0.308 N 
HETATM   11  C   UNL     1     -41.337  55.419 -54.428  1.00  0.00     0.321 C 
HETATM   12  N   UNL     1     -41.575  54.705 -53.275  1.00  0.00    -0.336 N 
HETATM   13  O   UNL     1     -40.215  55.545 -54.898  1.00  0.00    -0.247 OA
HETATM   14  H   UNL     1     -42.534  54.392 -53.182  1.00  0.00     0.164 HD
HETATM   15  H   UNL     1     -43.130  56.313 -54.245  1.00  0.00     0.170 HD
BRANCH  12  16
HETATM   16  C   UNL     1     -40.555  53.851 -52.685  1.00  0.00     0.118 C 
HETATM   17  C   UNL     1     -40.656  52.338 -52.940  1.00  0.00     0.210 C 
HETATM   18  N   UNL     1     -39.706  51.792 -51.890  1.00  0.00    -0.065 N 
HETATM   19  C   UNL     1     -40.196  51.839 -54.300  1.00  0.00     0.035 C 
HETATM   20  H   UNL     1     -38.742  52.048 -52.143  1.00  0.00     0.280 HD
HETATM   21  C   UNL     1     -39.765  50.300 -51.796  1.00  0.00     0.235 C 
HETATM   22  C   UNL     1     -40.065  52.561 -50.646  1.00  0.00     0.237 C 
HETATM   23  C   UNL     1     -39.350  49.728 -53.151  1.00  0.00     0.028 C 
HETATM   24  C   UNL     1     -40.167  50.307 -54.312  1.00  0.00     0.004 C 
HETATM   25  C   UNL     1     -40.492  53.940 -51.151  1.00  0.00     0.055 C 
ENDBRANCH  12  16
ENDBRANCH   8  10
TORSDOF 2
ENDMDL
MODEL 3
REMARK VINA RESULT:      -7.7      1.995      3.159
REMARK  2 active torsions:
REMARK  status: ('A' for Active; 'I' for Inactive)
REMARK    1  A    between atoms: C_8  and  N_9 
REMARK       I    between atoms: N_9  and  C_10 
REMARK       I    between atoms: C_10  and  N_11 
REMARK    2  A    between atoms: N_11  and  C_12 
ROOT
HETATM    1  C   UNL     1     -39.765  50.786 -51.100  1.00  0.00     0.044 A 
HETATM    2  C   UNL     1     -39.557  50.302 -52.384  1.00  0.00     0.117 A 
HETATM    3  F   UNL     1     -39.127  49.047 -52.553  1.00  0.00    -0.206 F 
HETATM    4  C   UNL     1     -39.760  51.112 -53.494  1.00  0.00     0.067 A 
HETATM    5  C   UNL     1     -40.200  52.433 -53.329  1.00  0.00     0.074 A 
HETATM    6  C   UNL     1     -40.235  53.264 -54.501  1.00  0.00     0.102 C 
HETATM    7  N   UNL     1     -40.222  53.947 -55.441  1.00  0.00    -0.191 NA
HETATM    8  C   UNL     1     -40.465  52.924 -52.029  1.00  0.00     0.057 A 
HETATM    9  C   UNL     1     -40.210  52.097 -50.922  1.00  0.00     0.034 A 
ENDROOT
BRANCH   8  10
HETATM   10  N   UNL     1     -40.927  54.232 -51.736  1.00  0.00    -0.308 N 
HETATM   11  C   UNL     1     -42.234  54.637 -51.852  1.00  0.00     0.321 C 
HETATM   12  N   UNL     1     -42.350  56.008 -51.793  1.00  0.00    -0.336 N 
HETATM   13  O   UNL     1     -43.204  53.905 -51.985  1.00  0.00    -0.247 OA
HETATM   14  H   UNL     1     -41.493  56.497 -52.022  1.00  0.00     0.164 HD
HETATM   15  H   UNL     1     -40.390  54.758 -51.058  1.00  0.00     0.170 HD
BRANCH  12  16
HETATM   16  C   UNL     1     -43.593  56.681 -52.135  1.00  0.00     0.118 C 
HETATM   17  C   UNL     1     -43.665  57.401 -53.492  1.00  0.00     0.210 C 
HETATM   18  N   UNL     1     -44.898  58.265 -53.310  1.00  0.00    -0.065 N 
HETATM   19  C   UNL     1     -43.872  56.530 -54.720  1.00  0.00     0.035 C 
HETATM   20  H   UNL     1     -45.731  57.659 -53.278  1.00  0.00     0.280 HD
HETATM   21  C   UNL     1     -45.087  59.227 -54.440  1.00  0.00     0.235 C 
HETATM   22  C   UNL     1     -44.721  58.861 -51.938  1.00  0.00     0.237 C 
HETATM   23  C   UNL     1     -45.263  58.415 -55.723  1.00  0.00     0.028 C 
HETATM   24  C   UNL     1     -44.126  57.412 -55.949  1.00  0.00     0.004 C 
HETATM   25  C   UNL     1     -43.989  57.783 -51.137  1.00  0.00     0.055 C 
ENDBRANCH  12  16
ENDBRANCH   8  10
TORSDOF 2
ENDMDL
MODEL 4
REMARK VINA RESULT:      -7.4      2.034      2.969
REMARK  2 active torsions:
REMARK  status: ('A' for Active; 'I' for Inactive)
REMARK    1  A    between atoms: C_8  and  N_9 
REMARK       I    between atoms: N_9  and  C_10 
REMARK       I    between atoms: C_10  and  N_11 
REMARK    2  A    between atoms: N_11  and  C_12 
ROOT
HETATM    1  C   UNL     1     -40.921  55.033 -49.234  1.00  0.00     0.044 A 
HETATM    2  C   UNL     1     -40.653  53.674 -49.319  1.00  0.00     0.117 A 
HETATM    3  F   UNL     1     -40.429  52.976 -48.200  1.00  0.00    -0.206 F 
HETATM    4  C   UNL     1     -40.587  53.034 -50.549  1.00  0.00     0.067 A 
HETATM    5  C   UNL     1     -40.810  53.758 -51.730  1.00  0.00     0.074 A 
HETATM    6  C   UNL     1     -40.567  53.077 -52.972  1.00  0.00     0.102 C 
HETATM    7  N   UNL     1     -40.330  52.539 -53.975  1.00  0.00    -0.191 NA
HETATM    8  C   UNL     1     -41.133  55.132 -51.657  1.00  0.00     0.057 A 
HETATM    9  C   UNL     1     -41.152  55.764 -50.402  1.00  0.00     0.034 A 
ENDROOT
BRANCH   8  10
HETATM   10  N   UNL     1     -41.394  55.964 -52.776  1.00  0.00    -0.308 N 
HETATM   11  C   UNL     1     -42.633  56.134 -53.343  1.00  0.00     0.321 C 
HETATM   12  N   UNL     1     -42.550  56.747 -54.573  1.00  0.00    -0.336 N 
HETATM   13  O   UNL     1     -43.702  55.804 -52.849  1.00  0.00    -0.247 OA
HETATM   14  H   UNL     1     -41.640  56.660 -55.009  1.00  0.00     0.164 HD
HETATM   15  H   UNL     1     -40.766  56.747 -52.911  1.00  0.00     0.170 HD
BRANCH  12  16
HETATM   16  C   UNL     1     -43.694  56.813 -55.468  1.00  0.00     0.118 C 
HETATM   17  C   UNL     1     -43.416  56.906 -56.977  1.00  0.00     0.210 C 
HETATM   18  N   UNL     1     -44.770  57.338 -57.508  1.00  0.00    -0.065 N 
HETATM   19  C   UNL     1     -43.017  55.620 -57.683  1.00  0.00     0.035 C 
HETATM   20  H   UNL     1     -45.435  56.559 -57.402  1.00  0.00     0.280 HD
HETATM   21  C   UNL     1     -44.721  57.691 -58.962  1.00  0.00     0.235 C 
HETATM   22  C   UNL     1     -45.196  58.429 -56.562  1.00  0.00     0.237 C 
HETATM   23  C   UNL     1     -44.286  56.446 -59.733  1.00  0.00     0.028 C 
HETATM   24  C   UNL     1     -42.980  55.845 -59.199  1.00  0.00     0.004 C 
HETATM   25  C   UNL     1     -44.608  58.023 -55.210  1.00  0.00     0.055 C 
ENDBRANCH  12  16
ENDBRANCH   8  10
TORSDOF 2
ENDMDL
MODEL 5
REMARK VINA RESULT:      -7.4      2.693      3.356
REMARK  2 active torsions:
REMARK  status: ('A' for Active; 'I' for Inactive)
REMARK    1  A    between atoms: C_8  and  N_9 
REMARK       I    between atoms: N_9  and  C_10 
REMARK       I    between atoms: C_10  and  N_11 
REMARK    2  A    between atoms: N_11  and  C_12 
ROOT
HETATM    1  C   UNL     1     -40.208  52.188 -54.342  1.00  0.00     0.044 A 
HETATM    2  C   UNL     1     -39.714  51.291 -53.405  1.00  0.00     0.117 A 
HETATM    3  F   UNL     1     -39.269  50.096 -53.809  1.00  0.00    -0.206 F 
HETATM    4  C   UNL     1     -39.701  51.605 -52.053  1.00  0.00     0.067 A 
HETATM    5  C   UNL     1     -40.174  52.852 -51.616  1.00  0.00     0.074 A 
HETATM    6  C   UNL     1     -40.284  53.051 -50.197  1.00  0.00     0.102 C 
HETATM    7  N   UNL     1     -40.413  53.196 -49.051  1.00  0.00    -0.191 NA
HETATM    8  C   UNL     1     -40.634  53.795 -52.564  1.00  0.00     0.057 A 
HETATM    9  C   UNL     1     -40.676  53.435 -53.921  1.00  0.00     0.034 A 
ENDROOT
BRANCH   8  10
HETATM   10  N   UNL     1     -41.122  55.089 -52.248  1.00  0.00    -0.308 N 
HETATM   11  C   UNL     1     -42.450  55.435 -52.234  1.00  0.00     0.321 C 
HETATM   12  N   UNL     1     -42.620  56.800 -52.188  1.00  0.00    -0.336 N 
HETATM   13  O   UNL     1     -43.396  54.659 -52.252  1.00  0.00    -0.247 OA
HETATM   14  H   UNL     1     -41.815  57.320 -52.514  1.00  0.00     0.164 HD
HETATM   15  H   UNL     1     -40.541  55.652 -51.639  1.00  0.00     0.170 HD
BRANCH  12  16
HETATM   16  C   UNL     1     -43.921  57.412 -52.411  1.00  0.00     0.118 C 
HETATM   17  C   UNL     1     -43.962  58.740 -53.186  1.00  0.00     0.210 C 
HETATM   18  N   UNL     1     -45.365  59.228 -52.875  1.00  0.00    -0.065 N 
HETATM   19  C   UNL     1     -43.813  58.657 -54.696  1.00  0.00     0.035 C 
HETATM   20  H   UNL     1     -46.045  58.615 -53.346  1.00  0.00     0.280 HD
HETATM   21  C   UNL     1     -45.600  60.622 -53.365  1.00  0.00     0.235 C 
HETATM   22  C   UNL     1     -45.504  59.000 -51.393  1.00  0.00     0.237 C 
HETATM   23  C   UNL     1     -45.426  60.621 -54.883  1.00  0.00     0.028 C 
HETATM   24  C   UNL     1     -44.081  60.030 -55.323  1.00  0.00     0.004 C 
HETATM   25  C   UNL     1     -44.673  57.747 -51.111  1.00  0.00     0.055 C 
ENDBRANCH  12  16
ENDBRANCH   8  10
TORSDOF 2
ENDMDL
MODEL 6
REMARK VINA RESULT:      -7.3      3.288      7.812
REMARK  2 active torsions:
REMARK  status: ('A' for Active; 'I' for Inactive)
REMARK    1  A    between atoms: C_8  and  N_9 
REMARK       I    between atoms: N_9  and  C_10 
REMARK       I    between atoms: C_10  and  N_11 
REMARK    2  A    between atoms: N_11  and  C_12 
ROOT
HETATM    1  C   UNL     1     -44.153  56.944 -58.597  1.00  0.00     0.044 A 
HETATM    2  C   UNL     1     -44.423  58.247 -58.206  1.00  0.00     0.117 A 
HETATM    3  F   UNL     1     -45.297  58.978 -58.907  1.00  0.00    -0.206 F 
HETATM    4  C   UNL     1     -43.778  58.813 -57.114  1.00  0.00     0.067 A 
HETATM    5  C   UNL     1     -42.852  58.060 -56.377  1.00  0.00     0.074 A 
HETATM    6  C   UNL     1     -42.103  58.752 -55.364  1.00  0.00     0.102 C 
HETATM    7  N   UNL     1     -41.468  59.321 -54.575  1.00  0.00    -0.191 NA
HETATM    8  C   UNL     1     -42.604  56.715 -56.734  1.00  0.00     0.057 A 
HETATM    9  C   UNL     1     -43.238  56.181 -57.868  1.00  0.00     0.034 A 
ENDROOT
BRANCH   8  10
HETATM   10  N   UNL     1     -41.704  55.851 -56.060  1.00  0.00    -0.308 N 
HETATM   11  C   UNL     1     -42.068  54.976 -55.066  1.00  0.00     0.321 C 
HETATM   12  N   UNL     1     -40.971  54.486 -54.393  1.00  0.00    -0.336 N 
HETATM   13  O   UNL     1     -43.210  54.641 -54.785  1.00  0.00    -0.247 OA
HETATM   14  H   UNL     1     -40.149  55.070 -54.477  1.00  0.00     0.164 HD
HETATM   15  H   UNL     1     -40.876  55.573 -56.572  1.00  0.00     0.170 HD
BRANCH  12  16
HETATM   16  C   UNL     1     -41.111  53.740 -53.152  1.00  0.00     0.118 C 
HETATM   17  C   UNL     1     -40.749  54.459 -51.842  1.00  0.00     0.210 C 
HETATM   18  N   UNL     1     -40.647  53.293 -50.876  1.00  0.00    -0.065 N 
HETATM   19  C   UNL     1     -41.770  55.442 -51.293  1.00  0.00     0.035 C 
HETATM   20  H   UNL     1     -41.587  52.902 -50.721  1.00  0.00     0.280 HD
HETATM   21  C   UNL     1     -40.108  53.708 -49.543  1.00  0.00     0.235 C 
HETATM   22  C   UNL     1     -39.850  52.265 -51.636  1.00  0.00     0.237 C 
HETATM   23  C   UNL     1     -41.072  54.734 -48.947  1.00  0.00     0.028 C 
HETATM   24  C   UNL     1     -41.348  55.907 -49.894  1.00  0.00     0.004 C 
HETATM   25  C   UNL     1     -40.248  52.468 -53.099  1.00  0.00     0.055 C 
ENDBRANCH  12  16
ENDBRANCH   8  10
TORSDOF 2
ENDMDL
MODEL 7
REMARK VINA RESULT:      -7.3      1.959      2.108
REMARK  2 active torsions:
REMARK  status: ('A' for Active; 'I' for Inactive)
REMARK    1  A    between atoms: C_8  and  N_9 
REMARK       I    between atoms: N_9  and  C_10 
REMARK       I    between atoms: C_10  and  N_11 
REMARK    2  A    between atoms: N_11  and  C_12 
ROOT
HETATM    1  C   UNL     1     -39.833  51.778 -53.596  1.00  0.00     0.044 A 
HETATM    2  C   UNL     1     -39.718  52.047 -52.239  1.00  0.00     0.117 A 
HETATM    3  F   UNL     1     -38.777  51.424 -51.522  1.00  0.00    -0.206 F 
HETATM    4  C   UNL     1     -40.584  52.932 -51.611  1.00  0.00     0.067 A 
HETATM    5  C   UNL     1     -41.581  53.584 -52.350  1.00  0.00     0.074 A 
HETATM    6  C   UNL     1     -42.542  54.359 -51.615  1.00  0.00     0.102 C 
HETATM    7  N   UNL     1     -43.344  54.950 -51.015  1.00  0.00    -0.191 NA
HETATM    8  C   UNL     1     -41.679  53.358 -53.743  1.00  0.00     0.057 A 
HETATM    9  C   UNL     1     -40.818  52.425 -54.345  1.00  0.00     0.034 A 
ENDROOT
BRANCH   8  10
HETATM   10  N   UNL     1     -42.633  53.967 -54.597  1.00  0.00    -0.308 N 
HETATM   11  C   UNL     1     -42.406  55.114 -55.318  1.00  0.00     0.321 C 
HETATM   12  N   UNL     1     -43.576  55.639 -55.820  1.00  0.00    -0.336 N 
HETATM   13  O   UNL     1     -41.318  55.634 -55.520  1.00  0.00    -0.247 OA
HETATM   14  H   UNL     1     -44.404  55.336 -55.321  1.00  0.00     0.164 HD
HETATM   15  H   UNL     1     -43.331  53.356 -55.001  1.00  0.00     0.170 HD
BRANCH  12  16
HETATM   16  C   UNL     1     -43.623  56.970 -56.404  1.00  0.00     0.118 C 
HETATM   17  C   UNL     1     -42.697  57.261 -57.596  1.00  0.00     0.210 C 
HETATM   18  N   UNL     1     -42.744  58.776 -57.653  1.00  0.00    -0.065 N 
HETATM   19  C   UNL     1     -43.130  56.721 -58.949  1.00  0.00     0.035 C 
HETATM   20  H   UNL     1     -43.682  59.071 -57.959  1.00  0.00     0.280 HD
HETATM   21  C   UNL     1     -41.757  59.336 -58.629  1.00  0.00     0.235 C 
HETATM   22  C   UNL     1     -42.585  59.195 -56.216  1.00  0.00     0.237 C 
HETATM   23  C   UNL     1     -42.112  58.799 -60.015  1.00  0.00     0.028 C 
HETATM   24  C   UNL     1     -42.213  57.270 -60.049  1.00  0.00     0.004 C 
HETATM   25  C   UNL     1     -43.269  58.090 -55.410  1.00  0.00     0.055 C 
ENDBRANCH  12  16
ENDBRANCH   8  10
TORSDOF 2
ENDMDL
MODEL 8
REMARK VINA RESULT:      -7.2      3.362      8.146
REMARK  2 active torsions:
REMARK  status: ('A' for Active; 'I' for Inactive)
REMARK    1  A    between atoms: C_8  and  N_9 
REMARK       I    between atoms: N_9  and  C_10 
REMARK       I    between atoms: C_10  and  N_11 
REMARK    2  A    between atoms: N_11  and  C_12 
ROOT
HETATM    1  C   UNL     1     -43.858  59.081 -56.660  1.00  0.00     0.044 A 
HETATM    2  C   UNL     1     -44.636  59.019 -57.808  1.00  0.00     0.117 A 
HETATM    3  F   UNL     1     -45.432  60.048 -58.121  1.00  0.00    -0.206 F 
HETATM    4  C   UNL     1     -44.621  57.893 -58.621  1.00  0.00     0.067 A 
HETATM    5  C   UNL     1     -43.799  56.804 -58.298  1.00  0.00     0.074 A 
HETATM    6  C   UNL     1     -43.951  55.612 -59.085  1.00  0.00     0.102 C 
HETATM    7  N   UNL     1     -44.104  54.634 -59.695  1.00  0.00    -0.191 NA
HETATM    8  C   UNL     1     -42.964  56.873 -57.159  1.00  0.00     0.057 A 
HETATM    9  C   UNL     1     -43.030  58.006 -56.331  1.00  0.00     0.034 A 
ENDROOT
BRANCH   8  10
HETATM   10  N   UNL     1     -42.080  55.846 -56.739  1.00  0.00    -0.308 N 
HETATM   11  C   UNL     1     -42.358  54.945 -55.741  1.00  0.00     0.321 C 
HETATM   12  N   UNL     1     -41.231  54.262 -55.343  1.00  0.00    -0.336 N 
HETATM   13  O   UNL     1     -43.456  54.738 -55.244  1.00  0.00    -0.247 OA
HETATM   14  H   UNL     1     -40.367  54.740 -55.567  1.00  0.00     0.164 HD
HETATM   15  H   UNL     1     -41.421  55.508 -57.430  1.00  0.00     0.170 HD
BRANCH  12  16
HETATM   16  C   UNL     1     -41.224  53.439 -54.144  1.00  0.00     0.118 C 
HETATM   17  C   UNL     1     -40.686  54.069 -52.849  1.00  0.00     0.210 C 
HETATM   18  N   UNL     1     -40.480  52.842 -51.979  1.00  0.00    -0.065 N 
HETATM   19  C   UNL     1     -41.613  55.022 -52.112  1.00  0.00     0.035 C 
HETATM   20  H   UNL     1     -41.399  52.450 -51.731  1.00  0.00     0.280 HD
HETATM   21  C   UNL     1     -39.770  53.166 -50.703  1.00  0.00     0.235 C 
HETATM   22  C   UNL     1     -39.803  51.860 -52.898  1.00  0.00     0.237 C 
HETATM   23  C   UNL     1     -40.633  54.158 -49.925  1.00  0.00     0.028 C 
HETATM   24  C   UNL     1     -41.009  55.393 -50.753  1.00  0.00     0.004 C 
HETATM   25  C   UNL     1     -40.382  52.159 -54.282  1.00  0.00     0.055 C 
ENDBRANCH  12  16
ENDBRANCH   8  10
TORSDOF 2
ENDMDL
MODEL 9
REMARK VINA RESULT:      -7.2      4.056      8.264
REMARK  2 active torsions:
REMARK  status: ('A' for Active; 'I' for Inactive)
REMARK    1  A    between atoms: C_8  and  N_9 
REMARK       I    between atoms: N_9  and  C_10 
REMARK       I    between atoms: C_10  and  N_11 
REMARK    2  A    between atoms: N_11  and  C_12 
ROOT
HETATM    1  C   UNL     1     -45.964  60.037 -51.534  1.00  0.00     0.044 A 
HETATM    2  C   UNL     1     -45.820  60.534 -52.822  1.00  0.00     0.117 A 
HETATM    3  F   UNL     1     -46.271  61.760 -53.109  1.00  0.00    -0.206 F 
HETATM    4  C   UNL     1     -45.242  59.765 -53.823  1.00  0.00     0.067 A 
HETATM    5  C   UNL     1     -44.775  58.474 -53.537  1.00  0.00     0.074 A 
HETATM    6  C   UNL     1     -44.338  57.673 -54.647  1.00  0.00     0.102 C 
HETATM    7  N   UNL     1     -44.024  57.012 -55.550  1.00  0.00    -0.191 NA
HETATM    8  C   UNL     1     -44.869  57.974 -52.218  1.00  0.00     0.057 A 
HETATM    9  C   UNL     1     -45.498  58.756 -51.234  1.00  0.00     0.034 A 
ENDROOT
BRANCH   8  10
HETATM   10  N   UNL     1     -44.421  56.694 -51.803  1.00  0.00    -0.308 N 
HETATM   11  C   UNL     1     -43.122  56.398 -51.468  1.00  0.00     0.321 C 
HETATM   12  N   UNL     1     -42.912  55.040 -51.393  1.00  0.00    -0.336 N 
HETATM   13  O   UNL     1     -42.233  57.209 -51.250  1.00  0.00    -0.247 OA
HETATM   14  H   UNL     1     -43.592  54.495 -51.909  1.00  0.00     0.164 HD
HETATM   15  H   UNL     1     -45.108  56.098 -51.358  1.00  0.00     0.170 HD
BRANCH  12  16
HETATM   16  C   UNL     1     -41.572  54.481 -51.297  1.00  0.00     0.118 C 
HETATM   17  C   UNL     1     -41.269  53.211 -52.108  1.00  0.00     0.210 C 
HETATM   18  N   UNL     1     -39.977  52.744 -51.464  1.00  0.00    -0.065 N 
HETATM   19  C   UNL     1     -41.020  53.389 -53.596  1.00  0.00     0.035 C 
HETATM   20  H   UNL     1     -39.225  53.405 -51.703  1.00  0.00     0.280 HD
HETATM   21  C   UNL     1     -39.558  51.392 -51.952  1.00  0.00     0.235 C 
HETATM   22  C   UNL     1     -40.242  52.876 -49.988  1.00  0.00     0.237 C 
HETATM   23  C   UNL     1     -39.327  51.489 -53.460  1.00  0.00     0.028 C 
HETATM   24  C   UNL     1     -40.534  52.069 -54.207  1.00  0.00     0.004 C 
HETATM   25  C   UNL     1     -41.174  54.083 -49.866  1.00  0.00     0.055 C 
ENDBRANCH  12  16
ENDBRANCH   8  10
TORSDOF 2
ENDMDL
MODEL 10
REMARK VINA RESULT:      -7.1      4.461      7.931
REMARK  2 active torsions:
REMARK  status: ('A' for Active; 'I' for Inactive)
REMARK    1  A    between atoms: C_8  and  N_9 
REMARK       I    between atoms: N_9  and  C_10 
REMARK       I    between atoms: C_10  and  N_11 
REMARK    2  A    between atoms: N_11  and  C_12 
ROOT
HETATM    1  C   UNL     1     -44.319  59.988 -51.363  1.00  0.00     0.044 A 
HETATM    2  C   UNL     1     -43.612  60.679 -50.390  1.00  0.00     0.117 A 
HETATM    3  F   UNL     1     -44.250  61.566 -49.618  1.00  0.00    -0.206 F 
HETATM    4  C   UNL     1     -42.247  60.484 -50.224  1.00  0.00     0.067 A 
HETATM    5  C   UNL     1     -41.566  59.564 -51.035  1.00  0.00     0.074 A 
HETATM    6  C   UNL     1     -40.133  59.529 -50.924  1.00  0.00     0.102 C 
HETATM    7  N   UNL     1     -38.972  59.530 -50.865  1.00  0.00    -0.191 NA
HETATM    8  C   UNL     1     -42.282  58.816 -51.997  1.00  0.00     0.057 A 
HETATM    9  C   UNL     1     -43.654  59.064 -52.172  1.00  0.00     0.034 A 
ENDROOT
BRANCH   8  10
HETATM   10  N   UNL     1     -41.709  57.850 -52.863  1.00  0.00    -0.308 N 
HETATM   11  C   UNL     1     -42.066  56.524 -52.888  1.00  0.00     0.321 C 
HETATM   12  N   UNL     1     -41.161  55.767 -53.597  1.00  0.00    -0.336 N 
HETATM   13  O   UNL     1     -43.058  56.036 -52.366  1.00  0.00    -0.247 OA
HETATM   14  H   UNL     1     -40.248  56.197 -53.679  1.00  0.00     0.164 HD
HETATM   15  H   UNL     1     -41.334  58.194 -53.738  1.00  0.00     0.170 HD
BRANCH  12  16
HETATM   16  C   UNL     1     -41.191  54.313 -53.559  1.00  0.00     0.118 C 
HETATM   17  C   UNL     1     -40.432  53.613 -52.420  1.00  0.00     0.210 C 
HETATM   18  N   UNL     1     -40.369  52.186 -52.930  1.00  0.00    -0.065 N 
HETATM   19  C   UNL     1     -41.102  53.599 -51.055  1.00  0.00     0.035 C 
HETATM   20  H   UNL     1     -41.317  51.782 -52.915  1.00  0.00     0.280 HD
HETATM   21  C   UNL     1     -39.498  51.317 -52.078  1.00  0.00     0.235 C 
HETATM   22  C   UNL     1     -39.966  52.338 -54.373  1.00  0.00     0.237 C 
HETATM   23  C   UNL     1     -40.095  51.291 -50.672  1.00  0.00     0.028 C 
HETATM   24  C   UNL     1     -40.320  52.694 -50.097  1.00  0.00     0.004 C 
HETATM   25  C   UNL     1     -40.607  53.653 -54.820  1.00  0.00     0.055 C 
ENDBRANCH  12  16
ENDBRANCH   8  10
TORSDOF 2
ENDMDL
