MODEL 1
REMARK VINA RESULT:      -6.9      0.000      0.000
REMARK  13 active torsions:
REMARK  status: ('A' for Active; 'I' for Inactive)
REMARK    1  A    between atoms: C_2  and  N_3 
REMARK    2  A    between atoms: N_3  and  C_5 
REMARK    3  A    between atoms: N_3  and  C_34 
REMARK    4  A    between atoms: C_5  and  C_6 
REMARK    5  A    between atoms: N_7  and  C_8 
REMARK    6  A    between atoms: C_12  and  N_13 
REMARK    7  A    between atoms: C_16  and  C_17 
REMARK       I    between atoms: C_17  and  N_18 
REMARK    8  A    between atoms: N_18  and  N_19 
REMARK    9  A    between atoms: C_20  and  C_21 
REMARK   10  A    between atoms: C_22  and  O_23 
REMARK   11  A    between atoms: C_25  and  N_26 
REMARK   12  A    between atoms: N_26  and  C_27 
REMARK   13  A    between atoms: N_26  and  C_29 
ROOT
HETATM    1  C   UNL     1     -40.974  53.551 -52.879  1.00  0.00     0.096 A 
HETATM    2  N   UNL     1     -40.196  52.544 -53.452  1.00  0.00    -0.215 N 
HETATM    3  N   UNL     1     -39.846  52.935 -54.709  1.00  0.00     0.012 NA
HETATM    4  N   UNL     1     -40.444  54.078 -54.999  1.00  0.00    -0.152 NA
HETATM    5  C   UNL     1     -41.158  54.465 -53.909  1.00  0.00     0.170 A 
ENDROOT
BRANCH   5   6
HETATM    6  C   UNL     1     -41.984  55.663 -53.860  1.00  0.00     0.293 C 
HETATM    7  N   UNL     1     -41.308  56.804 -53.475  1.00  0.00    -0.242 N 
HETATM    8  H   UNL     1     -40.312  56.764 -53.265  1.00  0.00     0.192 HD
HETATM    9  O   UNL     1     -43.174  55.593 -54.164  1.00  0.00    -0.264 OA
BRANCH   7  10
HETATM   10  N   UNL     1     -41.989  57.975 -53.346  1.00  0.00    -0.183 NA
HETATM   11  C   UNL     1     -41.852  58.590 -52.211  1.00  0.00     0.153 C 
BRANCH  11  12
HETATM   12  C   UNL     1     -42.548  59.865 -51.948  1.00  0.00     0.016 A 
HETATM   13  C   UNL     1     -42.560  60.915 -52.866  1.00  0.00     0.079 A 
HETATM   14  C   UNL     1     -43.226  62.107 -52.568  1.00  0.00     0.066 A 
HETATM   15  C   UNL     1     -43.905  62.304 -51.352  1.00  0.00     0.032 A 
HETATM   16  C   UNL     1     -43.879  61.222 -50.452  1.00  0.00     0.030 A 
HETATM   17  C   UNL     1     -43.215  60.019 -50.736  1.00  0.00     0.018 A 
BRANCH  13  18
HETATM   18  O   UNL     1     -41.937  60.850 -54.085  1.00  0.00    -0.360 OA
HETATM   19  H   UNL     1     -42.353  60.121 -54.592  1.00  0.00     0.217 HD
ENDBRANCH  13  18
BRANCH  15  20
HETATM   20  N   UNL     1     -44.554  63.496 -51.051  1.00  0.00    -0.382 N 
BRANCH  20  21
HETATM   21  C   UNL     1     -46.020  63.600 -51.055  1.00  0.00     0.118 C 
HETATM   22  C   UNL     1     -46.567  63.750 -49.644  1.00  0.00     0.026 C 
ENDBRANCH  20  21
BRANCH  20  23
HETATM   23  C   UNL     1     -43.812  64.733 -50.758  1.00  0.00     0.118 C 
HETATM   24  C   UNL     1     -42.869  64.556 -49.576  1.00  0.00     0.026 C 
ENDBRANCH  20  23
ENDBRANCH  15  20
ENDBRANCH  11  12
ENDBRANCH   7  10
ENDBRANCH   5   6
BRANCH   1  25
HETATM   25  C   UNL     1     -41.410  53.636 -51.462  1.00  0.00     0.296 C 
BRANCH  25  26
HETATM   26  N   UNL     1     -40.751  54.746 -50.663  1.00  0.00    -0.066 N 
HETATM   27  H   UNL     1     -40.230  55.317 -51.359  1.00  0.00     0.280 HD
BRANCH  26  28
HETATM   28  C   UNL     1     -39.707  54.198 -49.702  1.00  0.00     0.231 C 
HETATM   29  C   UNL     1     -40.303  53.978 -48.323  1.00  0.00     0.034 C 
ENDBRANCH  26  28
BRANCH  26  30
HETATM   30  C   UNL     1     -41.762  55.631 -49.966  1.00  0.00     0.231 C 
HETATM   31  C   UNL     1     -43.146  55.451 -50.566  1.00  0.00     0.034 C 
ENDBRANCH  26  30
ENDBRANCH  25  26
ENDBRANCH   1  25
BRANCH   2  32
HETATM   32  C   UNL     1     -39.833  51.278 -52.933  1.00  0.00     0.225 A 
HETATM   33  N   UNL     1     -39.470  51.153 -51.655  1.00  0.00    -0.081 NA
HETATM   34  O   UNL     1     -39.221  49.785 -51.511  1.00  0.00    -0.103 OA
HETATM   35  N   UNL     1     -39.464  49.105 -52.695  1.00  0.00    -0.083 NA
HETATM   36  C   UNL     1     -39.845  50.027 -53.576  1.00  0.00     0.201 A 
BRANCH  36  37
HETATM   37  N   UNL     1     -40.178  49.770 -54.850  1.00  0.00    -0.379 N 
HETATM   38  H   UNL     1     -40.927  50.294 -55.296  1.00  0.00     0.158 HD
HETATM   39  H   UNL     1     -39.597  49.232 -55.490  1.00  0.00     0.158 HD
ENDBRANCH  36  37
ENDBRANCH   2  32
TORSDOF 13
ENDMDL
MODEL 2
REMARK VINA RESULT:      -6.8      2.034      2.632
REMARK  13 active torsions:
REMARK  status: ('A' for Active; 'I' for Inactive)
REMARK    1  A    between atoms: C_2  and  N_3 
REMARK    2  A    between atoms: N_3  and  C_5 
REMARK    3  A    between atoms: N_3  and  C_34 
REMARK    4  A    between atoms: C_5  and  C_6 
REMARK    5  A    between atoms: N_7  and  C_8 
REMARK    6  A    between atoms: C_12  and  N_13 
REMARK    7  A    between atoms: C_16  and  C_17 
REMARK       I    between atoms: C_17  and  N_18 
REMARK    8  A    between atoms: N_18  and  N_19 
REMARK    9  A    between atoms: C_20  and  C_21 
REMARK   10  A    between atoms: C_22  and  O_23 
REMARK   11  A    between atoms: C_25  and  N_26 
REMARK   12  A    between atoms: N_26  and  C_27 
REMARK   13  A    between atoms: N_26  and  C_29 
ROOT
HETATM    1  C   UNL     1     -40.858  53.636 -52.848  1.00  0.00     0.096 A 
HETATM    2  N   UNL     1     -40.141  52.577 -53.407  1.00  0.00    -0.215 N 
HETATM    3  N   UNL     1     -39.779  52.926 -54.673  1.00  0.00     0.012 NA
HETATM    4  N   UNL     1     -40.316  54.095 -54.980  1.00  0.00    -0.152 NA
HETATM    5  C   UNL     1     -40.999  54.540 -53.892  1.00  0.00     0.170 A 
ENDROOT
BRANCH   5   6
HETATM    6  C   UNL     1     -41.757  55.782 -53.859  1.00  0.00     0.293 C 
HETATM    7  N   UNL     1     -43.113  55.616 -53.658  1.00  0.00    -0.242 N 
HETATM    8  H   UNL     1     -43.502  54.683 -53.535  1.00  0.00     0.192 HD
HETATM    9  O   UNL     1     -41.170  56.856 -53.993  1.00  0.00    -0.264 OA
BRANCH   7  10
HETATM   10  N   UNL     1     -43.929  56.705 -53.658  1.00  0.00    -0.183 NA
HETATM   11  C   UNL     1     -43.943  57.404 -52.565  1.00  0.00     0.153 C 
BRANCH  11  12
HETATM   12  C   UNL     1     -44.796  58.603 -52.440  1.00  0.00     0.016 A 
HETATM   13  C   UNL     1     -45.446  58.939 -51.253  1.00  0.00     0.079 A 
HETATM   14  C   UNL     1     -46.251  60.080 -51.185  1.00  0.00     0.066 A 
HETATM   15  C   UNL     1     -46.442  60.930 -52.290  1.00  0.00     0.032 A 
HETATM   16  C   UNL     1     -45.767  60.565 -53.470  1.00  0.00     0.030 A 
HETATM   17  C   UNL     1     -44.956  59.423 -53.553  1.00  0.00     0.018 A 
BRANCH  13  18
HETATM   18  O   UNL     1     -45.341  58.195 -50.106  1.00  0.00    -0.360 OA
HETATM   19  H   UNL     1     -44.421  57.860 -50.053  1.00  0.00     0.217 HD
ENDBRANCH  13  18
BRANCH  15  20
HETATM   20  N   UNL     1     -47.255  62.055 -52.225  1.00  0.00    -0.382 N 
BRANCH  20  21
HETATM   21  C   UNL     1     -46.827  63.279 -51.532  1.00  0.00     0.118 C 
HETATM   22  C   UNL     1     -47.347  63.316 -50.104  1.00  0.00     0.026 C 
ENDBRANCH  20  21
BRANCH  20  23
HETATM   23  C   UNL     1     -48.608  62.072 -52.804  1.00  0.00     0.118 C 
HETATM   24  C   UNL     1     -48.925  63.413 -53.453  1.00  0.00     0.026 C 
ENDBRANCH  20  23
ENDBRANCH  15  20
ENDBRANCH  11  12
ENDBRANCH   7  10
ENDBRANCH   5   6
BRANCH   1  25
HETATM   25  C   UNL     1     -41.279  53.769 -51.429  1.00  0.00     0.296 C 
BRANCH  25  26
HETATM   26  N   UNL     1     -40.539  54.842 -50.649  1.00  0.00    -0.066 N 
HETATM   27  H   UNL     1     -39.880  55.274 -51.328  1.00  0.00     0.280 HD
BRANCH  26  28
HETATM   28  C   UNL     1     -39.677  54.239 -49.551  1.00  0.00     0.231 C 
HETATM   29  C   UNL     1     -40.453  54.132 -48.250  1.00  0.00     0.034 C 
ENDBRANCH  26  28
BRANCH  26  30
HETATM   30  C   UNL     1     -41.469  55.915 -50.124  1.00  0.00     0.231 C 
HETATM   31  C   UNL     1     -40.963  57.299 -50.493  1.00  0.00     0.034 C 
ENDBRANCH  26  30
ENDBRANCH  25  26
ENDBRANCH   1  25
BRANCH   2  32
HETATM   32  C   UNL     1     -39.845  51.302 -52.868  1.00  0.00     0.225 A 
HETATM   33  N   UNL     1     -39.508  51.177 -51.583  1.00  0.00    -0.081 NA
HETATM   34  O   UNL     1     -39.325  49.801 -51.419  1.00  0.00    -0.103 OA
HETATM   35  N   UNL     1     -39.579  49.118 -52.599  1.00  0.00    -0.083 NA
HETATM   36  C   UNL     1     -39.904  50.046 -53.497  1.00  0.00     0.201 A 
BRANCH  36  37
HETATM   37  N   UNL     1     -40.228  49.789 -54.773  1.00  0.00    -0.379 N 
HETATM   38  H   UNL     1     -39.518  49.459 -55.422  1.00  0.00     0.158 HD
HETATM   39  H   UNL     1     -41.185  49.693 -55.106  1.00  0.00     0.158 HD
ENDBRANCH  36  37
ENDBRANCH   2  32
TORSDOF 13
ENDMDL
MODEL 3
REMARK VINA RESULT:      -6.6      5.978     11.015
REMARK  13 active torsions:
REMARK  status: ('A' for Active; 'I' for Inactive)
REMARK    1  A    between atoms: C_2  and  N_3 
REMARK    2  A    between atoms: N_3  and  C_5 
REMARK    3  A    between atoms: N_3  and  C_34 
REMARK    4  A    between atoms: C_5  and  C_6 
REMARK    5  A    between atoms: N_7  and  C_8 
REMARK    6  A    between atoms: C_12  and  N_13 
REMARK    7  A    between atoms: C_16  and  C_17 
REMARK       I    between atoms: C_17  and  N_18 
REMARK    8  A    between atoms: N_18  and  N_19 
REMARK    9  A    between atoms: C_20  and  C_21 
REMARK   10  A    between atoms: C_22  and  O_23 
REMARK   11  A    between atoms: C_25  and  N_26 
REMARK   12  A    between atoms: N_26  and  C_27 
REMARK   13  A    between atoms: N_26  and  C_29 
ROOT
HETATM    1  C   UNL     1     -44.815  59.074 -59.215  1.00  0.00     0.096 A 
HETATM    2  N   UNL     1     -45.543  60.203 -59.591  1.00  0.00    -0.215 N 
HETATM    3  N   UNL     1     -45.220  61.223 -58.747  1.00  0.00     0.012 NA
HETATM    4  N   UNL     1     -44.415  60.774 -57.800  1.00  0.00    -0.152 NA
HETATM    5  C   UNL     1     -44.169  59.459 -58.047  1.00  0.00     0.170 A 
ENDROOT
BRANCH   5   6
HETATM    6  C   UNL     1     -43.350  58.610 -57.196  1.00  0.00     0.293 C 
HETATM    7  N   UNL     1     -44.069  57.751 -56.389  1.00  0.00    -0.242 N 
HETATM    8  H   UNL     1     -45.086  57.739 -56.431  1.00  0.00     0.192 HD
HETATM    9  O   UNL     1     -42.123  58.695 -57.253  1.00  0.00    -0.264 OA
BRANCH   7  10
HETATM   10  N   UNL     1     -43.410  56.943 -55.514  1.00  0.00    -0.183 NA
HETATM   11  C   UNL     1     -42.938  55.839 -56.005  1.00  0.00     0.153 C 
BRANCH  11  12
HETATM   12  C   UNL     1     -42.213  54.876 -55.153  1.00  0.00     0.016 A 
HETATM   13  C   UNL     1     -42.740  54.388 -53.958  1.00  0.00     0.079 A 
HETATM   14  C   UNL     1     -42.011  53.483 -53.180  1.00  0.00     0.066 A 
HETATM   15  C   UNL     1     -40.733  53.030 -53.556  1.00  0.00     0.032 A 
HETATM   16  C   UNL     1     -40.234  53.538 -54.770  1.00  0.00     0.030 A 
HETATM   17  C   UNL     1     -40.954  54.446 -55.562  1.00  0.00     0.018 A 
BRANCH  13  18
HETATM   18  O   UNL     1     -43.973  54.751 -53.481  1.00  0.00    -0.360 OA
HETATM   19  H   UNL     1     -44.504  55.068 -54.242  1.00  0.00     0.217 HD
ENDBRANCH  13  18
BRANCH  15  20
HETATM   20  N   UNL     1     -40.004  52.144 -52.773  1.00  0.00    -0.382 N 
BRANCH  20  21
HETATM   21  C   UNL     1     -39.210  51.059 -53.369  1.00  0.00     0.118 C 
HETATM   22  C   UNL     1     -40.076  50.145 -54.222  1.00  0.00     0.026 C 
ENDBRANCH  20  21
BRANCH  20  23
HETATM   23  C   UNL     1     -40.019  52.209 -51.303  1.00  0.00     0.118 C 
HETATM   24  C   UNL     1     -39.928  50.823 -50.678  1.00  0.00     0.026 C 
ENDBRANCH  20  23
ENDBRANCH  15  20
ENDBRANCH  11  12
ENDBRANCH   7  10
ENDBRANCH   5   6
BRANCH   1  25
HETATM   25  C   UNL     1     -44.709  57.797 -59.967  1.00  0.00     0.296 C 
BRANCH  25  26
HETATM   26  N   UNL     1     -45.519  56.652 -59.386  1.00  0.00    -0.066 N 
HETATM   27  H   UNL     1     -45.336  56.673 -58.362  1.00  0.00     0.280 HD
BRANCH  26  28
HETATM   28  C   UNL     1     -45.012  55.305 -59.877  1.00  0.00     0.231 C 
HETATM   29  C   UNL     1     -43.538  55.131 -59.554  1.00  0.00     0.034 C 
ENDBRANCH  26  28
BRANCH  26  30
HETATM   30  C   UNL     1     -47.005  56.823 -59.618  1.00  0.00     0.231 C 
HETATM   31  C   UNL     1     -47.377  56.456 -61.044  1.00  0.00     0.034 C 
ENDBRANCH  26  30
ENDBRANCH  25  26
ENDBRANCH   1  25
BRANCH   2  32
HETATM   32  C   UNL     1     -46.518  60.352 -60.607  1.00  0.00     0.225 A 
HETATM   33  N   UNL     1     -47.814  60.400 -60.294  1.00  0.00    -0.081 NA
HETATM   34  O   UNL     1     -48.448  60.580 -61.527  1.00  0.00    -0.103 OA
HETATM   35  N   UNL     1     -47.524  60.665 -62.558  1.00  0.00    -0.083 NA
HETATM   36  C   UNL     1     -46.328  60.527 -61.990  1.00  0.00     0.201 A 
BRANCH  36  37
HETATM   37  N   UNL     1     -45.163  60.555 -62.654  1.00  0.00    -0.379 N 
HETATM   38  H   UNL     1     -44.871  61.403 -63.135  1.00  0.00     0.158 HD
HETATM   39  H   UNL     1     -44.431  59.856 -62.544  1.00  0.00     0.158 HD
ENDBRANCH  36  37
ENDBRANCH   2  32
TORSDOF 13
ENDMDL
MODEL 4
REMARK VINA RESULT:      -6.4      5.388      7.352
REMARK  13 active torsions:
REMARK  status: ('A' for Active; 'I' for Inactive)
REMARK    1  A    between atoms: C_2  and  N_3 
REMARK    2  A    between atoms: N_3  and  C_5 
REMARK    3  A    between atoms: N_3  and  C_34 
REMARK    4  A    between atoms: C_5  and  C_6 
REMARK    5  A    between atoms: N_7  and  C_8 
REMARK    6  A    between atoms: C_12  and  N_13 
REMARK    7  A    between atoms: C_16  and  C_17 
REMARK       I    between atoms: C_17  and  N_18 
REMARK    8  A    between atoms: N_18  and  N_19 
REMARK    9  A    between atoms: C_20  and  C_21 
REMARK   10  A    between atoms: C_22  and  O_23 
REMARK   11  A    between atoms: C_25  and  N_26 
REMARK   12  A    between atoms: N_26  and  C_27 
REMARK   13  A    between atoms: N_26  and  C_29 
ROOT
HETATM    1  C   UNL     1     -42.013  56.056 -53.094  1.00  0.00     0.096 A 
HETATM    2  N   UNL     1     -42.141  55.051 -52.133  1.00  0.00    -0.215 N 
HETATM    3  N   UNL     1     -42.993  54.104 -52.614  1.00  0.00     0.012 NA
HETATM    4  N   UNL     1     -43.491  54.504 -53.772  1.00  0.00    -0.152 NA
HETATM    5  C   UNL     1     -42.928  55.703 -54.078  1.00  0.00     0.170 A 
ENDROOT
BRANCH   5   6
HETATM    6  C   UNL     1     -43.257  56.477 -55.265  1.00  0.00     0.293 C 
HETATM    7  N   UNL     1     -42.417  56.255 -56.339  1.00  0.00    -0.242 N 
HETATM    8  H   UNL     1     -41.654  55.586 -56.263  1.00  0.00     0.192 HD
HETATM    9  O   UNL     1     -44.225  57.236 -55.247  1.00  0.00    -0.264 OA
BRANCH   7  10
HETATM   10  N   UNL     1     -42.599  56.961 -57.489  1.00  0.00    -0.183 NA
HETATM   11  C   UNL     1     -41.879  58.033 -57.617  1.00  0.00     0.153 C 
BRANCH  11  12
HETATM   12  C   UNL     1     -41.994  58.887 -58.816  1.00  0.00     0.016 A 
HETATM   13  C   UNL     1     -41.795  58.397 -60.106  1.00  0.00     0.079 A 
HETATM   14  C   UNL     1     -41.906  59.247 -61.211  1.00  0.00     0.066 A 
HETATM   15  C   UNL     1     -42.217  60.612 -61.078  1.00  0.00     0.032 A 
HETATM   16  C   UNL     1     -42.417  61.072 -59.763  1.00  0.00     0.030 A 
HETATM   17  C   UNL     1     -42.310  60.231 -58.645  1.00  0.00     0.018 A 
BRANCH  13  18
HETATM   18  O   UNL     1     -41.487  57.087 -60.370  1.00  0.00    -0.360 OA
HETATM   19  H   UNL     1     -41.889  56.540 -59.663  1.00  0.00     0.217 HD
ENDBRANCH  13  18
BRANCH  15  20
HETATM   20  N   UNL     1     -42.311  61.459 -62.177  1.00  0.00    -0.382 N 
BRANCH  20  21
HETATM   21  C   UNL     1     -41.707  62.799 -62.173  1.00  0.00     0.118 C 
HETATM   22  C   UNL     1     -40.189  62.721 -62.193  1.00  0.00     0.026 C 
ENDBRANCH  20  21
BRANCH  20  23
HETATM   23  C   UNL     1     -43.058  61.083 -63.388  1.00  0.00     0.118 C 
HETATM   24  C   UNL     1     -44.562  61.095 -63.146  1.00  0.00     0.026 C 
ENDBRANCH  20  23
ENDBRANCH  15  20
ENDBRANCH  11  12
ENDBRANCH   7  10
ENDBRANCH   5   6
BRANCH   1  25
HETATM   25  C   UNL     1     -41.044  57.181 -53.076  1.00  0.00     0.296 C 
BRANCH  25  26
HETATM   26  N   UNL     1     -41.439  58.341 -52.179  1.00  0.00    -0.066 N 
HETATM   27  H   UNL     1     -42.030  57.925 -51.431  1.00  0.00     0.280 HD
BRANCH  26  28
HETATM   28  C   UNL     1     -42.326  59.335 -52.912  1.00  0.00     0.231 C 
HETATM   29  C   UNL     1     -41.701  59.748 -54.233  1.00  0.00     0.034 C 
ENDBRANCH  26  28
BRANCH  26  30
HETATM   30  C   UNL     1     -40.241  59.007 -51.538  1.00  0.00     0.231 C 
HETATM   31  C   UNL     1     -40.594  59.555 -50.166  1.00  0.00     0.034 C 
ENDBRANCH  26  30
ENDBRANCH  25  26
ENDBRANCH   1  25
BRANCH   2  32
HETATM   32  C   UNL     1     -41.583  54.967 -50.835  1.00  0.00     0.225 A 
HETATM   33  N   UNL     1     -41.764  55.957 -49.959  1.00  0.00    -0.081 NA
HETATM   34  O   UNL     1     -41.108  55.510 -48.809  1.00  0.00    -0.103 OA
HETATM   35  N   UNL     1     -40.566  54.247 -49.001  1.00  0.00    -0.083 NA
HETATM   36  C   UNL     1     -40.861  53.909 -50.254  1.00  0.00     0.201 A 
BRANCH  36  37
HETATM   37  N   UNL     1     -40.514  52.748 -50.830  1.00  0.00    -0.379 N 
HETATM   38  H   UNL     1     -40.332  52.710 -51.830  1.00  0.00     0.158 HD
HETATM   39  H   UNL     1     -40.207  51.928 -50.311  1.00  0.00     0.158 HD
ENDBRANCH  36  37
ENDBRANCH   2  32
TORSDOF 13
ENDMDL
MODEL 5
REMARK VINA RESULT:      -6.4      5.897     10.590
REMARK  13 active torsions:
REMARK  status: ('A' for Active; 'I' for Inactive)
REMARK    1  A    between atoms: C_2  and  N_3 
REMARK    2  A    between atoms: N_3  and  C_5 
REMARK    3  A    between atoms: N_3  and  C_34 
REMARK    4  A    between atoms: C_5  and  C_6 
REMARK    5  A    between atoms: N_7  and  C_8 
REMARK    6  A    between atoms: C_12  and  N_13 
REMARK    7  A    between atoms: C_16  and  C_17 
REMARK       I    between atoms: C_17  and  N_18 
REMARK    8  A    between atoms: N_18  and  N_19 
REMARK    9  A    between atoms: C_20  and  C_21 
REMARK   10  A    between atoms: C_22  and  O_23 
REMARK   11  A    between atoms: C_25  and  N_26 
REMARK   12  A    between atoms: N_26  and  C_27 
REMARK   13  A    between atoms: N_26  and  C_29 
ROOT
HETATM    1  C   UNL     1     -45.102  58.636 -58.871  1.00  0.00     0.096 A 
HETATM    2  N   UNL     1     -45.646  59.785 -59.447  1.00  0.00    -0.215 N 
HETATM    3  N   UNL     1     -44.724  60.784 -59.365  1.00  0.00     0.012 NA
HETATM    4  N   UNL     1     -43.676  60.363 -58.678  1.00  0.00    -0.152 NA
HETATM    5  C   UNL     1     -43.889  59.062 -58.344  1.00  0.00     0.170 A 
ENDROOT
BRANCH   5   6
HETATM    6  C   UNL     1     -42.967  58.264 -57.550  1.00  0.00     0.293 C 
HETATM    7  N   UNL     1     -43.481  57.834 -56.343  1.00  0.00    -0.242 N 
HETATM    8  H   UNL     1     -44.436  58.069 -56.079  1.00  0.00     0.192 HD
HETATM    9  O   UNL     1     -41.843  58.020 -57.988  1.00  0.00    -0.264 OA
BRANCH   7  10
HETATM   10  N   UNL     1     -42.692  57.120 -55.494  1.00  0.00    -0.183 NA
HETATM   11  C   UNL     1     -43.207  56.025 -55.026  1.00  0.00     0.153 C 
BRANCH  11  12
HETATM   12  C   UNL     1     -42.452  55.170 -54.089  1.00  0.00     0.016 A 
HETATM   13  C   UNL     1     -41.131  54.786 -54.323  1.00  0.00     0.079 A 
HETATM   14  C   UNL     1     -40.460  53.968 -53.410  1.00  0.00     0.066 A 
HETATM   15  C   UNL     1     -41.070  53.499 -52.233  1.00  0.00     0.032 A 
HETATM   16  C   UNL     1     -42.401  53.910 -52.025  1.00  0.00     0.030 A 
HETATM   17  C   UNL     1     -43.087  54.731 -52.931  1.00  0.00     0.018 A 
BRANCH  13  18
HETATM   18  O   UNL     1     -40.425  55.175 -55.432  1.00  0.00    -0.360 OA
HETATM   19  H   UNL     1     -40.586  56.133 -55.566  1.00  0.00     0.217 HD
ENDBRANCH  13  18
BRANCH  15  20
HETATM   20  N   UNL     1     -40.406  52.672 -51.334  1.00  0.00    -0.382 N 
BRANCH  20  21
HETATM   21  C   UNL     1     -39.722  51.447 -51.772  1.00  0.00     0.118 C 
HETATM   22  C   UNL     1     -39.851  50.342 -50.735  1.00  0.00     0.026 C 
ENDBRANCH  20  21
BRANCH  20  23
HETATM   23  C   UNL     1     -40.387  52.949 -49.889  1.00  0.00     0.118 C 
HETATM   24  C   UNL     1     -39.663  54.252 -49.576  1.00  0.00     0.026 C 
ENDBRANCH  20  23
ENDBRANCH  15  20
ENDBRANCH  11  12
ENDBRANCH   7  10
ENDBRANCH   5   6
BRANCH   1  25
HETATM   25  C   UNL     1     -45.677  57.267 -58.912  1.00  0.00     0.296 C 
BRANCH  25  26
HETATM   26  N   UNL     1     -45.150  56.394 -60.037  1.00  0.00    -0.066 N 
HETATM   27  H   UNL     1     -44.770  57.055 -60.746  1.00  0.00     0.280 HD
BRANCH  26  28
HETATM   28  C   UNL     1     -46.273  55.636 -60.728  1.00  0.00     0.231 C 
HETATM   29  C   UNL     1     -47.430  56.563 -61.056  1.00  0.00     0.034 C 
ENDBRANCH  26  28
BRANCH  26  30
HETATM   30  C   UNL     1     -44.036  55.477 -59.580  1.00  0.00     0.231 C 
HETATM   31  C   UNL     1     -44.502  54.032 -59.547  1.00  0.00     0.034 C 
ENDBRANCH  26  30
ENDBRANCH  25  26
ENDBRANCH   1  25
BRANCH   2  32
HETATM   32  C   UNL     1     -46.937  60.000 -59.987  1.00  0.00     0.225 A 
HETATM   33  N   UNL     1     -48.000  60.065 -59.183  1.00  0.00    -0.081 NA
HETATM   34  O   UNL     1     -49.064  60.312 -60.056  1.00  0.00    -0.103 OA
HETATM   35  N   UNL     1     -48.621  60.419 -61.367  1.00  0.00    -0.083 NA
HETATM   36  C   UNL     1     -47.304  60.229 -61.325  1.00  0.00     0.201 A 
BRANCH  36  37
HETATM   37  N   UNL     1     -46.498  60.259 -62.397  1.00  0.00    -0.379 N 
HETATM   38  H   UNL     1     -45.488  60.280 -62.274  1.00  0.00     0.158 HD
HETATM   39  H   UNL     1     -46.806  60.047 -63.344  1.00  0.00     0.158 HD
ENDBRANCH  36  37
ENDBRANCH   2  32
TORSDOF 13
ENDMDL
MODEL 6
REMARK VINA RESULT:      -6.2      5.333      7.250
REMARK  13 active torsions:
REMARK  status: ('A' for Active; 'I' for Inactive)
REMARK    1  A    between atoms: C_2  and  N_3 
REMARK    2  A    between atoms: N_3  and  C_5 
REMARK    3  A    between atoms: N_3  and  C_34 
REMARK    4  A    between atoms: C_5  and  C_6 
REMARK    5  A    between atoms: N_7  and  C_8 
REMARK    6  A    between atoms: C_12  and  N_13 
REMARK    7  A    between atoms: C_16  and  C_17 
REMARK       I    between atoms: C_17  and  N_18 
REMARK    8  A    between atoms: N_18  and  N_19 
REMARK    9  A    between atoms: C_20  and  C_21 
REMARK   10  A    between atoms: C_22  and  O_23 
REMARK   11  A    between atoms: C_25  and  N_26 
REMARK   12  A    between atoms: N_26  and  C_27 
REMARK   13  A    between atoms: N_26  and  C_29 
ROOT
HETATM    1  C   UNL     1     -41.343  56.826 -52.917  1.00  0.00     0.096 A 
HETATM    2  N   UNL     1     -41.704  56.351 -51.656  1.00  0.00    -0.215 N 
HETATM    3  N   UNL     1     -42.603  57.219 -51.112  1.00  0.00     0.012 NA
HETATM    4  N   UNL     1     -42.747  58.263 -51.910  1.00  0.00    -0.152 NA
HETATM    5  C   UNL     1     -41.972  58.061 -53.009  1.00  0.00     0.170 A 
ENDROOT
BRANCH   5   6
HETATM    6  C   UNL     1     -41.841  59.016 -54.099  1.00  0.00     0.293 C 
HETATM    7  N   UNL     1     -42.704  58.795 -55.155  1.00  0.00    -0.242 N 
HETATM    8  H   UNL     1     -43.368  58.024 -55.121  1.00  0.00     0.192 HD
HETATM    9  O   UNL     1     -41.019  59.927 -54.014  1.00  0.00    -0.264 OA
BRANCH   7  10
HETATM   10  N   UNL     1     -42.638  59.596 -56.253  1.00  0.00    -0.183 NA
HETATM   11  C   UNL     1     -42.058  59.085 -57.295  1.00  0.00     0.153 C 
BRANCH  11  12
HETATM   12  C   UNL     1     -41.916  59.860 -58.543  1.00  0.00     0.016 A 
HETATM   13  C   UNL     1     -41.388  61.150 -58.568  1.00  0.00     0.079 A 
HETATM   14  C   UNL     1     -41.282  61.849 -59.775  1.00  0.00     0.066 A 
HETATM   15  C   UNL     1     -41.696  61.295 -61.000  1.00  0.00     0.032 A 
HETATM   16  C   UNL     1     -42.218  59.990 -60.940  1.00  0.00     0.030 A 
HETATM   17  C   UNL     1     -42.330  59.276 -59.737  1.00  0.00     0.018 A 
BRANCH  13  18
HETATM   18  O   UNL     1     -40.950  61.801 -57.444  1.00  0.00    -0.360 OA
HETATM   19  H   UNL     1     -41.510  62.598 -57.326  1.00  0.00     0.217 HD
ENDBRANCH  13  18
BRANCH  15  20
HETATM   20  N   UNL     1     -41.604  61.997 -62.196  1.00  0.00    -0.382 N 
BRANCH  20  21
HETATM   21  C   UNL     1     -42.233  61.506 -63.431  1.00  0.00     0.118 C 
HETATM   22  C   UNL     1     -43.361  62.421 -63.879  1.00  0.00     0.026 C 
ENDBRANCH  20  21
BRANCH  20  23
HETATM   23  C   UNL     1     -40.835  63.247 -62.309  1.00  0.00     0.118 C 
HETATM   24  C   UNL     1     -39.416  62.992 -62.798  1.00  0.00     0.026 C 
ENDBRANCH  20  23
ENDBRANCH  15  20
ENDBRANCH  11  12
ENDBRANCH   7  10
ENDBRANCH   5   6
BRANCH   1  25
HETATM   25  C   UNL     1     -40.541  56.105 -53.939  1.00  0.00     0.296 C 
BRANCH  25  26
HETATM   26  N   UNL     1     -41.194  54.846 -54.482  1.00  0.00    -0.066 N 
HETATM   27  H   UNL     1     -41.618  54.375 -53.657  1.00  0.00     0.280 HD
BRANCH  26  28
HETATM   28  C   UNL     1     -40.161  53.877 -55.036  1.00  0.00     0.231 C 
HETATM   29  C   UNL     1     -40.179  52.569 -54.265  1.00  0.00     0.034 C 
ENDBRANCH  26  28
BRANCH  26  30
HETATM   30  C   UNL     1     -42.287  55.153 -55.483  1.00  0.00     0.231 C 
HETATM   31  C   UNL     1     -43.615  54.568 -55.031  1.00  0.00     0.034 C 
ENDBRANCH  26  30
ENDBRANCH  25  26
ENDBRANCH   1  25
BRANCH   2  32
HETATM   32  C   UNL     1     -41.231  55.221 -50.946  1.00  0.00     0.225 A 
HETATM   33  N   UNL     1     -40.219  55.342 -50.085  1.00  0.00    -0.081 NA
HETATM   34  O   UNL     1     -40.062  54.052 -49.571  1.00  0.00    -0.103 OA
HETATM   35  N   UNL     1     -40.999  53.181 -50.110  1.00  0.00    -0.083 NA
HETATM   36  C   UNL     1     -41.725  53.904 -50.960  1.00  0.00     0.201 A 
BRANCH  36  37
HETATM   37  N   UNL     1     -42.746  53.425 -51.686  1.00  0.00    -0.379 N 
HETATM   38  H   UNL     1     -43.021  52.450 -51.597  1.00  0.00     0.158 HD
HETATM   39  H   UNL     1     -43.418  54.013 -52.175  1.00  0.00     0.158 HD
ENDBRANCH  36  37
ENDBRANCH   2  32
TORSDOF 13
ENDMDL
MODEL 7
REMARK VINA RESULT:      -6.2      5.165      6.864
REMARK  13 active torsions:
REMARK  status: ('A' for Active; 'I' for Inactive)
REMARK    1  A    between atoms: C_2  and  N_3 
REMARK    2  A    between atoms: N_3  and  C_5 
REMARK    3  A    between atoms: N_3  and  C_34 
REMARK    4  A    between atoms: C_5  and  C_6 
REMARK    5  A    between atoms: N_7  and  C_8 
REMARK    6  A    between atoms: C_12  and  N_13 
REMARK    7  A    between atoms: C_16  and  C_17 
REMARK       I    between atoms: C_17  and  N_18 
REMARK    8  A    between atoms: N_18  and  N_19 
REMARK    9  A    between atoms: C_20  and  C_21 
REMARK   10  A    between atoms: C_22  and  O_23 
REMARK   11  A    between atoms: C_25  and  N_26 
REMARK   12  A    between atoms: N_26  and  C_27 
REMARK   13  A    between atoms: N_26  and  C_29 
ROOT
HETATM    1  C   UNL     1     -41.808  54.696 -53.031  1.00  0.00     0.096 A 
HETATM    2  N   UNL     1     -40.892  53.960 -52.278  1.00  0.00    -0.215 N 
HETATM    3  N   UNL     1     -40.189  53.157 -53.125  1.00  0.00     0.012 NA
HETATM    4  N   UNL     1     -40.680  53.265 -54.347  1.00  0.00    -0.152 NA
HETATM    5  C   UNL     1     -41.684  54.181 -54.315  1.00  0.00     0.170 A 
ENDROOT
BRANCH   5   6
HETATM    6  C   UNL     1     -42.492  54.544 -55.470  1.00  0.00     0.293 C 
HETATM    7  N   UNL     1     -42.062  55.678 -56.130  1.00  0.00    -0.242 N 
HETATM    8  H   UNL     1     -41.236  56.178 -55.807  1.00  0.00     0.192 HD
HETATM    9  O   UNL     1     -43.455  53.845 -55.782  1.00  0.00    -0.264 OA
BRANCH   7  10
HETATM   10  N   UNL     1     -42.769  56.142 -57.197  1.00  0.00    -0.183 NA
HETATM   11  C   UNL     1     -43.512  57.182 -56.977  1.00  0.00     0.153 C 
BRANCH  11  12
HETATM   12  C   UNL     1     -44.334  57.772 -58.053  1.00  0.00     0.016 A 
HETATM   13  C   UNL     1     -44.928  56.999 -59.050  1.00  0.00     0.079 A 
HETATM   14  C   UNL     1     -45.691  57.603 -60.054  1.00  0.00     0.066 A 
HETATM   15  C   UNL     1     -45.892  58.994 -60.108  1.00  0.00     0.032 A 
HETATM   16  C   UNL     1     -45.284  59.743 -59.083  1.00  0.00     0.030 A 
HETATM   17  C   UNL     1     -44.516  59.151 -58.069  1.00  0.00     0.018 A 
BRANCH  13  18
HETATM   18  O   UNL     1     -44.808  55.634 -59.110  1.00  0.00    -0.360 OA
HETATM   19  H   UNL     1     -44.361  55.413 -59.954  1.00  0.00     0.217 HD
ENDBRANCH  13  18
BRANCH  15  20
HETATM   20  N   UNL     1     -46.637  59.594 -61.116  1.00  0.00    -0.382 N 
BRANCH  20  21
HETATM   21  C   UNL     1     -46.305  60.930 -61.631  1.00  0.00     0.118 C 
HETATM   22  C   UNL     1     -45.051  60.895 -62.491  1.00  0.00     0.026 C 
ENDBRANCH  20  21
BRANCH  20  23
HETATM   23  C   UNL     1     -47.828  58.950 -61.693  1.00  0.00     0.118 C 
HETATM   24  C   UNL     1     -49.085  59.776 -61.454  1.00  0.00     0.026 C 
ENDBRANCH  20  23
ENDBRANCH  15  20
ENDBRANCH  11  12
ENDBRANCH   7  10
ENDBRANCH   5   6
BRANCH   1  25
HETATM   25  C   UNL     1     -42.643  55.827 -52.551  1.00  0.00     0.296 C 
BRANCH  25  26
HETATM   26  N   UNL     1     -41.860  57.066 -52.154  1.00  0.00    -0.066 N 
HETATM   27  H   UNL     1     -41.152  56.738 -51.466  1.00  0.00     0.280 HD
BRANCH  26  28
HETATM   28  C   UNL     1     -42.735  58.066 -51.415  1.00  0.00     0.231 C 
HETATM   29  C   UNL     1     -44.203  57.836 -51.727  1.00  0.00     0.034 C 
ENDBRANCH  26  28
BRANCH  26  30
HETATM   30  C   UNL     1     -41.141  57.693 -53.330  1.00  0.00     0.231 C 
HETATM   31  C   UNL     1     -40.279  58.860 -52.879  1.00  0.00     0.034 C 
ENDBRANCH  26  30
ENDBRANCH  25  26
ENDBRANCH   1  25
BRANCH   2  32
HETATM   32  C   UNL     1     -40.694  53.927 -50.877  1.00  0.00     0.225 A 
HETATM   33  N   UNL     1     -40.807  55.044 -50.155  1.00  0.00    -0.081 NA
HETATM   34  O   UNL     1     -40.577  54.619 -48.844  1.00  0.00    -0.103 OA
HETATM   35  N   UNL     1     -40.356  53.250 -48.793  1.00  0.00    -0.083 NA
HETATM   36  C   UNL     1     -40.431  52.820 -50.050  1.00  0.00     0.201 A 
BRANCH  36  37
HETATM   37  N   UNL     1     -40.277  51.542 -50.428  1.00  0.00    -0.379 N 
HETATM   38  H   UNL     1     -39.567  51.295 -51.113  1.00  0.00     0.158 HD
HETATM   39  H   UNL     1     -40.676  50.751 -49.924  1.00  0.00     0.158 HD
ENDBRANCH  36  37
ENDBRANCH   2  32
TORSDOF 13
ENDMDL
MODEL 8
REMARK VINA RESULT:      -6.1      5.866     10.667
REMARK  13 active torsions:
REMARK  status: ('A' for Active; 'I' for Inactive)
REMARK    1  A    between atoms: C_2  and  N_3 
REMARK    2  A    between atoms: N_3  and  C_5 
REMARK    3  A    between atoms: N_3  and  C_34 
REMARK    4  A    between atoms: C_5  and  C_6 
REMARK    5  A    between atoms: N_7  and  C_8 
REMARK    6  A    between atoms: C_12  and  N_13 
REMARK    7  A    between atoms: C_16  and  C_17 
REMARK       I    between atoms: C_17  and  N_18 
REMARK    8  A    between atoms: N_18  and  N_19 
REMARK    9  A    between atoms: C_20  and  C_21 
REMARK   10  A    between atoms: C_22  and  O_23 
REMARK   11  A    between atoms: C_25  and  N_26 
REMARK   12  A    between atoms: N_26  and  C_27 
REMARK   13  A    between atoms: N_26  and  C_29 
ROOT
HETATM    1  C   UNL     1     -44.404  58.623 -59.628  1.00  0.00     0.096 A 
HETATM    2  N   UNL     1     -45.567  58.909 -60.345  1.00  0.00    -0.215 N 
HETATM    3  N   UNL     1     -46.490  57.947 -60.066  1.00  0.00     0.012 NA
HETATM    4  N   UNL     1     -45.942  57.017 -59.301  1.00  0.00    -0.152 NA
HETATM    5  C   UNL     1     -44.663  57.393 -59.038  1.00  0.00     0.170 A 
ENDROOT
BRANCH   5   6
HETATM    6  C   UNL     1     -43.727  56.601 -58.253  1.00  0.00     0.293 C 
HETATM    7  N   UNL     1     -43.761  56.861 -56.897  1.00  0.00    -0.242 N 
HETATM    8  H   UNL     1     -44.412  57.549 -56.522  1.00  0.00     0.192 HD
HETATM    9  O   UNL     1     -43.007  55.777 -58.815  1.00  0.00    -0.264 OA
BRANCH   7  10
HETATM   10  N   UNL     1     -42.895  56.215 -56.069  1.00  0.00    -0.183 NA
HETATM   11  C   UNL     1     -43.434  55.499 -55.131  1.00  0.00     0.153 C 
BRANCH  11  12
HETATM   12  C   UNL     1     -42.599  54.759 -54.164  1.00  0.00     0.016 A 
HETATM   13  C   UNL     1     -41.339  54.260 -54.492  1.00  0.00     0.079 A 
HETATM   14  C   UNL     1     -40.588  53.557 -53.544  1.00  0.00     0.066 A 
HETATM   15  C   UNL     1     -41.057  53.323 -52.239  1.00  0.00     0.032 A 
HETATM   16  C   UNL     1     -42.329  53.846 -51.940  1.00  0.00     0.030 A 
HETATM   17  C   UNL     1     -43.094  54.553 -52.880  1.00  0.00     0.018 A 
BRANCH  13  18
HETATM   18  O   UNL     1     -40.769  54.420 -55.728  1.00  0.00    -0.360 OA
HETATM   19  H   UNL     1     -39.868  54.783 -55.595  1.00  0.00     0.217 HD
ENDBRANCH  13  18
BRANCH  15  20
HETATM   20  N   UNL     1     -40.316  52.610 -51.304  1.00  0.00    -0.382 N 
BRANCH  20  21
HETATM   21  C   UNL     1     -40.343  52.951 -49.874  1.00  0.00     0.118 C 
HETATM   22  C   UNL     1     -39.597  54.248 -49.600  1.00  0.00     0.026 C 
ENDBRANCH  20  21
BRANCH  20  23
HETATM   23  C   UNL     1     -39.425  51.505 -51.694  1.00  0.00     0.118 C 
HETATM   24  C   UNL     1     -39.713  50.242 -50.893  1.00  0.00     0.026 C 
ENDBRANCH  20  23
ENDBRANCH  15  20
ENDBRANCH  11  12
ENDBRANCH   7  10
ENDBRANCH   5   6
BRANCH   1  25
HETATM   25  C   UNL     1     -43.216  59.503 -59.480  1.00  0.00     0.296 C 
BRANCH  25  26
HETATM   26  N   UNL     1     -43.473  60.788 -58.713  1.00  0.00    -0.066 N 
HETATM   27  H   UNL     1     -44.397  61.131 -59.048  1.00  0.00     0.280 HD
BRANCH  26  28
HETATM   28  C   UNL     1     -42.466  61.867 -59.079  1.00  0.00     0.231 C 
HETATM   29  C   UNL     1     -41.529  61.385 -60.172  1.00  0.00     0.034 C 
ENDBRANCH  26  28
BRANCH  26  30
HETATM   30  C   UNL     1     -43.552  60.560 -57.219  1.00  0.00     0.231 C 
HETATM   31  C   UNL     1     -42.195  60.172 -56.657  1.00  0.00     0.034 C 
ENDBRANCH  26  30
ENDBRANCH  25  26
ENDBRANCH   1  25
BRANCH   2  32
HETATM   32  C   UNL     1     -45.824  59.946 -61.273  1.00  0.00     0.225 A 
HETATM   33  N   UNL     1     -44.813  60.599 -61.850  1.00  0.00    -0.081 NA
HETATM   34  O   UNL     1     -45.446  61.505 -62.705  1.00  0.00    -0.103 OA
HETATM   35  N   UNL     1     -46.825  61.367 -62.650  1.00  0.00    -0.083 NA
HETATM   36  C   UNL     1     -47.061  60.400 -61.766  1.00  0.00     0.201 A 
BRANCH  36  37
HETATM   37  N   UNL     1     -48.283  59.959 -61.429  1.00  0.00    -0.379 N 
HETATM   38  H   UNL     1     -48.385  59.237 -60.720  1.00  0.00     0.158 HD
HETATM   39  H   UNL     1     -49.146  60.440 -61.674  1.00  0.00     0.158 HD
ENDBRANCH  36  37
ENDBRANCH   2  32
TORSDOF 13
ENDMDL
MODEL 9
REMARK VINA RESULT:      -6.1      5.499      7.709
REMARK  13 active torsions:
REMARK  status: ('A' for Active; 'I' for Inactive)
REMARK    1  A    between atoms: C_2  and  N_3 
REMARK    2  A    between atoms: N_3  and  C_5 
REMARK    3  A    between atoms: N_3  and  C_34 
REMARK    4  A    between atoms: C_5  and  C_6 
REMARK    5  A    between atoms: N_7  and  C_8 
REMARK    6  A    between atoms: C_12  and  N_13 
REMARK    7  A    between atoms: C_16  and  C_17 
REMARK       I    between atoms: C_17  and  N_18 
REMARK    8  A    between atoms: N_18  and  N_19 
REMARK    9  A    between atoms: C_20  and  C_21 
REMARK   10  A    between atoms: C_22  and  O_23 
REMARK   11  A    between atoms: C_25  and  N_26 
REMARK   12  A    between atoms: N_26  and  C_27 
REMARK   13  A    between atoms: N_26  and  C_29 
ROOT
HETATM    1  C   UNL     1     -42.169  57.525 -52.796  1.00  0.00     0.096 A 
HETATM    2  N   UNL     1     -42.797  57.003 -51.664  1.00  0.00    -0.215 N 
HETATM    3  N   UNL     1     -43.978  57.660 -51.489  1.00  0.00     0.012 NA
HETATM    4  N   UNL     1     -44.080  58.633 -52.378  1.00  0.00    -0.152 NA
HETATM    5  C   UNL     1     -42.978  58.588 -53.175  1.00  0.00     0.170 A 
ENDROOT
BRANCH   5   6
HETATM    6  C   UNL     1     -42.715  59.529 -54.253  1.00  0.00     0.293 C 
HETATM    7  N   UNL     1     -43.215  59.142 -55.481  1.00  0.00    -0.242 N 
HETATM    8  H   UNL     1     -43.730  58.268 -55.572  1.00  0.00     0.192 HD
HETATM    9  O   UNL     1     -42.105  60.571 -54.015  1.00  0.00    -0.264 OA
BRANCH   7  10
HETATM   10  N   UNL     1     -42.987  59.921 -56.574  1.00  0.00    -0.183 NA
HETATM   11  C   UNL     1     -42.186  59.425 -57.466  1.00  0.00     0.153 C 
BRANCH  11  12
HETATM   12  C   UNL     1     -41.854  60.179 -58.691  1.00  0.00     0.016 A 
HETATM   13  C   UNL     1     -41.197  61.409 -58.658  1.00  0.00     0.079 A 
HETATM   14  C   UNL     1     -40.911  62.091 -59.845  1.00  0.00     0.066 A 
HETATM   15  C   UNL     1     -41.265  61.580 -61.107  1.00  0.00     0.032 A 
HETATM   16  C   UNL     1     -41.921  60.335 -61.105  1.00  0.00     0.030 A 
HETATM   17  C   UNL     1     -42.214  59.639 -59.922  1.00  0.00     0.018 A 
BRANCH  13  18
HETATM   18  O   UNL     1     -40.800  62.014 -57.494  1.00  0.00    -0.360 OA
HETATM   19  H   UNL     1     -40.010  61.534 -57.165  1.00  0.00     0.217 HD
ENDBRANCH  13  18
BRANCH  15  20
HETATM   20  N   UNL     1     -40.994  62.267 -62.285  1.00  0.00    -0.382 N 
BRANCH  20  21
HETATM   21  C   UNL     1     -41.978  62.352 -63.374  1.00  0.00     0.118 C 
HETATM   22  C   UNL     1     -43.113  63.300 -63.021  1.00  0.00     0.026 C 
ENDBRANCH  20  21
BRANCH  20  23
HETATM   23  C   UNL     1     -39.692  62.909 -62.530  1.00  0.00     0.118 C 
HETATM   24  C   UNL     1     -39.509  63.265 -63.999  1.00  0.00     0.026 C 
ENDBRANCH  20  23
ENDBRANCH  15  20
ENDBRANCH  11  12
ENDBRANCH   7  10
ENDBRANCH   5   6
BRANCH   1  25
HETATM   25  C   UNL     1     -40.960  56.982 -53.468  1.00  0.00     0.296 C 
BRANCH  25  26
HETATM   26  N   UNL     1     -41.208  55.745 -54.313  1.00  0.00    -0.066 N 
HETATM   27  H   UNL     1     -40.649  55.884 -55.179  1.00  0.00     0.280 HD
BRANCH  26  28
HETATM   28  C   UNL     1     -42.660  55.656 -54.758  1.00  0.00     0.231 C 
HETATM   29  C   UNL     1     -42.760  55.613 -56.273  1.00  0.00     0.034 C 
ENDBRANCH  26  28
BRANCH  26  30
HETATM   30  C   UNL     1     -40.739  54.478 -53.630  1.00  0.00     0.231 C 
HETATM   31  C   UNL     1     -40.177  53.494 -54.641  1.00  0.00     0.034 C 
ENDBRANCH  26  30
ENDBRANCH  25  26
ENDBRANCH   1  25
BRANCH   2  32
HETATM   32  C   UNL     1     -42.346  56.018 -50.754  1.00  0.00     0.225 A 
HETATM   33  N   UNL     1     -41.237  56.220 -50.038  1.00  0.00    -0.081 NA
HETATM   34  O   UNL     1     -41.134  55.069 -49.252  1.00  0.00    -0.103 OA
HETATM   35  N   UNL     1     -42.194  54.206 -49.485  1.00  0.00    -0.083 NA
HETATM   36  C   UNL     1     -42.947  54.793 -50.413  1.00  0.00     0.201 A 
BRANCH  36  37
HETATM   37  N   UNL     1     -44.079  54.275 -50.913  1.00  0.00    -0.379 N 
HETATM   38  H   UNL     1     -44.272  53.281 -50.815  1.00  0.00     0.158 HD
HETATM   39  H   UNL     1     -44.877  54.836 -51.206  1.00  0.00     0.158 HD
ENDBRANCH  36  37
ENDBRANCH   2  32
TORSDOF 13
ENDMDL
MODEL 10
REMARK VINA RESULT:      -6.0      5.507     10.528
REMARK  13 active torsions:
REMARK  status: ('A' for Active; 'I' for Inactive)
REMARK    1  A    between atoms: C_2  and  N_3 
REMARK    2  A    between atoms: N_3  and  C_5 
REMARK    3  A    between atoms: N_3  and  C_34 
REMARK    4  A    between atoms: C_5  and  C_6 
REMARK    5  A    between atoms: N_7  and  C_8 
REMARK    6  A    between atoms: C_12  and  N_13 
REMARK    7  A    between atoms: C_16  and  C_17 
REMARK       I    between atoms: C_17  and  N_18 
REMARK    8  A    between atoms: N_18  and  N_19 
REMARK    9  A    between atoms: C_20  and  C_21 
REMARK   10  A    between atoms: C_22  and  O_23 
REMARK   11  A    between atoms: C_25  and  N_26 
REMARK   12  A    between atoms: N_26  and  C_27 
REMARK   13  A    between atoms: N_26  and  C_29 
ROOT
HETATM    1  C   UNL     1     -45.877  58.620 -58.032  1.00  0.00     0.096 A 
HETATM    2  N   UNL     1     -46.320  59.931 -58.213  1.00  0.00    -0.215 N 
HETATM    3  N   UNL     1     -45.637  60.737 -57.353  1.00  0.00     0.012 NA
HETATM    4  N   UNL     1     -44.870  59.998 -56.570  1.00  0.00    -0.152 NA
HETATM    5  C   UNL     1     -45.014  58.699 -56.947  1.00  0.00     0.170 A 
ENDROOT
BRANCH   5   6
HETATM    6  C   UNL     1     -44.351  57.583 -56.291  1.00  0.00     0.293 C 
HETATM    7  N   UNL     1     -44.954  57.174 -55.117  1.00  0.00    -0.242 N 
HETATM    8  H   UNL     1     -45.798  57.637 -54.786  1.00  0.00     0.192 HD
HETATM    9  O   UNL     1     -43.350  57.084 -56.803  1.00  0.00    -0.264 OA
BRANCH   7  10
HETATM   10  N   UNL     1     -44.394  56.169 -54.390  1.00  0.00    -0.183 NA
HETATM   11  C   UNL     1     -43.335  56.483 -53.709  1.00  0.00     0.153 C 
BRANCH  11  12
HETATM   12  C   UNL     1     -42.632  55.476 -52.889  1.00  0.00     0.016 A 
HETATM   13  C   UNL     1     -43.165  54.972 -51.703  1.00  0.00     0.079 A 
HETATM   14  C   UNL     1     -42.457  54.026 -50.955  1.00  0.00     0.066 A 
HETATM   15  C   UNL     1     -41.197  53.544 -51.354  1.00  0.00     0.032 A 
HETATM   16  C   UNL     1     -40.692  54.069 -52.559  1.00  0.00     0.030 A 
HETATM   17  C   UNL     1     -41.390  55.019 -53.320  1.00  0.00     0.018 A 
BRANCH  13  18
HETATM   18  O   UNL     1     -44.382  55.360 -51.205  1.00  0.00    -0.360 OA
HETATM   19  H   UNL     1     -44.915  55.699 -51.955  1.00  0.00     0.217 HD
ENDBRANCH  13  18
BRANCH  15  20
HETATM   20  N   UNL     1     -40.489  52.615 -50.602  1.00  0.00    -0.382 N 
BRANCH  20  21
HETATM   21  C   UNL     1     -40.453  52.676 -49.133  1.00  0.00     0.118 C 
HETATM   22  C   UNL     1     -39.859  53.990 -48.649  1.00  0.00     0.026 C 
ENDBRANCH  20  21
BRANCH  20  23
HETATM   23  C   UNL     1     -39.696  51.546 -51.230  1.00  0.00     0.118 C 
HETATM   24  C   UNL     1     -39.971  50.192 -50.588  1.00  0.00     0.026 C 
ENDBRANCH  20  23
ENDBRANCH  15  20
ENDBRANCH  11  12
ENDBRANCH   7  10
ENDBRANCH   5   6
BRANCH   1  25
HETATM   25  C   UNL     1     -46.206  57.449 -58.885  1.00  0.00     0.296 C 
BRANCH  25  26
HETATM   26  N   UNL     1     -45.010  56.805 -59.564  1.00  0.00    -0.066 N 
HETATM   27  H   UNL     1     -44.369  56.528 -58.793  1.00  0.00     0.280 HD
BRANCH  26  28
HETATM   28  C   UNL     1     -44.242  57.810 -60.409  1.00  0.00     0.231 C 
HETATM   29  C   UNL     1     -42.747  57.682 -60.176  1.00  0.00     0.034 C 
ENDBRANCH  26  28
BRANCH  26  30
HETATM   30  C   UNL     1     -45.391  55.569 -60.349  1.00  0.00     0.231 C 
HETATM   31  C   UNL     1     -44.715  54.334 -59.777  1.00  0.00     0.034 C 
ENDBRANCH  26  30
ENDBRANCH  25  26
ENDBRANCH   1  25
BRANCH   2  32
HETATM   32  C   UNL     1     -47.337  60.432 -59.061  1.00  0.00     0.225 A 
HETATM   33  N   UNL     1     -47.051  60.796 -60.313  1.00  0.00    -0.081 NA
HETATM   34  O   UNL     1     -48.284  61.199 -60.833  1.00  0.00    -0.103 OA
HETATM   35  N   UNL     1     -49.296  61.047 -59.897  1.00  0.00    -0.083 NA
HETATM   36  C   UNL     1     -48.712  60.570 -58.800  1.00  0.00     0.201 A 
BRANCH  36  37
HETATM   37  N   UNL     1     -49.357  60.280 -57.660  1.00  0.00    -0.379 N 
HETATM   38  H   UNL     1     -49.088  60.738 -56.793  1.00  0.00     0.158 HD
HETATM   39  H   UNL     1     -50.248  59.789 -57.622  1.00  0.00     0.158 HD
ENDBRANCH  36  37
ENDBRANCH   2  32
TORSDOF 13
ENDMDL
