MODEL 1
REMARK VINA RESULT:      -7.4      0.000      0.000
REMARK  5 active torsions:
REMARK  status: ('A' for Active; 'I' for Inactive)
REMARK    1  A    between atoms: C_2  and  C_3 
REMARK    2  A    between atoms: C_3  and  N_4 
REMARK    3  A    between atoms: C_3  and  C_18 
REMARK    4  A    between atoms: N_4  and  C_7 
REMARK    5  A    between atoms: C_7  and  C_8 
ROOT
HETATM    1  N   UNL     1     -42.107  58.351 -55.241  1.00  0.00    -0.056 N 
HETATM    2  H   UNL     1     -41.651  59.264 -55.113  1.00  0.00     0.278 HD
HETATM    3  H   UNL     1     -41.516  57.812 -55.884  1.00  0.00     0.278 HD
ENDROOT
BRANCH   1   4
HETATM    4  C   UNL     1     -42.135  57.686 -53.895  1.00  0.00     0.292 C 
BRANCH   4   5
HETATM    5  C   UNL     1     -41.754  56.218 -54.001  1.00  0.00    -0.020 A 
HETATM    6  C   UNL     1     -40.604  55.788 -54.693  1.00  0.00     0.011 A 
HETATM    7  C   UNL     1     -40.290  54.428 -54.782  1.00  0.00     0.024 A 
HETATM    8  C   UNL     1     -41.117  53.482 -54.185  1.00  0.00     0.034 A 
HETATM    9  C   UNL     1     -42.257  53.885 -53.495  1.00  0.00     0.024 A 
HETATM   10 CL   UNL     1     -40.727  51.812 -54.295  1.00  0.00    -0.084 Cl
HETATM   11  C   UNL     1     -42.575  55.243 -53.403  1.00  0.00     0.011 A 
ENDBRANCH   4   5
BRANCH   4  12
HETATM   12  C   UNL     1     -41.167  58.292 -52.922  1.00  0.00     0.190 A 
HETATM   13  N   UNL     1     -40.166  59.102 -53.288  1.00  0.00    -0.109 NA
HETATM   14  O   UNL     1     -39.512  59.361 -52.079  1.00  0.00    -0.205 OA
HETATM   15  C   UNL     1     -40.163  58.644 -51.126  1.00  0.00     0.288 A 
HETATM   16  N   UNL     1     -41.169  57.935 -51.588  1.00  0.00    -0.215 NA
ENDBRANCH   4  12
ENDBRANCH   1   4
BRANCH   1  17
HETATM   17  C   UNL     1     -43.441  58.586 -55.848  1.00  0.00     0.272 C 
BRANCH  17  18
HETATM   18  C   UNL     1     -43.570  57.841 -57.146  1.00  0.00    -0.030 A 
HETATM   19  C   UNL     1     -44.839  57.584 -57.688  1.00  0.00     0.048 A 
HETATM   20  C   UNL     1     -44.963  56.929 -58.913  1.00  0.00     0.102 A 
HETATM   21  C   UNL     1     -43.824  56.500 -59.596  1.00  0.00     0.102 A 
HETATM   22  O   UNL     1     -46.237  56.738 -59.378  1.00  0.00    -0.346 OA
HETATM   23  O   UNL     1     -43.874  55.818 -60.782  1.00  0.00    -0.346 OA
HETATM   24  C   UNL     1     -42.560  56.767 -59.078  1.00  0.00     0.040 A 
HETATM   25  C   UNL     1     -45.182  55.287 -61.026  1.00  0.00     0.202 C 
HETATM   26  C   UNL     1     -46.244  56.341 -60.758  1.00  0.00     0.202 C 
HETATM   27  C   UNL     1     -42.430  57.438 -57.858  1.00  0.00     0.012 A 
ENDBRANCH  17  18
ENDBRANCH   1  17
TORSDOF 5
ENDMDL
MODEL 2
REMARK VINA RESULT:      -7.4      3.621      6.697
REMARK  5 active torsions:
REMARK  status: ('A' for Active; 'I' for Inactive)
REMARK    1  A    between atoms: C_2  and  C_3 
REMARK    2  A    between atoms: C_3  and  N_4 
REMARK    3  A    between atoms: C_3  and  C_18 
REMARK    4  A    between atoms: N_4  and  C_7 
REMARK    5  A    between atoms: C_7  and  C_8 
ROOT
HETATM    1  N   UNL     1     -42.284  55.857 -53.741  1.00  0.00    -0.056 N 
HETATM    2  H   UNL     1     -43.255  56.148 -53.566  1.00  0.00     0.278 HD
HETATM    3  H   UNL     1     -42.328  54.958 -54.233  1.00  0.00     0.278 HD
ENDROOT
BRANCH   1   4
HETATM    4  C   UNL     1     -41.673  56.898 -54.636  1.00  0.00     0.292 C 
BRANCH   4   5
HETATM    5  C   UNL     1     -42.215  56.790 -56.052  1.00  0.00    -0.020 A 
HETATM    6  C   UNL     1     -42.271  57.898 -56.922  1.00  0.00     0.011 A 
HETATM    7  C   UNL     1     -42.789  57.766 -58.214  1.00  0.00     0.024 A 
HETATM    8  C   UNL     1     -43.257  56.532 -58.655  1.00  0.00     0.034 A 
HETATM    9  C   UNL     1     -43.210  55.425 -57.813  1.00  0.00     0.024 A 
HETATM   10 CL   UNL     1     -43.891  56.375 -60.243  1.00  0.00    -0.084 Cl
HETATM   11  C   UNL     1     -42.693  55.551 -56.519  1.00  0.00     0.011 A 
ENDBRANCH   4   5
BRANCH   4  12
HETATM   12  C   UNL     1     -41.967  58.300 -54.189  1.00  0.00     0.190 A 
HETATM   13  N   UNL     1     -41.020  59.228 -54.009  1.00  0.00    -0.109 NA
HETATM   14  O   UNL     1     -41.743  60.331 -53.544  1.00  0.00    -0.205 OA
HETATM   15  C   UNL     1     -43.039  59.932 -53.453  1.00  0.00     0.288 A 
HETATM   16  N   UNL     1     -43.236  58.680 -53.800  1.00  0.00    -0.215 NA
ENDBRANCH   4  12
ENDBRANCH   1   4
BRANCH   1  17
HETATM   17  C   UNL     1     -41.610  55.691 -52.430  1.00  0.00     0.272 C 
BRANCH  17  18
HETATM   18  C   UNL     1     -41.016  54.318 -52.311  1.00  0.00    -0.030 A 
HETATM   19  C   UNL     1     -41.028  53.446 -53.412  1.00  0.00     0.048 A 
HETATM   20  C   UNL     1     -40.440  52.185 -53.320  1.00  0.00     0.102 A 
HETATM   21  C   UNL     1     -39.859  51.769 -52.121  1.00  0.00     0.102 A 
HETATM   22  O   UNL     1     -40.478  51.409 -54.447  1.00  0.00    -0.346 OA
HETATM   23  O   UNL     1     -39.300  50.531 -51.949  1.00  0.00    -0.346 OA
HETATM   24  C   UNL     1     -39.824  52.631 -51.029  1.00  0.00     0.040 A 
HETATM   25  C   UNL     1     -39.711  49.624 -52.978  1.00  0.00     0.202 C 
HETATM   26  C   UNL     1     -39.596  50.280 -54.344  1.00  0.00     0.202 C 
HETATM   27  C   UNL     1     -40.397  53.903 -51.122  1.00  0.00     0.012 A 
ENDBRANCH  17  18
ENDBRANCH   1  17
TORSDOF 5
ENDMDL
MODEL 3
REMARK VINA RESULT:      -7.4      1.489      2.040
REMARK  5 active torsions:
REMARK  status: ('A' for Active; 'I' for Inactive)
REMARK    1  A    between atoms: C_2  and  C_3 
REMARK    2  A    between atoms: C_3  and  N_4 
REMARK    3  A    between atoms: C_3  and  C_18 
REMARK    4  A    between atoms: N_4  and  C_7 
REMARK    5  A    between atoms: C_7  and  C_8 
ROOT
HETATM    1  N   UNL     1     -41.820  56.250 -56.093  1.00  0.00    -0.056 N 
HETATM    2  H   UNL     1     -40.804  56.413 -56.076  1.00  0.00     0.278 HD
HETATM    3  H   UNL     1     -41.974  55.396 -56.640  1.00  0.00     0.278 HD
ENDROOT
BRANCH   1   4
HETATM    4  C   UNL     1     -42.250  56.028 -54.671  1.00  0.00     0.292 C 
BRANCH   4   5
HETATM    5  C   UNL     1     -41.571  54.805 -54.078  1.00  0.00    -0.020 A 
HETATM    6  C   UNL     1     -41.665  54.483 -52.709  1.00  0.00     0.011 A 
HETATM    7  C   UNL     1     -41.017  53.356 -52.194  1.00  0.00     0.024 A 
HETATM    8  C   UNL     1     -40.267  52.539 -53.034  1.00  0.00     0.034 A 
HETATM    9  C   UNL     1     -40.162  52.837 -54.390  1.00  0.00     0.024 A 
HETATM   10 CL   UNL     1     -39.473  51.155 -52.397  1.00  0.00    -0.084 Cl
HETATM   11  C   UNL     1     -40.809  53.963 -54.910  1.00  0.00     0.011 A 
ENDBRANCH   4   5
BRANCH   4  12
HETATM   12  C   UNL     1     -41.897  57.174 -53.767  1.00  0.00     0.190 A 
HETATM   13  N   UNL     1     -42.809  57.904 -53.116  1.00  0.00    -0.109 NA
HETATM   14  O   UNL     1     -42.033  58.868 -52.464  1.00  0.00    -0.205 OA
HETATM   15  C   UNL     1     -40.744  58.639 -52.830  1.00  0.00     0.288 A 
HETATM   16  N   UNL     1     -40.599  57.632 -53.662  1.00  0.00    -0.215 NA
ENDBRANCH   4  12
ENDBRANCH   1   4
BRANCH   1  17
HETATM   17  C   UNL     1     -42.459  57.410 -56.764  1.00  0.00     0.272 C 
BRANCH  17  18
HETATM   18  C   UNL     1     -43.418  56.946 -57.822  1.00  0.00    -0.030 A 
HETATM   19  C   UNL     1     -44.540  57.725 -58.147  1.00  0.00     0.048 A 
HETATM   20  C   UNL     1     -45.411  57.320 -59.157  1.00  0.00     0.102 A 
HETATM   21  C   UNL     1     -45.188  56.120 -59.835  1.00  0.00     0.102 A 
HETATM   22  O   UNL     1     -46.468  58.149 -59.423  1.00  0.00    -0.346 OA
HETATM   23  O   UNL     1     -46.022  55.643 -60.810  1.00  0.00    -0.346 OA
HETATM   24  C   UNL     1     -44.068  55.350 -59.535  1.00  0.00     0.040 A 
HETATM   25  C   UNL     1     -47.295  56.301 -60.776  1.00  0.00     0.202 C 
HETATM   26  C   UNL     1     -47.115  57.805 -60.658  1.00  0.00     0.202 C 
HETATM   27  C   UNL     1     -43.182  55.761 -58.535  1.00  0.00     0.012 A 
ENDBRANCH  17  18
ENDBRANCH   1  17
TORSDOF 5
ENDMDL
MODEL 4
REMARK VINA RESULT:      -7.3      1.702      2.501
REMARK  5 active torsions:
REMARK  status: ('A' for Active; 'I' for Inactive)
REMARK    1  A    between atoms: C_2  and  C_3 
REMARK    2  A    between atoms: C_3  and  N_4 
REMARK    3  A    between atoms: C_3  and  C_18 
REMARK    4  A    between atoms: N_4  and  C_7 
REMARK    5  A    between atoms: C_7  and  C_8 
ROOT
HETATM    1  N   UNL     1     -43.900  55.904 -53.364  1.00  0.00    -0.056 N 
HETATM    2  H   UNL     1     -43.646  55.392 -54.219  1.00  0.00     0.278 HD
HETATM    3  H   UNL     1     -44.704  55.417 -52.955  1.00  0.00     0.278 HD
ENDROOT
BRANCH   1   4
HETATM    4  C   UNL     1     -42.723  55.811 -52.436  1.00  0.00     0.292 C 
BRANCH   4   5
HETATM    5  C   UNL     1     -41.883  54.580 -52.736  1.00  0.00    -0.020 A 
HETATM    6  C   UNL     1     -40.928  54.081 -51.827  1.00  0.00     0.011 A 
HETATM    7  C   UNL     1     -40.164  52.953 -52.142  1.00  0.00     0.024 A 
HETATM    8  C   UNL     1     -40.341  52.310 -53.364  1.00  0.00     0.034 A 
HETATM    9  C   UNL     1     -41.279  52.786 -54.275  1.00  0.00     0.024 A 
HETATM   10 CL   UNL     1     -39.400  50.924 -53.746  1.00  0.00    -0.084 Cl
HETATM   11  C   UNL     1     -42.046  53.913 -53.966  1.00  0.00     0.011 A 
ENDBRANCH   4   5
BRANCH   4  12
HETATM   12  C   UNL     1     -41.791  56.982 -52.553  1.00  0.00     0.190 A 
HETATM   13  N   UNL     1     -40.976  57.172 -53.597  1.00  0.00    -0.109 NA
HETATM   14  O   UNL     1     -40.274  58.329 -53.243  1.00  0.00    -0.205 OA
HETATM   15  C   UNL     1     -40.712  58.683 -52.006  1.00  0.00     0.288 A 
HETATM   16  N   UNL     1     -41.619  57.871 -51.511  1.00  0.00    -0.215 NA
ENDBRANCH   4  12
ENDBRANCH   1   4
BRANCH   1  17
HETATM   17  C   UNL     1     -44.280  57.286 -53.751  1.00  0.00     0.272 C 
BRANCH  17  18
HETATM   18  C   UNL     1     -44.338  57.419 -55.245  1.00  0.00    -0.030 A 
HETATM   19  C   UNL     1     -43.493  56.644 -56.056  1.00  0.00     0.048 A 
HETATM   20  C   UNL     1     -43.572  56.734 -57.445  1.00  0.00     0.102 A 
HETATM   21  C   UNL     1     -44.474  57.618 -58.040  1.00  0.00     0.102 A 
HETATM   22  O   UNL     1     -42.727  55.927 -58.159  1.00  0.00    -0.346 OA
HETATM   23  O   UNL     1     -44.576  57.785 -59.395  1.00  0.00    -0.346 OA
HETATM   24  C   UNL     1     -45.329  58.377 -57.247  1.00  0.00     0.040 A 
HETATM   25  C   UNL     1     -43.432  57.254 -60.076  1.00  0.00     0.202 C 
HETATM   26  C   UNL     1     -43.093  55.870 -59.546  1.00  0.00     0.202 C 
HETATM   27  C   UNL     1     -45.266  58.278 -55.854  1.00  0.00     0.012 A 
ENDBRANCH  17  18
ENDBRANCH   1  17
TORSDOF 5
ENDMDL
MODEL 5
REMARK VINA RESULT:      -7.2      3.969      7.057
REMARK  5 active torsions:
REMARK  status: ('A' for Active; 'I' for Inactive)
REMARK    1  A    between atoms: C_2  and  C_3 
REMARK    2  A    between atoms: C_3  and  N_4 
REMARK    3  A    between atoms: C_3  and  C_18 
REMARK    4  A    between atoms: N_4  and  C_7 
REMARK    5  A    between atoms: C_7  and  C_8 
ROOT
HETATM    1  N   UNL     1     -43.091  55.409 -53.862  1.00  0.00    -0.056 N 
HETATM    2  H   UNL     1     -43.347  54.599 -53.282  1.00  0.00     0.278 HD
HETATM    3  H   UNL     1     -43.603  55.314 -54.746  1.00  0.00     0.278 HD
ENDROOT
BRANCH   1   4
HETATM    4  C   UNL     1     -43.559  56.635 -53.131  1.00  0.00     0.292 C 
BRANCH   4   5
HETATM    5  C   UNL     1     -42.396  57.359 -52.474  1.00  0.00    -0.020 A 
HETATM    6  C   UNL     1     -42.082  57.195 -51.110  1.00  0.00     0.011 A 
HETATM    7  C   UNL     1     -41.011  57.888 -50.535  1.00  0.00     0.024 A 
HETATM    8  C   UNL     1     -40.243  58.751 -51.310  1.00  0.00     0.034 A 
HETATM    9  C   UNL     1     -40.535  58.927 -52.660  1.00  0.00     0.024 A 
HETATM   10 CL   UNL     1     -38.929  59.599 -50.600  1.00  0.00    -0.084 Cl
HETATM   11  C   UNL     1     -41.604  58.237 -53.240  1.00  0.00     0.011 A 
ENDBRANCH   4   5
BRANCH   4  12
HETATM   12  C   UNL     1     -44.213  57.641 -54.034  1.00  0.00     0.190 A 
HETATM   13  N   UNL     1     -44.935  58.673 -53.584  1.00  0.00    -0.109 NA
HETATM   14  O   UNL     1     -45.381  59.283 -54.760  1.00  0.00    -0.205 OA
HETATM   15  C   UNL     1     -44.915  58.526 -55.788  1.00  0.00     0.288 A 
HETATM   16  N   UNL     1     -44.220  57.479 -55.405  1.00  0.00    -0.215 NA
ENDBRANCH   4  12
ENDBRANCH   1   4
BRANCH   1  17
HETATM   17  C   UNL     1     -41.629  55.352 -54.109  1.00  0.00     0.272 C 
BRANCH  17  18
HETATM   18  C   UNL     1     -41.040  54.107 -53.513  1.00  0.00    -0.030 A 
HETATM   19  C   UNL     1     -40.890  52.952 -54.297  1.00  0.00     0.048 A 
HETATM   20  C   UNL     1     -40.306  51.805 -53.760  1.00  0.00     0.102 A 
HETATM   21  C   UNL     1     -39.890  51.790 -52.427  1.00  0.00     0.102 A 
HETATM   22  O   UNL     1     -40.180  50.732 -54.600  1.00  0.00    -0.346 OA
HETATM   23  O   UNL     1     -39.345  50.688 -51.825  1.00  0.00    -0.346 OA
HETATM   24  C   UNL     1     -40.015  52.935 -51.646  1.00  0.00     0.040 A 
HETATM   25  C   UNL     1     -39.601  49.498 -52.581  1.00  0.00     0.202 C 
HETATM   26  C   UNL     1     -39.307  49.730 -54.055  1.00  0.00     0.202 C 
HETATM   27  C   UNL     1     -40.585  54.092 -52.185  1.00  0.00     0.012 A 
ENDBRANCH  17  18
ENDBRANCH   1  17
TORSDOF 5
ENDMDL
MODEL 6
REMARK VINA RESULT:      -7.2      4.270      6.869
REMARK  5 active torsions:
REMARK  status: ('A' for Active; 'I' for Inactive)
REMARK    1  A    between atoms: C_2  and  C_3 
REMARK    2  A    between atoms: C_3  and  N_4 
REMARK    3  A    between atoms: C_3  and  C_18 
REMARK    4  A    between atoms: N_4  and  C_7 
REMARK    5  A    between atoms: C_7  and  C_8 
ROOT
HETATM    1  N   UNL     1     -42.706  55.963 -51.731  1.00  0.00    -0.056 N 
HETATM    2  H   UNL     1     -43.298  55.741 -50.920  1.00  0.00     0.278 HD
HETATM    3  H   UNL     1     -43.095  55.452 -52.531  1.00  0.00     0.278 HD
ENDROOT
BRANCH   1   4
HETATM    4  C   UNL     1     -42.823  57.442 -51.965  1.00  0.00     0.292 C 
BRANCH   4   5
HETATM    5  C   UNL     1     -42.900  57.757 -53.450  1.00  0.00    -0.020 A 
HETATM    6  C   UNL     1     -43.902  57.218 -54.282  1.00  0.00     0.011 A 
HETATM    7  C   UNL     1     -43.935  57.519 -55.648  1.00  0.00     0.024 A 
HETATM    8  C   UNL     1     -42.972  58.359 -56.200  1.00  0.00     0.034 A 
HETATM    9  C   UNL     1     -41.975  58.904 -55.396  1.00  0.00     0.024 A 
HETATM   10 CL   UNL     1     -43.017  58.727 -57.877  1.00  0.00    -0.084 Cl
HETATM   11  C   UNL     1     -41.937  58.606 -54.030  1.00  0.00     0.011 A 
ENDBRANCH   4   5
BRANCH   4  12
HETATM   12  C   UNL     1     -44.059  58.035 -51.355  1.00  0.00     0.190 A 
HETATM   13  N   UNL     1     -45.075  57.300 -50.889  1.00  0.00    -0.109 NA
HETATM   14  O   UNL     1     -46.003  58.264 -50.483  1.00  0.00    -0.205 OA
HETATM   15  C   UNL     1     -45.463  59.473 -50.791  1.00  0.00     0.288 A 
HETATM   16  N   UNL     1     -44.283  59.397 -51.364  1.00  0.00    -0.215 NA
ENDBRANCH   4  12
ENDBRANCH   1   4
BRANCH   1  17
HETATM   17  C   UNL     1     -41.331  55.486 -51.439  1.00  0.00     0.272 C 
BRANCH  17  18
HETATM   18  C   UNL     1     -40.999  54.286 -52.278  1.00  0.00    -0.030 A 
HETATM   19  C   UNL     1     -40.428  53.147 -51.686  1.00  0.00     0.048 A 
HETATM   20  C   UNL     1     -40.156  52.015 -52.454  1.00  0.00     0.102 A 
HETATM   21  C   UNL     1     -40.423  52.017 -53.824  1.00  0.00     0.102 A 
HETATM   22  O   UNL     1     -39.620  50.943 -51.792  1.00  0.00    -0.346 OA
HETATM   23  O   UNL     1     -40.145  50.956 -54.643  1.00  0.00    -0.346 OA
HETATM   24  C   UNL     1     -41.006  53.132 -54.418  1.00  0.00     0.040 A 
HETATM   25  C   UNL     1     -39.234  50.040 -54.021  1.00  0.00     0.202 C 
HETATM   26  C   UNL     1     -39.663  49.751 -52.592  1.00  0.00     0.202 C 
HETATM   27  C   UNL     1     -41.297  54.264 -53.649  1.00  0.00     0.012 A 
ENDBRANCH  17  18
ENDBRANCH   1  17
TORSDOF 5
ENDMDL
MODEL 7
REMARK VINA RESULT:      -7.1      3.661      6.937
REMARK  5 active torsions:
REMARK  status: ('A' for Active; 'I' for Inactive)
REMARK    1  A    between atoms: C_2  and  C_3 
REMARK    2  A    between atoms: C_3  and  N_4 
REMARK    3  A    between atoms: C_3  and  C_18 
REMARK    4  A    between atoms: N_4  and  C_7 
REMARK    5  A    between atoms: C_7  and  C_8 
ROOT
HETATM    1  N   UNL     1     -41.192  56.183 -52.387  1.00  0.00    -0.056 N 
HETATM    2  H   UNL     1     -42.010  55.817 -51.884  1.00  0.00     0.278 HD
HETATM    3  H   UNL     1     -40.428  56.245 -51.706  1.00  0.00     0.278 HD
ENDROOT
BRANCH   1   4
HETATM    4  C   UNL     1     -40.847  55.178 -53.449  1.00  0.00     0.292 C 
BRANCH   4   5
HETATM    5  C   UNL     1     -40.469  53.840 -52.834  1.00  0.00    -0.020 A 
HETATM    6  C   UNL     1     -40.081  52.735 -53.619  1.00  0.00     0.011 A 
HETATM    7  C   UNL     1     -39.752  51.514 -53.020  1.00  0.00     0.024 A 
HETATM    8  C   UNL     1     -39.807  51.380 -51.637  1.00  0.00     0.034 A 
HETATM    9  C   UNL     1     -40.187  52.459 -50.842  1.00  0.00     0.024 A 
HETATM   10 CL   UNL     1     -39.402  49.879 -50.906  1.00  0.00    -0.084 Cl
HETATM   11  C   UNL     1     -40.516  53.681 -51.436  1.00  0.00     0.011 A 
ENDBRANCH   4   5
BRANCH   4  12
HETATM   12  C   UNL     1     -41.990  54.894 -54.380  1.00  0.00     0.190 A 
HETATM   13  N   UNL     1     -43.167  54.405 -53.971  1.00  0.00    -0.109 NA
HETATM   14  O   UNL     1     -43.876  54.253 -55.167  1.00  0.00    -0.205 OA
HETATM   15  C   UNL     1     -43.034  54.624 -56.166  1.00  0.00     0.288 A 
HETATM   16  N   UNL     1     -41.844  54.994 -55.749  1.00  0.00    -0.215 NA
ENDBRANCH   4  12
ENDBRANCH   1   4
BRANCH   1  17
HETATM   17  C   UNL     1     -41.533  57.535 -52.897  1.00  0.00     0.272 C 
BRANCH  17  18
HETATM   18  C   UNL     1     -42.683  58.116 -52.127  1.00  0.00    -0.030 A 
HETATM   19  C   UNL     1     -42.554  59.369 -51.506  1.00  0.00     0.048 A 
HETATM   20  C   UNL     1     -43.632  59.932 -50.824  1.00  0.00     0.102 A 
HETATM   21  C   UNL     1     -44.840  59.239 -50.729  1.00  0.00     0.102 A 
HETATM   22  O   UNL     1     -43.426  61.166 -50.267  1.00  0.00    -0.346 OA
HETATM   23  O   UNL     1     -45.925  59.715 -50.043  1.00  0.00    -0.346 OA
HETATM   24  C   UNL     1     -44.985  58.006 -51.357  1.00  0.00     0.040 A 
HETATM   25  C   UNL     1     -45.557  60.777 -49.154  1.00  0.00     0.202 C 
HETATM   26  C   UNL     1     -44.661  61.779 -49.863  1.00  0.00     0.202 C 
HETATM   27  C   UNL     1     -43.913  57.444 -52.056  1.00  0.00     0.012 A 
ENDBRANCH  17  18
ENDBRANCH   1  17
TORSDOF 5
ENDMDL
MODEL 8
REMARK VINA RESULT:      -7.1      2.653      3.584
REMARK  5 active torsions:
REMARK  status: ('A' for Active; 'I' for Inactive)
REMARK    1  A    between atoms: C_2  and  C_3 
REMARK    2  A    between atoms: C_3  and  N_4 
REMARK    3  A    between atoms: C_3  and  C_18 
REMARK    4  A    between atoms: N_4  and  C_7 
REMARK    5  A    between atoms: C_7  and  C_8 
ROOT
HETATM    1  N   UNL     1     -41.793  56.004 -56.099  1.00  0.00    -0.056 N 
HETATM    2  H   UNL     1     -41.165  56.818 -56.117  1.00  0.00     0.278 HD
HETATM    3  H   UNL     1     -41.239  55.196 -56.404  1.00  0.00     0.278 HD
ENDROOT
BRANCH   1   4
HETATM    4  C   UNL     1     -42.223  55.816 -54.672  1.00  0.00     0.292 C 
BRANCH   4   5
HETATM    5  C   UNL     1     -41.497  54.645 -54.030  1.00  0.00    -0.020 A 
HETATM    6  C   UNL     1     -40.702  53.752 -54.777  1.00  0.00     0.011 A 
HETATM    7  C   UNL     1     -40.058  52.677 -54.156  1.00  0.00     0.024 A 
HETATM    8  C   UNL     1     -40.198  52.478 -52.786  1.00  0.00     0.034 A 
HETATM    9  C   UNL     1     -40.977  53.349 -52.029  1.00  0.00     0.024 A 
HETATM   10 CL   UNL     1     -39.405  51.157 -52.027  1.00  0.00    -0.084 Cl
HETATM   11  C   UNL     1     -41.623  54.425 -52.645  1.00  0.00     0.011 A 
ENDBRANCH   4   5
BRANCH   4  12
HETATM   12  C   UNL     1     -41.924  57.007 -53.808  1.00  0.00     0.190 A 
HETATM   13  N   UNL     1     -42.865  57.691 -53.148  1.00  0.00    -0.109 NA
HETATM   14  O   UNL     1     -42.139  58.724 -52.545  1.00  0.00    -0.205 OA
HETATM   15  C   UNL     1     -40.849  58.574 -52.945  1.00  0.00     0.288 A 
HETATM   16  N   UNL     1     -40.658  57.557 -53.755  1.00  0.00    -0.215 NA
ENDBRANCH   4  12
ENDBRANCH   1   4
BRANCH   1  17
HETATM   17  C   UNL     1     -42.900  56.256 -57.054  1.00  0.00     0.272 C 
BRANCH  17  18
HETATM   18  C   UNL     1     -42.598  57.452 -57.910  1.00  0.00    -0.030 A 
HETATM   19  C   UNL     1     -42.115  58.633 -57.325  1.00  0.00     0.048 A 
HETATM   20  C   UNL     1     -41.794  59.734 -58.119  1.00  0.00     0.102 A 
HETATM   21  C   UNL     1     -41.978  59.676 -59.502  1.00  0.00     0.102 A 
HETATM   22  O   UNL     1     -41.309  60.837 -57.469  1.00  0.00    -0.346 OA
HETATM   23  O   UNL     1     -41.720  60.731 -60.337  1.00  0.00    -0.346 OA
HETATM   24  C   UNL     1     -42.437  58.504 -60.095  1.00  0.00     0.040 A 
HETATM   25  C   UNL     1     -41.615  61.961 -59.608  1.00  0.00     0.202 C 
HETATM   26  C   UNL     1     -40.732  61.781 -58.384  1.00  0.00     0.202 C 
HETATM   27  C   UNL     1     -42.745  57.393 -59.304  1.00  0.00     0.012 A 
ENDBRANCH  17  18
ENDBRANCH   1  17
TORSDOF 5
ENDMDL
MODEL 9
REMARK VINA RESULT:      -7.0      3.308      7.202
REMARK  5 active torsions:
REMARK  status: ('A' for Active; 'I' for Inactive)
REMARK    1  A    between atoms: C_2  and  C_3 
REMARK    2  A    between atoms: C_3  and  N_4 
REMARK    3  A    between atoms: C_3  and  C_18 
REMARK    4  A    between atoms: N_4  and  C_7 
REMARK    5  A    between atoms: C_7  and  C_8 
ROOT
HETATM    1  N   UNL     1     -43.344  55.454 -55.416  1.00  0.00    -0.056 N 
HETATM    2  H   UNL     1     -43.771  55.093 -56.280  1.00  0.00     0.278 HD
HETATM    3  H   UNL     1     -42.329  55.353 -55.523  1.00  0.00     0.278 HD
ENDROOT
BRANCH   1   4
HETATM    4  C   UNL     1     -43.704  56.910 -55.328  1.00  0.00     0.292 C 
BRANCH   4   5
HETATM    5  C   UNL     1     -42.932  57.599 -54.215  1.00  0.00    -0.020 A 
HETATM    6  C   UNL     1     -41.524  57.642 -54.192  1.00  0.00     0.011 A 
HETATM    7  C   UNL     1     -40.845  58.274 -53.145  1.00  0.00     0.024 A 
HETATM    8  C   UNL     1     -41.560  58.870 -52.111  1.00  0.00     0.034 A 
HETATM    9  C   UNL     1     -42.952  58.841 -52.114  1.00  0.00     0.024 A 
HETATM   10 CL   UNL     1     -40.722  59.646 -50.827  1.00  0.00    -0.084 Cl
HETATM   11  C   UNL     1     -43.635  58.210 -53.159  1.00  0.00     0.011 A 
ENDBRANCH   4   5
BRANCH   4  12
HETATM   12  C   UNL     1     -43.383  57.670 -56.583  1.00  0.00     0.190 A 
HETATM   13  N   UNL     1     -43.854  58.895 -56.841  1.00  0.00    -0.109 NA
HETATM   14  O   UNL     1     -43.349  59.164 -58.117  1.00  0.00    -0.205 OA
HETATM   15  C   UNL     1     -42.668  58.054 -58.505  1.00  0.00     0.288 A 
HETATM   16  N   UNL     1     -42.684  57.084 -57.619  1.00  0.00    -0.215 NA
ENDBRANCH   4  12
ENDBRANCH   1   4
BRANCH   1  17
HETATM   17  C   UNL     1     -43.825  54.624 -54.284  1.00  0.00     0.272 C 
BRANCH  17  18
HETATM   18  C   UNL     1     -42.705  54.337 -53.326  1.00  0.00    -0.030 A 
HETATM   19  C   UNL     1     -42.813  54.723 -51.980  1.00  0.00     0.048 A 
HETATM   20  C   UNL     1     -41.793  54.422 -51.077  1.00  0.00     0.102 A 
HETATM   21  C   UNL     1     -40.645  53.759 -51.513  1.00  0.00     0.102 A 
HETATM   22  O   UNL     1     -41.990  54.815 -49.780  1.00  0.00    -0.346 OA
HETATM   23  O   UNL     1     -39.590  53.467 -50.690  1.00  0.00    -0.346 OA
HETATM   24  C   UNL     1     -40.536  53.355 -52.840  1.00  0.00     0.040 A 
HETATM   25  C   UNL     1     -39.644  54.233 -49.479  1.00  0.00     0.202 C 
HETATM   26  C   UNL     1     -41.045  54.201 -48.891  1.00  0.00     0.202 C 
HETATM   27  C   UNL     1     -41.562  53.639 -53.746  1.00  0.00     0.012 A 
ENDBRANCH  17  18
ENDBRANCH   1  17
TORSDOF 5
ENDMDL
MODEL 10
REMARK VINA RESULT:      -7.0     16.570     18.223
REMARK  5 active torsions:
REMARK  status: ('A' for Active; 'I' for Inactive)
REMARK    1  A    between atoms: C_2  and  C_3 
REMARK    2  A    between atoms: C_3  and  N_4 
REMARK    3  A    between atoms: C_3  and  C_18 
REMARK    4  A    between atoms: N_4  and  C_7 
REMARK    5  A    between atoms: C_7  and  C_8 
ROOT
HETATM    1  N   UNL     1     -33.428  41.182 -54.496  1.00  0.00    -0.056 N 
HETATM    2  H   UNL     1     -33.948  42.046 -54.695  1.00  0.00     0.278 HD
HETATM    3  H   UNL     1     -32.568  41.459 -54.010  1.00  0.00     0.278 HD
ENDROOT
BRANCH   1   4
HETATM    4  C   UNL     1     -34.286  40.356 -53.581  1.00  0.00     0.292 C 
BRANCH   4   5
HETATM    5  C   UNL     1     -33.629  40.181 -52.222  1.00  0.00    -0.020 A 
HETATM    6  C   UNL     1     -34.378  39.992 -51.043  1.00  0.00     0.011 A 
HETATM    7  C   UNL     1     -33.740  39.847 -49.807  1.00  0.00     0.024 A 
HETATM    8  C   UNL     1     -32.352  39.890 -49.730  1.00  0.00     0.034 A 
HETATM    9  C   UNL     1     -31.592  40.075 -50.882  1.00  0.00     0.024 A 
HETATM   10 CL   UNL     1     -31.573  39.711 -48.209  1.00  0.00    -0.084 Cl
HETATM   11  C   UNL     1     -32.225  40.220 -52.120  1.00  0.00     0.011 A 
ENDBRANCH   4   5
BRANCH   4  12
HETATM   12  C   UNL     1     -35.625  40.981 -53.313  1.00  0.00     0.190 A 
HETATM   13  N   UNL     1     -35.782  42.266 -52.976  1.00  0.00    -0.109 NA
HETATM   14  O   UNL     1     -37.161  42.372 -52.772  1.00  0.00    -0.205 OA
HETATM   15  C   UNL     1     -37.677  41.129 -52.964  1.00  0.00     0.288 A 
HETATM   16  N   UNL     1     -36.776  40.220 -53.262  1.00  0.00    -0.215 NA
ENDBRANCH   4  12
ENDBRANCH   1   4
BRANCH   1  17
HETATM   17  C   UNL     1     -33.098  40.537 -55.791  1.00  0.00     0.272 C 
BRANCH  17  18
HETATM   18  C   UNL     1     -34.254  40.642 -56.744  1.00  0.00    -0.030 A 
HETATM   19  C   UNL     1     -34.693  39.509 -57.447  1.00  0.00     0.048 A 
HETATM   20  C   UNL     1     -35.792  39.592 -58.302  1.00  0.00     0.102 A 
HETATM   21  C   UNL     1     -36.446  40.811 -58.485  1.00  0.00     0.102 A 
HETATM   22  O   UNL     1     -36.165  38.435 -58.932  1.00  0.00    -0.346 OA
HETATM   23  O   UNL     1     -37.506  40.972 -59.337  1.00  0.00    -0.346 OA
HETATM   24  C   UNL     1     -36.032  41.936 -57.778  1.00  0.00     0.040 A 
HETATM   25  C   UNL     1     -37.605  39.881 -60.261  1.00  0.00     0.202 C 
HETATM   26  C   UNL     1     -37.463  38.554 -59.535  1.00  0.00     0.202 C 
HETATM   27  C   UNL     1     -34.942  41.854 -56.907  1.00  0.00     0.012 A 
ENDBRANCH  17  18
ENDBRANCH   1  17
TORSDOF 5
ENDMDL
