MODEL 1
REMARK VINA RESULT:      -7.1      0.000      0.000
REMARK  4 active torsions:
REMARK  status: ('A' for Active; 'I' for Inactive)
REMARK    1  A    between atoms: C_3  and  N_4 
REMARK    2  A    between atoms: C_5  and  C_6 
REMARK    3  A    between atoms: C_13  and  N_14 
REMARK       I    between atoms: N_14  and  C_15 
REMARK    4  A    between atoms: C_15  and  C_16 
ROOT
HETATM    1  C   UNL     1     -41.068  56.380 -49.840  1.00  0.00     0.005 A 
HETATM    2  C   UNL     1     -40.998  55.048 -50.247  1.00  0.00     0.031 A 
HETATM    3  C   UNL     1     -41.268  54.698 -51.571  1.00  0.00     0.058 A 
HETATM    4  C   UNL     1     -41.590  55.705 -52.493  1.00  0.00     0.061 A 
HETATM    5  C   UNL     1     -41.678  57.042 -52.095  1.00  0.00     0.037 A 
HETATM    6  C   UNL     1     -41.407  57.371 -50.761  1.00  0.00     0.029 A 
ENDROOT
BRANCH   5   7
HETATM    7  N   UNL     1     -42.015  58.099 -52.960  1.00  0.00    -0.321 N 
HETATM    8  C   UNL     1     -41.184  59.070 -53.494  1.00  0.00     0.279 C 
HETATM    9  O   UNL     1     -39.973  59.145 -53.317  1.00  0.00    -0.265 OA
HETATM   10  H   UNL     1     -42.982  58.160 -53.264  1.00  0.00     0.169 HD
BRANCH   8  11
HETATM   11  C   UNL     1     -41.900  60.014 -54.335  1.00  0.00     0.142 A 
HETATM   12  O   UNL     1     -41.716  59.983 -55.695  1.00  0.00    -0.317 OA
HETATM   13  C   UNL     1     -42.501  60.955 -56.227  1.00  0.00     0.143 A 
HETATM   14  C   UNL     1     -43.187  61.619 -55.237  1.00  0.00     0.027 A 
HETATM   15  C   UNL     1     -42.801  61.013 -54.017  1.00  0.00     0.045 A 
ENDBRANCH   8  11
ENDBRANCH   5   7
BRANCH   3  16
HETATM   16  N   UNL     1     -41.145  53.351 -51.948  1.00  0.00    -0.259 NA
HETATM   17  C   UNL     1     -40.155  53.045 -52.722  1.00  0.00     0.146 C 
BRANCH  17  18
HETATM   18  C   UNL     1     -39.975  51.678 -53.128  1.00  0.00     0.049 A 
HETATM   19  N   UNL     1     -39.584  50.677 -52.268  1.00  0.00    -0.365 N 
HETATM   20  H   UNL     1     -39.392  50.829 -51.285  1.00  0.00     0.165 HD
HETATM   21  C   UNL     1     -39.500  49.487 -52.941  1.00  0.00     0.088 A 
HETATM   22  C   UNL     1     -39.834  49.722 -54.256  1.00  0.00     0.019 A 
HETATM   23  C   UNL     1     -40.133  51.102 -54.375  1.00  0.00     0.032 A 
ENDBRANCH  17  18
ENDBRANCH   3  16
TORSDOF 4
ENDMDL
MODEL 2
REMARK VINA RESULT:      -6.9      4.240      4.900
REMARK  4 active torsions:
REMARK  status: ('A' for Active; 'I' for Inactive)
REMARK    1  A    between atoms: C_3  and  N_4 
REMARK    2  A    between atoms: C_5  and  C_6 
REMARK    3  A    between atoms: C_13  and  N_14 
REMARK       I    between atoms: N_14  and  C_15 
REMARK    4  A    between atoms: C_15  and  C_16 
ROOT
HETATM    1  C   UNL     1     -41.735  57.228 -54.430  1.00  0.00     0.005 A 
HETATM    2  C   UNL     1     -41.277  56.097 -53.756  1.00  0.00     0.031 A 
HETATM    3  C   UNL     1     -41.561  54.820 -54.242  1.00  0.00     0.058 A 
HETATM    4  C   UNL     1     -42.293  54.688 -55.431  1.00  0.00     0.061 A 
HETATM    5  C   UNL     1     -42.771  55.812 -56.110  1.00  0.00     0.037 A 
HETATM    6  C   UNL     1     -42.479  57.084 -55.602  1.00  0.00     0.029 A 
ENDROOT
BRANCH   5   7
HETATM    7  N   UNL     1     -43.529  55.754 -57.294  1.00  0.00    -0.321 N 
HETATM    8  C   UNL     1     -43.313  56.427 -58.485  1.00  0.00     0.279 C 
HETATM    9  O   UNL     1     -42.377  57.185 -58.715  1.00  0.00    -0.265 OA
HETATM   10  H   UNL     1     -44.323  55.122 -57.306  1.00  0.00     0.169 HD
BRANCH   8  11
HETATM   11  C   UNL     1     -44.324  56.126 -59.484  1.00  0.00     0.142 A 
HETATM   12  O   UNL     1     -44.022  55.271 -60.515  1.00  0.00    -0.317 OA
HETATM   13  C   UNL     1     -45.136  55.165 -61.285  1.00  0.00     0.143 A 
HETATM   14  C   UNL     1     -46.151  55.940 -60.777  1.00  0.00     0.027 A 
HETATM   15  C   UNL     1     -45.629  56.560 -59.616  1.00  0.00     0.045 A 
ENDBRANCH   8  11
ENDBRANCH   5   7
BRANCH   3  16
HETATM   16  N   UNL     1     -41.044  53.710 -53.555  1.00  0.00    -0.259 NA
HETATM   17  C   UNL     1     -40.770  52.658 -54.257  1.00  0.00     0.146 C 
BRANCH  17  18
HETATM   18  C   UNL     1     -40.227  51.498 -53.605  1.00  0.00     0.049 A 
HETATM   19  N   UNL     1     -39.792  51.496 -52.300  1.00  0.00    -0.365 N 
HETATM   20  H   UNL     1     -39.821  52.312 -51.701  1.00  0.00     0.165 HD
HETATM   21  C   UNL     1     -39.332  50.252 -51.961  1.00  0.00     0.088 A 
HETATM   22  C   UNL     1     -39.462  49.438 -53.065  1.00  0.00     0.019 A 
HETATM   23  C   UNL     1     -40.027  50.223 -54.101  1.00  0.00     0.032 A 
ENDBRANCH  17  18
ENDBRANCH   3  16
TORSDOF 4
ENDMDL
MODEL 3
REMARK VINA RESULT:      -6.8      3.987      4.773
REMARK  4 active torsions:
REMARK  status: ('A' for Active; 'I' for Inactive)
REMARK    1  A    between atoms: C_3  and  N_4 
REMARK    2  A    between atoms: C_5  and  C_6 
REMARK    3  A    between atoms: C_13  and  N_14 
REMARK       I    between atoms: N_14  and  C_15 
REMARK    4  A    between atoms: C_15  and  C_16 
ROOT
HETATM    1  C   UNL     1     -44.544  57.212 -54.314  1.00  0.00     0.005 A 
HETATM    2  C   UNL     1     -43.818  56.041 -54.099  1.00  0.00     0.031 A 
HETATM    3  C   UNL     1     -43.239  55.786 -52.855  1.00  0.00     0.058 A 
HETATM    4  C   UNL     1     -43.415  56.711 -51.815  1.00  0.00     0.061 A 
HETATM    5  C   UNL     1     -44.128  57.896 -52.021  1.00  0.00     0.037 A 
HETATM    6  C   UNL     1     -44.696  58.134 -53.278  1.00  0.00     0.029 A 
ENDROOT
BRANCH   5   7
HETATM    7  N   UNL     1     -44.325  58.877 -51.032  1.00  0.00    -0.321 N 
HETATM    8  C   UNL     1     -45.485  59.172 -50.335  1.00  0.00     0.279 C 
HETATM    9  O   UNL     1     -46.554  58.582 -50.451  1.00  0.00    -0.265 OA
HETATM   10  H   UNL     1     -43.520  59.432 -50.762  1.00  0.00     0.169 HD
BRANCH   8  11
HETATM   11  C   UNL     1     -45.308  60.270 -49.400  1.00  0.00     0.142 A 
HETATM   12  O   UNL     1     -46.013  60.276 -48.223  1.00  0.00    -0.317 OA
HETATM   13  C   UNL     1     -45.654  61.399 -47.548  1.00  0.00     0.143 A 
HETATM   14  C   UNL     1     -44.735  62.123 -48.268  1.00  0.00     0.027 A 
HETATM   15  C   UNL     1     -44.510  61.396 -49.463  1.00  0.00     0.045 A 
ENDBRANCH   8  11
ENDBRANCH   5   7
BRANCH   3  16
HETATM   16  N   UNL     1     -42.553  54.575 -52.669  1.00  0.00    -0.259 NA
HETATM   17  C   UNL     1     -41.469  54.402 -53.355  1.00  0.00     0.146 C 
BRANCH  17  18
HETATM   18  C   UNL     1     -40.721  53.185 -53.193  1.00  0.00     0.049 A 
HETATM   19  N   UNL     1     -40.212  52.763 -51.986  1.00  0.00    -0.365 N 
HETATM   20  H   UNL     1     -40.326  53.278 -51.122  1.00  0.00     0.165 HD
HETATM   21  C   UNL     1     -39.551  51.575 -52.146  1.00  0.00     0.088 A 
HETATM   22  C   UNL     1     -39.625  51.226 -53.476  1.00  0.00     0.019 A 
HETATM   23  C   UNL     1     -40.363  52.241 -54.137  1.00  0.00     0.032 A 
ENDBRANCH  17  18
ENDBRANCH   3  16
TORSDOF 4
ENDMDL
MODEL 4
REMARK VINA RESULT:      -6.8      4.520      7.850
REMARK  4 active torsions:
REMARK  status: ('A' for Active; 'I' for Inactive)
REMARK    1  A    between atoms: C_3  and  N_4 
REMARK    2  A    between atoms: C_5  and  C_6 
REMARK    3  A    between atoms: C_13  and  N_14 
REMARK       I    between atoms: N_14  and  C_15 
REMARK    4  A    between atoms: C_15  and  C_16 
ROOT
HETATM    1  C   UNL     1     -41.552  57.277 -53.273  1.00  0.00     0.005 A 
HETATM    2  C   UNL     1     -42.200  57.378 -54.504  1.00  0.00     0.031 A 
HETATM    3  C   UNL     1     -42.432  56.239 -55.276  1.00  0.00     0.058 A 
HETATM    4  C   UNL     1     -42.026  54.987 -54.790  1.00  0.00     0.061 A 
HETATM    5  C   UNL     1     -41.362  54.874 -53.565  1.00  0.00     0.037 A 
HETATM    6  C   UNL     1     -41.135  56.029 -52.808  1.00  0.00     0.029 A 
ENDROOT
BRANCH   5   7
HETATM    7  N   UNL     1     -40.908  53.656 -53.027  1.00  0.00    -0.321 N 
HETATM    8  C   UNL     1     -40.231  52.633 -53.669  1.00  0.00     0.279 C 
HETATM    9  O   UNL     1     -39.879  52.640 -54.844  1.00  0.00    -0.265 OA
HETATM   10  H   UNL     1     -41.064  53.500 -52.036  1.00  0.00     0.169 HD
BRANCH   8  11
HETATM   11  C   UNL     1     -39.943  51.515 -52.785  1.00  0.00     0.142 A 
HETATM   12  O   UNL     1     -39.829  50.251 -53.308  1.00  0.00    -0.317 OA
HETATM   13  C   UNL     1     -39.555  49.415 -52.274  1.00  0.00     0.143 A 
HETATM   14  C   UNL     1     -39.494  50.112 -51.091  1.00  0.00     0.027 A 
HETATM   15  C   UNL     1     -39.744  51.466 -51.419  1.00  0.00     0.045 A 
ENDBRANCH   8  11
ENDBRANCH   5   7
BRANCH   3  16
HETATM   16  N   UNL     1     -43.125  56.380 -56.489  1.00  0.00    -0.259 NA
HETATM   17  C   UNL     1     -42.928  55.471 -57.389  1.00  0.00     0.146 C 
BRANCH  17  18
HETATM   18  C   UNL     1     -43.623  55.561 -58.644  1.00  0.00     0.049 A 
HETATM   19  N   UNL     1     -44.434  54.563 -59.134  1.00  0.00    -0.365 N 
HETATM   20  H   UNL     1     -44.601  53.690 -58.648  1.00  0.00     0.165 HD
HETATM   21  C   UNL     1     -44.955  54.935 -60.345  1.00  0.00     0.088 A 
HETATM   22  C   UNL     1     -44.469  56.188 -60.647  1.00  0.00     0.019 A 
HETATM   23  C   UNL     1     -43.630  56.583 -59.575  1.00  0.00     0.032 A 
ENDBRANCH  17  18
ENDBRANCH   3  16
TORSDOF 4
ENDMDL
MODEL 5
REMARK VINA RESULT:      -6.5      2.489      3.422
REMARK  4 active torsions:
REMARK  status: ('A' for Active; 'I' for Inactive)
REMARK    1  A    between atoms: C_3  and  N_4 
REMARK    2  A    between atoms: C_5  and  C_6 
REMARK    3  A    between atoms: C_13  and  N_14 
REMARK       I    between atoms: N_14  and  C_15 
REMARK    4  A    between atoms: C_15  and  C_16 
ROOT
HETATM    1  C   UNL     1     -43.029  56.665 -56.838  1.00  0.00     0.005 A 
HETATM    2  C   UNL     1     -42.427  55.442 -56.545  1.00  0.00     0.031 A 
HETATM    3  C   UNL     1     -41.905  55.196 -55.275  1.00  0.00     0.058 A 
HETATM    4  C   UNL     1     -42.012  56.187 -54.287  1.00  0.00     0.061 A 
HETATM    5  C   UNL     1     -42.600  57.423 -54.570  1.00  0.00     0.037 A 
HETATM    6  C   UNL     1     -43.114  57.650 -55.853  1.00  0.00     0.029 A 
ENDROOT
BRANCH   5   7
HETATM    7  N   UNL     1     -42.722  58.468 -53.637  1.00  0.00    -0.321 N 
HETATM    8  C   UNL     1     -41.756  59.373 -53.230  1.00  0.00     0.279 C 
HETATM    9  O   UNL     1     -40.608  59.430 -53.659  1.00  0.00    -0.265 OA
HETATM   10  H   UNL     1     -43.635  58.610 -53.216  1.00  0.00     0.169 HD
BRANCH   8  11
HETATM   11  C   UNL     1     -42.251  60.302 -52.228  1.00  0.00     0.142 A 
HETATM   12  O   UNL     1     -42.920  61.433 -52.626  1.00  0.00    -0.317 OA
HETATM   13  C   UNL     1     -43.270  62.106 -51.500  1.00  0.00     0.143 A 
HETATM   14  C   UNL     1     -42.836  61.437 -50.380  1.00  0.00     0.027 A 
HETATM   15  C   UNL     1     -42.178  60.273 -50.849  1.00  0.00     0.045 A 
ENDBRANCH   8  11
ENDBRANCH   5   7
BRANCH   3  16
HETATM   16  N   UNL     1     -41.345  53.936 -55.011  1.00  0.00    -0.259 NA
HETATM   17  C   UNL     1     -41.004  53.687 -53.788  1.00  0.00     0.146 C 
BRANCH  17  18
HETATM   18  C   UNL     1     -40.438  52.407 -53.461  1.00  0.00     0.049 A 
HETATM   19  N   UNL     1     -39.915  52.104 -52.225  1.00  0.00    -0.365 N 
HETATM   20  H   UNL     1     -39.888  52.760 -51.453  1.00  0.00     0.165 HD
HETATM   21  C   UNL     1     -39.453  50.815 -52.215  1.00  0.00     0.088 A 
HETATM   22  C   UNL     1     -39.673  50.278 -53.464  1.00  0.00     0.019 A 
HETATM   23  C   UNL     1     -40.294  51.281 -54.249  1.00  0.00     0.032 A 
ENDBRANCH  17  18
ENDBRANCH   3  16
TORSDOF 4
ENDMDL
MODEL 6
REMARK VINA RESULT:      -6.3     16.075     18.706
REMARK  4 active torsions:
REMARK  status: ('A' for Active; 'I' for Inactive)
REMARK    1  A    between atoms: C_3  and  N_4 
REMARK    2  A    between atoms: C_5  and  C_6 
REMARK    3  A    between atoms: C_13  and  N_14 
REMARK       I    between atoms: N_14  and  C_15 
REMARK    4  A    between atoms: C_15  and  C_16 
ROOT
HETATM    1  C   UNL     1     -35.685  42.745 -56.912  1.00  0.00     0.005 A 
HETATM    2  C   UNL     1     -36.138  41.857 -57.887  1.00  0.00     0.031 A 
HETATM    3  C   UNL     1     -35.917  40.486 -57.753  1.00  0.00     0.058 A 
HETATM    4  C   UNL     1     -35.253  40.008 -56.613  1.00  0.00     0.061 A 
HETATM    5  C   UNL     1     -34.781  40.888 -55.635  1.00  0.00     0.037 A 
HETATM    6  C   UNL     1     -35.009  42.260 -55.792  1.00  0.00     0.029 A 
ENDROOT
BRANCH   5   7
HETATM    7  N   UNL     1     -34.090  40.482 -54.479  1.00  0.00    -0.321 N 
HETATM    8  C   UNL     1     -32.724  40.327 -54.305  1.00  0.00     0.279 C 
HETATM    9  O   UNL     1     -31.868  40.559 -55.152  1.00  0.00    -0.265 OA
HETATM   10  H   UNL     1     -34.642  40.299 -53.648  1.00  0.00     0.169 HD
BRANCH   8  11
HETATM   11  C   UNL     1     -32.382  39.870 -52.969  1.00  0.00     0.142 A 
HETATM   12  O   UNL     1     -32.377  38.526 -52.695  1.00  0.00    -0.317 OA
HETATM   13  C   UNL     1     -32.020  38.385 -51.392  1.00  0.00     0.143 A 
HETATM   14  C   UNL     1     -31.799  39.613 -50.815  1.00  0.00     0.027 A 
HETATM   15  C   UNL     1     -32.032  40.572 -51.831  1.00  0.00     0.045 A 
ENDBRANCH   8  11
ENDBRANCH   5   7
BRANCH   3  16
HETATM   16  N   UNL     1     -36.426  39.624 -58.737  1.00  0.00    -0.259 NA
HETATM   17  C   UNL     1     -37.059  40.168 -59.726  1.00  0.00     0.146 C 
BRANCH  17  18
HETATM   18  C   UNL     1     -37.590  39.332 -60.768  1.00  0.00     0.049 A 
HETATM   19  N   UNL     1     -37.086  39.303 -62.048  1.00  0.00    -0.365 N 
HETATM   20  H   UNL     1     -36.303  39.870 -62.352  1.00  0.00     0.165 HD
HETATM   21  C   UNL     1     -37.794  38.414 -62.811  1.00  0.00     0.088 A 
HETATM   22  C   UNL     1     -38.776  37.865 -62.017  1.00  0.00     0.019 A 
HETATM   23  C   UNL     1     -38.648  38.442 -60.729  1.00  0.00     0.032 A 
ENDBRANCH  17  18
ENDBRANCH   3  16
TORSDOF 4
ENDMDL
MODEL 7
REMARK VINA RESULT:      -6.3      4.427      5.945
REMARK  4 active torsions:
REMARK  status: ('A' for Active; 'I' for Inactive)
REMARK    1  A    between atoms: C_3  and  N_4 
REMARK    2  A    between atoms: C_5  and  C_6 
REMARK    3  A    between atoms: C_13  and  N_14 
REMARK       I    between atoms: N_14  and  C_15 
REMARK    4  A    between atoms: C_15  and  C_16 
ROOT
HETATM    1  C   UNL     1     -42.487  60.868 -53.309  1.00  0.00     0.005 A 
HETATM    2  C   UNL     1     -41.861  59.639 -53.515  1.00  0.00     0.031 A 
HETATM    3  C   UNL     1     -41.856  58.671 -52.510  1.00  0.00     0.058 A 
HETATM    4  C   UNL     1     -42.508  58.940 -51.297  1.00  0.00     0.061 A 
HETATM    5  C   UNL     1     -43.126  60.173 -51.072  1.00  0.00     0.037 A 
HETATM    6  C   UNL     1     -43.116  61.132 -52.092  1.00  0.00     0.029 A 
ENDROOT
BRANCH   5   7
HETATM    7  N   UNL     1     -43.779  60.518 -49.874  1.00  0.00    -0.321 N 
HETATM    8  C   UNL     1     -45.132  60.457 -49.585  1.00  0.00     0.279 C 
HETATM    9  O   UNL     1     -46.004  60.047 -50.345  1.00  0.00    -0.265 OA
HETATM   10  H   UNL     1     -43.198  60.828 -49.102  1.00  0.00     0.169 HD
BRANCH   8  11
HETATM   11  C   UNL     1     -45.435  60.917 -48.241  1.00  0.00     0.142 A 
HETATM   12  O   UNL     1     -46.238  60.155 -47.430  1.00  0.00    -0.317 OA
HETATM   13  C   UNL     1     -46.348  60.811 -46.246  1.00  0.00     0.143 A 
HETATM   14  C   UNL     1     -45.635  61.987 -46.276  1.00  0.00     0.027 A 
HETATM   15  C   UNL     1     -45.046  62.056 -47.562  1.00  0.00     0.045 A 
ENDBRANCH   8  11
ENDBRANCH   5   7
BRANCH   3  16
HETATM   16  N   UNL     1     -41.251  57.432 -52.775  1.00  0.00    -0.259 NA
HETATM   17  C   UNL     1     -41.829  56.668 -53.645  1.00  0.00     0.146 C 
BRANCH  17  18
HETATM   18  C   UNL     1     -41.245  55.394 -53.962  1.00  0.00     0.049 A 
HETATM   19  N   UNL     1     -40.531  55.153 -55.114  1.00  0.00    -0.365 N 
HETATM   20  H   UNL     1     -40.365  55.856 -55.825  1.00  0.00     0.165 HD
HETATM   21  C   UNL     1     -40.101  53.854 -55.136  1.00  0.00     0.088 A 
HETATM   22  C   UNL     1     -40.548  53.241 -53.986  1.00  0.00     0.019 A 
HETATM   23  C   UNL     1     -41.269  54.212 -53.246  1.00  0.00     0.032 A 
ENDBRANCH  17  18
ENDBRANCH   3  16
TORSDOF 4
ENDMDL
MODEL 8
REMARK VINA RESULT:      -6.3      4.178      6.703
REMARK  4 active torsions:
REMARK  status: ('A' for Active; 'I' for Inactive)
REMARK    1  A    between atoms: C_3  and  N_4 
REMARK    2  A    between atoms: C_5  and  C_6 
REMARK    3  A    between atoms: C_13  and  N_14 
REMARK       I    between atoms: N_14  and  C_15 
REMARK    4  A    between atoms: C_15  and  C_16 
ROOT
HETATM    1  C   UNL     1     -41.570  53.107 -53.977  1.00  0.00     0.005 A 
HETATM    2  C   UNL     1     -41.454  54.128 -53.035  1.00  0.00     0.031 A 
HETATM    3  C   UNL     1     -41.947  55.404 -53.311  1.00  0.00     0.058 A 
HETATM    4  C   UNL     1     -42.581  55.643 -54.539  1.00  0.00     0.061 A 
HETATM    5  C   UNL     1     -42.691  54.632 -55.498  1.00  0.00     0.037 A 
HETATM    6  C   UNL     1     -42.186  53.360 -55.203  1.00  0.00     0.029 A 
ENDROOT
BRANCH   5   7
HETATM    7  N   UNL     1     -43.295  54.805 -56.758  1.00  0.00    -0.321 N 
HETATM    8  C   UNL     1     -43.149  55.862 -57.641  1.00  0.00     0.279 C 
HETATM    9  O   UNL     1     -42.421  56.835 -57.473  1.00  0.00    -0.265 OA
HETATM   10  H   UNL     1     -43.896  54.059 -57.091  1.00  0.00     0.169 HD
BRANCH   8  11
HETATM   11  C   UNL     1     -43.951  55.698 -58.841  1.00  0.00     0.142 A 
HETATM   12  O   UNL     1     -44.559  56.792 -59.404  1.00  0.00    -0.317 OA
HETATM   13  C   UNL     1     -45.228  56.357 -60.503  1.00  0.00     0.143 A 
HETATM   14  C   UNL     1     -45.069  55.000 -60.660  1.00  0.00     0.027 A 
HETATM   15  C   UNL     1     -44.246  54.574 -59.590  1.00  0.00     0.045 A 
ENDBRANCH   8  11
ENDBRANCH   5   7
BRANCH   3  16
HETATM   16  N   UNL     1     -41.847  56.392 -52.317  1.00  0.00    -0.259 NA
HETATM   17  C   UNL     1     -41.133  57.435 -52.594  1.00  0.00     0.146 C 
BRANCH  17  18
HETATM   18  C   UNL     1     -41.008  58.482 -51.617  1.00  0.00     0.049 A 
HETATM   19  N   UNL     1     -42.062  59.268 -51.209  1.00  0.00    -0.365 N 
HETATM   20  H   UNL     1     -43.004  59.168 -51.568  1.00  0.00     0.165 HD
HETATM   21  C   UNL     1     -41.637  60.173 -50.274  1.00  0.00     0.088 A 
HETATM   22  C   UNL     1     -40.288  59.976 -50.079  1.00  0.00     0.019 A 
HETATM   23  C   UNL     1     -39.891  58.911 -50.925  1.00  0.00     0.032 A 
ENDBRANCH  17  18
ENDBRANCH   3  16
TORSDOF 4
ENDMDL
MODEL 9
REMARK VINA RESULT:      -6.2      3.841      7.031
REMARK  4 active torsions:
REMARK  status: ('A' for Active; 'I' for Inactive)
REMARK    1  A    between atoms: C_3  and  N_4 
REMARK    2  A    between atoms: C_5  and  C_6 
REMARK    3  A    between atoms: C_13  and  N_14 
REMARK       I    between atoms: N_14  and  C_15 
REMARK    4  A    between atoms: C_15  and  C_16 
ROOT
HETATM    1  C   UNL     1     -44.981  58.702 -52.468  1.00  0.00     0.005 A 
HETATM    2  C   UNL     1     -44.869  58.625 -53.856  1.00  0.00     0.031 A 
HETATM    3  C   UNL     1     -44.021  57.687 -54.447  1.00  0.00     0.058 A 
HETATM    4  C   UNL     1     -43.299  56.806 -53.628  1.00  0.00     0.061 A 
HETATM    5  C   UNL     1     -43.390  56.881 -52.235  1.00  0.00     0.037 A 
HETATM    6  C   UNL     1     -44.243  57.833 -51.663  1.00  0.00     0.029 A 
ENDROOT
BRANCH   5   7
HETATM    7  N   UNL     1     -42.680  56.046 -51.354  1.00  0.00    -0.321 N 
HETATM    8  C   UNL     1     -41.563  56.352 -50.594  1.00  0.00     0.279 C 
HETATM    9  O   UNL     1     -41.016  57.448 -50.542  1.00  0.00    -0.265 OA
HETATM   10  H   UNL     1     -43.031  55.102 -51.225  1.00  0.00     0.169 HD
BRANCH   8  11
HETATM   11  C   UNL     1     -41.094  55.219 -49.814  1.00  0.00     0.142 A 
HETATM   12  O   UNL     1     -41.028  55.320 -48.447  1.00  0.00    -0.317 OA
HETATM   13  C   UNL     1     -40.568  54.130 -47.980  1.00  0.00     0.143 A 
HETATM   14  C   UNL     1     -40.331  53.261 -49.019  1.00  0.00     0.027 A 
HETATM   15  C   UNL     1     -40.670  53.962 -50.203  1.00  0.00     0.045 A 
ENDBRANCH   8  11
ENDBRANCH   5   7
BRANCH   3  16
HETATM   16  N   UNL     1     -43.971  57.615 -55.848  1.00  0.00    -0.259 NA
HETATM   17  C   UNL     1     -43.359  56.599 -56.364  1.00  0.00     0.146 C 
BRANCH  17  18
HETATM   18  C   UNL     1     -43.290  56.470 -57.794  1.00  0.00     0.049 A 
HETATM   19  N   UNL     1     -43.909  55.461 -58.496  1.00  0.00    -0.365 N 
HETATM   20  H   UNL     1     -44.459  54.733 -58.056  1.00  0.00     0.165 HD
HETATM   21  C   UNL     1     -43.664  55.603 -59.835  1.00  0.00     0.088 A 
HETATM   22  C   UNL     1     -42.869  56.714 -60.004  1.00  0.00     0.019 A 
HETATM   23  C   UNL     1     -42.633  57.262 -58.718  1.00  0.00     0.032 A 
ENDBRANCH  17  18
ENDBRANCH   3  16
TORSDOF 4
ENDMDL
MODEL 10
REMARK VINA RESULT:      -6.2      4.490      7.232
REMARK  4 active torsions:
REMARK  status: ('A' for Active; 'I' for Inactive)
REMARK    1  A    between atoms: C_3  and  N_4 
REMARK    2  A    between atoms: C_5  and  C_6 
REMARK    3  A    between atoms: C_13  and  N_14 
REMARK       I    between atoms: N_14  and  C_15 
REMARK    4  A    between atoms: C_15  and  C_16 
ROOT
HETATM    1  C   UNL     1     -41.600  54.141 -53.505  1.00  0.00     0.005 A 
HETATM    2  C   UNL     1     -42.075  55.047 -52.558  1.00  0.00     0.031 A 
HETATM    3  C   UNL     1     -43.024  56.007 -52.911  1.00  0.00     0.058 A 
HETATM    4  C   UNL     1     -43.511  56.037 -54.226  1.00  0.00     0.061 A 
HETATM    5  C   UNL     1     -43.033  55.144 -55.189  1.00  0.00     0.037 A 
HETATM    6  C   UNL     1     -42.078  54.192 -54.815  1.00  0.00     0.029 A 
ENDROOT
BRANCH   5   7
HETATM    7  N   UNL     1     -43.461  55.131 -56.530  1.00  0.00    -0.321 N 
HETATM    8  C   UNL     1     -43.158  56.032 -57.537  1.00  0.00     0.279 C 
HETATM    9  O   UNL     1     -42.416  57.002 -57.424  1.00  0.00    -0.265 OA
HETATM   10  H   UNL     1     -44.045  54.354 -56.822  1.00  0.00     0.169 HD
BRANCH   8  11
HETATM   11  C   UNL     1     -43.804  55.698 -58.795  1.00  0.00     0.142 A 
HETATM   12  O   UNL     1     -44.069  56.692 -59.704  1.00  0.00    -0.317 OA
HETATM   13  C   UNL     1     -44.661  56.105 -60.776  1.00  0.00     0.143 A 
HETATM   14  C   UNL     1     -44.790  54.751 -60.577  1.00  0.00     0.027 A 
HETATM   15  C   UNL     1     -44.237  54.487 -59.300  1.00  0.00     0.045 A 
ENDBRANCH   8  11
ENDBRANCH   5   7
BRANCH   3  16
HETATM   16  N   UNL     1     -43.506  56.872 -51.915  1.00  0.00    -0.259 NA
HETATM   17  C   UNL     1     -43.738  58.097 -52.262  1.00  0.00     0.146 C 
BRANCH  17  18
HETATM   18  C   UNL     1     -44.245  59.021 -51.285  1.00  0.00     0.049 A 
HETATM   19  N   UNL     1     -43.467  59.973 -50.667  1.00  0.00    -0.365 N 
HETATM   20  H   UNL     1     -42.479  60.093 -50.853  1.00  0.00     0.165 HD
HETATM   21  C   UNL     1     -44.226  60.702 -49.791  1.00  0.00     0.088 A 
HETATM   22  C   UNL     1     -45.512  60.211 -49.836  1.00  0.00     0.019 A 
HETATM   23  C   UNL     1     -45.525  59.152 -50.777  1.00  0.00     0.032 A 
ENDBRANCH  17  18
ENDBRANCH   3  16
TORSDOF 4
ENDMDL
