MODEL 1
REMARK VINA RESULT:      -9.0      0.000      0.000
REMARK  9 active torsions:
REMARK  status: ('A' for Active; 'I' for Inactive)
REMARK    1  A    between atoms: C_4  and  C_5 
REMARK    2  A    between atoms: C_5  and  N_6 
REMARK    3  A    between atoms: C_11  and  C_12 
REMARK       I    between atoms: C_12  and  N_13 
REMARK    4  A    between atoms: C_15  and  N_16 
REMARK       I    between atoms: N_16  and  C_17 
REMARK    5  A    between atoms: C_17  and  C_18 
REMARK    6  A    between atoms: C_18  and  C_19 
REMARK    7  A    between atoms: C_19  and  C_20 
REMARK    8  A    between atoms: C_20  and  S_21 
REMARK    9  A    between atoms: S_21  and  C_22 
ROOT
HETATM    1  N   UNL     1     -41.842  53.885 -54.345  1.00  0.00    -0.063 N 
HETATM    2  H   UNL     1     -42.250  53.019 -54.710  1.00  0.00     0.280 HD
HETATM    3  C   UNL     1     -42.670  54.241 -53.112  1.00  0.00     0.282 C 
HETATM    4  C   UNL     1     -42.487  55.671 -52.741  1.00  0.00     0.018 C 
HETATM    5  C   UNL     1     -41.921  56.642 -53.542  1.00  0.00    -0.023 C 
HETATM    6  C   UNL     1     -41.762  57.889 -52.829  1.00  0.00     0.073 C 
HETATM    7  C   UNL     1     -42.492  57.862 -51.648  1.00  0.00     0.093 C 
HETATM    8  S   UNL     1     -43.030  56.292 -51.263  1.00  0.00    -0.074 SA
HETATM    9  C   UNL     1     -41.480  56.333 -54.947  1.00  0.00     0.068 C 
HETATM   10  C   UNL     1     -42.001  54.957 -55.421  1.00  0.00     0.240 C 
ENDROOT
BRANCH   7  11
HETATM   11  N   UNL     1     -42.743  58.926 -50.795  1.00  0.00    -0.320 N 
HETATM   12  C   UNL     1     -43.681  59.930 -51.013  1.00  0.00     0.222 C 
HETATM   13  O   UNL     1     -44.412  60.046 -51.988  1.00  0.00    -0.273 OA
HETATM   14  H   UNL     1     -42.004  59.144 -50.136  1.00  0.00     0.169 HD
BRANCH  12  15
HETATM   15  C   UNL     1     -43.712  60.926 -49.862  1.00  0.00     0.104 C 
BRANCH  15  16
HETATM   16  C   UNL     1     -44.744  62.038 -50.046  1.00  0.00     0.020 C 
BRANCH  16  17
HETATM   17  C   UNL     1     -45.030  62.953 -48.850  1.00  0.00     0.080 C 
BRANCH  17  18
HETATM   18  S   UNL     1     -46.276  62.381 -47.640  1.00  0.00    -0.130 SA
BRANCH  18  19
HETATM   19  C   UNL     1     -45.461  62.593 -46.069  1.00  0.00     0.000 A 
HETATM   20  C   UNL     1     -45.428  63.802 -45.367  1.00  0.00     0.020 A 
HETATM   21  C   UNL     1     -44.752  63.894 -44.145  1.00  0.00     0.025 A 
HETATM   22  C   UNL     1     -44.127  62.770 -43.611  1.00  0.00     0.034 A 
HETATM   23 CL   UNL     1     -43.289  62.885 -42.114  1.00  0.00    -0.084 Cl
HETATM   24  C   UNL     1     -44.179  61.552 -44.282  1.00  0.00     0.025 A 
HETATM   25  C   UNL     1     -44.848  61.466 -45.505  1.00  0.00     0.020 A 
ENDBRANCH  18  19
ENDBRANCH  17  18
ENDBRANCH  16  17
ENDBRANCH  15  16
ENDBRANCH  12  15
ENDBRANCH   7  11
BRANCH   6  26
HETATM   26  C   UNL     1     -41.025  59.044 -53.335  1.00  0.00     0.252 C 
HETATM   27  N   UNL     1     -41.772  59.986 -53.991  1.00  0.00    -0.366 N 
HETATM   28  H   UNL     1     -42.761  60.071 -53.785  1.00  0.00     0.159 HD
HETATM   29  H   UNL     1     -41.286  60.858 -54.173  1.00  0.00     0.159 HD
HETATM   30  O   UNL     1     -39.834  59.222 -53.118  1.00  0.00    -0.268 OA
ENDBRANCH   6  26
BRANCH   1  31
HETATM   31  C   UNL     1     -40.386  53.581 -54.069  1.00  0.00     0.273 C 
BRANCH  31  32
HETATM   32  C   UNL     1     -40.089  52.206 -53.539  1.00  0.00    -0.033 A 
HETATM   33  C   UNL     1     -39.780  51.983 -52.190  1.00  0.00     0.009 A 
HETATM   34  C   UNL     1     -39.534  50.687 -51.730  1.00  0.00     0.001 A 
HETATM   35  C   UNL     1     -39.613  49.605 -52.604  1.00  0.00     0.000 A 
HETATM   36  C   UNL     1     -39.936  49.811 -53.941  1.00  0.00     0.001 A 
HETATM   37  C   UNL     1     -40.170  51.104 -54.408  1.00  0.00     0.009 A 
ENDBRANCH  31  32
ENDBRANCH   1  31
TORSDOF 9
ENDMDL
MODEL 2
REMARK VINA RESULT:      -8.6      6.036      8.469
REMARK  9 active torsions:
REMARK  status: ('A' for Active; 'I' for Inactive)
REMARK    1  A    between atoms: C_4  and  C_5 
REMARK    2  A    between atoms: C_5  and  N_6 
REMARK    3  A    between atoms: C_11  and  C_12 
REMARK       I    between atoms: C_12  and  N_13 
REMARK    4  A    between atoms: C_15  and  N_16 
REMARK       I    between atoms: N_16  and  C_17 
REMARK    5  A    between atoms: C_17  and  C_18 
REMARK    6  A    between atoms: C_18  and  C_19 
REMARK    7  A    between atoms: C_19  and  C_20 
REMARK    8  A    between atoms: C_20  and  S_21 
REMARK    9  A    between atoms: S_21  and  C_22 
ROOT
HETATM    1  N   UNL     1     -41.041  54.066 -51.084  1.00  0.00    -0.063 N 
HETATM    2  H   UNL     1     -40.787  53.598 -50.210  1.00  0.00     0.280 HD
HETATM    3  C   UNL     1     -41.009  55.562 -50.774  1.00  0.00     0.282 C 
HETATM    4  C   UNL     1     -41.767  56.336 -51.795  1.00  0.00     0.018 C 
HETATM    5  C   UNL     1     -42.646  55.803 -52.717  1.00  0.00    -0.023 C 
HETATM    6  C   UNL     1     -43.100  56.804 -53.654  1.00  0.00     0.073 C 
HETATM    7  C   UNL     1     -42.775  58.073 -53.193  1.00  0.00     0.093 C 
HETATM    8  S   UNL     1     -41.671  58.023 -51.897  1.00  0.00    -0.074 SA
HETATM    9  C   UNL     1     -42.974  54.334 -52.722  1.00  0.00     0.068 C 
HETATM   10  C   UNL     1     -42.459  53.628 -51.447  1.00  0.00     0.240 C 
ENDROOT
BRANCH   7  11
HETATM   11  N   UNL     1     -43.204  59.287 -53.711  1.00  0.00    -0.320 N 
HETATM   12  C   UNL     1     -42.524  60.045 -54.657  1.00  0.00     0.222 C 
HETATM   13  O   UNL     1     -41.442  59.778 -55.165  1.00  0.00    -0.273 OA
HETATM   14  H   UNL     1     -43.891  59.783 -53.154  1.00  0.00     0.169 HD
BRANCH  12  15
HETATM   15  C   UNL     1     -43.293  61.308 -55.021  1.00  0.00     0.104 C 
BRANCH  15  16
HETATM   16  C   UNL     1     -43.051  61.776 -56.455  1.00  0.00     0.020 C 
BRANCH  16  17
HETATM   17  C   UNL     1     -43.543  60.874 -57.594  1.00  0.00     0.080 C 
BRANCH  17  18
HETATM   18  S   UNL     1     -42.273  60.152 -58.695  1.00  0.00    -0.130 SA
BRANCH  18  19
HETATM   19  C   UNL     1     -42.894  58.516 -59.032  1.00  0.00     0.000 A 
HETATM   20  C   UNL     1     -42.098  57.462 -59.492  1.00  0.00     0.020 A 
HETATM   21  C   UNL     1     -42.663  56.209 -59.752  1.00  0.00     0.025 A 
HETATM   22  C   UNL     1     -44.023  56.000 -59.530  1.00  0.00     0.034 A 
HETATM   23 CL   UNL     1     -44.718  54.462 -59.857  1.00  0.00    -0.084 Cl
HETATM   24  C   UNL     1     -44.820  57.030 -59.042  1.00  0.00     0.025 A 
HETATM   25  C   UNL     1     -44.254  58.283 -58.791  1.00  0.00     0.020 A 
ENDBRANCH  18  19
ENDBRANCH  17  18
ENDBRANCH  16  17
ENDBRANCH  15  16
ENDBRANCH  12  15
ENDBRANCH   7  11
BRANCH   6  26
HETATM   26  C   UNL     1     -43.880  56.521 -54.855  1.00  0.00     0.252 C 
HETATM   27  N   UNL     1     -45.240  56.495 -54.690  1.00  0.00    -0.366 N 
HETATM   28  H   UNL     1     -45.660  57.016 -53.929  1.00  0.00     0.159 HD
HETATM   29  H   UNL     1     -45.770  56.480 -55.556  1.00  0.00     0.159 HD
HETATM   30  O   UNL     1     -43.377  56.401 -55.964  1.00  0.00    -0.268 OA
ENDBRANCH   6  26
BRANCH   1  31
HETATM   31  C   UNL     1     -40.033  53.608 -52.115  1.00  0.00     0.273 C 
BRANCH  31  32
HETATM   32  C   UNL     1     -39.912  52.121 -52.303  1.00  0.00    -0.033 A 
HETATM   33  C   UNL     1     -39.949  51.529 -53.573  1.00  0.00     0.009 A 
HETATM   34  C   UNL     1     -39.808  50.147 -53.709  1.00  0.00     0.001 A 
HETATM   35  C   UNL     1     -39.610  49.347 -52.585  1.00  0.00     0.000 A 
HETATM   36  C   UNL     1     -39.554  49.924 -51.321  1.00  0.00     0.001 A 
HETATM   37  C   UNL     1     -39.706  51.303 -51.179  1.00  0.00     0.009 A 
ENDBRANCH  31  32
ENDBRANCH   1  31
TORSDOF 9
ENDMDL
MODEL 3
REMARK VINA RESULT:      -8.4      5.898      9.931
REMARK  9 active torsions:
REMARK  status: ('A' for Active; 'I' for Inactive)
REMARK    1  A    between atoms: C_4  and  C_5 
REMARK    2  A    between atoms: C_5  and  N_6 
REMARK    3  A    between atoms: C_11  and  C_12 
REMARK       I    between atoms: C_12  and  N_13 
REMARK    4  A    between atoms: C_15  and  N_16 
REMARK       I    between atoms: N_16  and  C_17 
REMARK    5  A    between atoms: C_17  and  C_18 
REMARK    6  A    between atoms: C_18  and  C_19 
REMARK    7  A    between atoms: C_19  and  C_20 
REMARK    8  A    between atoms: C_20  and  S_21 
REMARK    9  A    between atoms: S_21  and  C_22 
ROOT
HETATM    1  N   UNL     1     -43.993  57.688 -59.142  1.00  0.00    -0.063 N 
HETATM    2  H   UNL     1     -43.916  58.095 -60.079  1.00  0.00     0.280 HD
HETATM    3  C   UNL     1     -43.102  58.546 -58.246  1.00  0.00     0.282 C 
HETATM    4  C   UNL     1     -42.770  57.833 -56.983  1.00  0.00     0.018 C 
HETATM    5  C   UNL     1     -42.949  56.484 -56.752  1.00  0.00    -0.023 C 
HETATM    6  C   UNL     1     -42.662  56.140 -55.378  1.00  0.00     0.073 C 
HETATM    7  C   UNL     1     -41.998  57.186 -54.752  1.00  0.00     0.093 C 
HETATM    8  S   UNL     1     -42.054  58.621 -55.667  1.00  0.00    -0.074 SA
HETATM    9  C   UNL     1     -43.460  55.569 -57.833  1.00  0.00     0.068 C 
HETATM   10  C   UNL     1     -43.456  56.260 -59.215  1.00  0.00     0.240 C 
ENDROOT
BRANCH   7  11
HETATM   11  N   UNL     1     -41.393  57.166 -53.504  1.00  0.00    -0.320 N 
HETATM   12  C   UNL     1     -42.059  57.193 -52.284  1.00  0.00     0.222 C 
HETATM   13  O   UNL     1     -43.270  57.258 -52.116  1.00  0.00    -0.273 OA
HETATM   14  H   UNL     1     -40.418  57.446 -53.485  1.00  0.00     0.169 HD
BRANCH  12  15
HETATM   15  C   UNL     1     -41.087  57.131 -51.114  1.00  0.00     0.104 C 
BRANCH  15  16
HETATM   16  C   UNL     1     -41.539  56.193 -49.995  1.00  0.00     0.020 C 
BRANCH  16  17
HETATM   17  C   UNL     1     -41.759  54.717 -50.346  1.00  0.00     0.080 C 
BRANCH  17  18
HETATM   18  S   UNL     1     -40.539  53.515 -49.705  1.00  0.00    -0.130 SA
BRANCH  18  19
HETATM   19  C   UNL     1     -40.197  52.476 -51.112  1.00  0.00     0.000 A 
HETATM   20  C   UNL     1     -40.216  52.927 -52.435  1.00  0.00     0.020 A 
HETATM   21  C   UNL     1     -39.952  52.045 -53.489  1.00  0.00     0.025 A 
HETATM   22  C   UNL     1     -39.647  50.712 -53.219  1.00  0.00     0.034 A 
HETATM   23 CL   UNL     1     -39.333  49.626 -54.515  1.00  0.00    -0.084 Cl
HETATM   24  C   UNL     1     -39.593  50.256 -51.906  1.00  0.00     0.025 A 
HETATM   25  C   UNL     1     -39.864  51.138 -50.857  1.00  0.00     0.020 A 
ENDBRANCH  18  19
ENDBRANCH  17  18
ENDBRANCH  16  17
ENDBRANCH  15  16
ENDBRANCH  12  15
ENDBRANCH   7  11
BRANCH   6  26
HETATM   26  C   UNL     1     -42.938  54.839 -54.775  1.00  0.00     0.252 C 
HETATM   27  N   UNL     1     -44.062  54.770 -53.995  1.00  0.00    -0.366 N 
HETATM   28  H   UNL     1     -44.821  55.421 -54.156  1.00  0.00     0.159 HD
HETATM   29  H   UNL     1     -44.338  53.828 -53.736  1.00  0.00     0.159 HD
HETATM   30  O   UNL     1     -42.273  53.839 -55.013  1.00  0.00    -0.268 OA
ENDBRANCH   6  26
BRANCH   1  31
HETATM   31  C   UNL     1     -45.465  57.715 -58.792  1.00  0.00     0.273 C 
BRANCH  31  32
HETATM   32  C   UNL     1     -46.419  57.702 -59.954  1.00  0.00    -0.033 A 
HETATM   33  C   UNL     1     -46.897  56.505 -60.507  1.00  0.00     0.009 A 
HETATM   34  C   UNL     1     -47.803  56.534 -61.569  1.00  0.00     0.001 A 
HETATM   35  C   UNL     1     -48.253  57.752 -62.075  1.00  0.00     0.000 A 
HETATM   36  C   UNL     1     -47.799  58.946 -61.524  1.00  0.00     0.001 A 
HETATM   37  C   UNL     1     -46.886  58.922 -60.470  1.00  0.00     0.009 A 
ENDBRANCH  31  32
ENDBRANCH   1  31
TORSDOF 9
ENDMDL
MODEL 4
REMARK VINA RESULT:      -8.3      6.355      8.837
REMARK  9 active torsions:
REMARK  status: ('A' for Active; 'I' for Inactive)
REMARK    1  A    between atoms: C_4  and  C_5 
REMARK    2  A    between atoms: C_5  and  N_6 
REMARK    3  A    between atoms: C_11  and  C_12 
REMARK       I    between atoms: C_12  and  N_13 
REMARK    4  A    between atoms: C_15  and  N_16 
REMARK       I    between atoms: N_16  and  C_17 
REMARK    5  A    between atoms: C_17  and  C_18 
REMARK    6  A    between atoms: C_18  and  C_19 
REMARK    7  A    between atoms: C_19  and  C_20 
REMARK    8  A    between atoms: C_20  and  S_21 
REMARK    9  A    between atoms: S_21  and  C_22 
ROOT
HETATM    1  N   UNL     1     -41.475  54.395 -52.167  1.00  0.00    -0.063 N 
HETATM    2  H   UNL     1     -41.334  53.917 -51.272  1.00  0.00     0.280 HD
HETATM    3  C   UNL     1     -41.424  55.888 -51.847  1.00  0.00     0.282 C 
HETATM    4  C   UNL     1     -42.038  56.690 -52.940  1.00  0.00     0.018 C 
HETATM    5  C   UNL     1     -42.831  56.190 -53.954  1.00  0.00    -0.023 C 
HETATM    6  C   UNL     1     -43.145  57.208 -54.930  1.00  0.00     0.073 C 
HETATM    7  C   UNL     1     -42.827  58.464 -54.431  1.00  0.00     0.093 C 
HETATM    8  S   UNL     1     -41.872  58.372 -53.024  1.00  0.00    -0.074 SA
HETATM    9  C   UNL     1     -43.209  54.735 -54.002  1.00  0.00     0.068 C 
HETATM   10  C   UNL     1     -42.860  54.009 -52.682  1.00  0.00     0.240 C 
ENDROOT
BRANCH   7  11
HETATM   11  N   UNL     1     -43.153  59.693 -54.986  1.00  0.00    -0.320 N 
HETATM   12  C   UNL     1     -42.462  60.321 -56.016  1.00  0.00     0.222 C 
HETATM   13  O   UNL     1     -41.457  59.907 -56.579  1.00  0.00    -0.273 OA
HETATM   14  H   UNL     1     -43.738  60.291 -54.413  1.00  0.00     0.169 HD
BRANCH  12  15
HETATM   15  C   UNL     1     -43.109  61.646 -56.398  1.00  0.00     0.104 C 
BRANCH  15  16
HETATM   16  C   UNL     1     -42.488  62.293 -57.635  1.00  0.00     0.020 C 
BRANCH  16  17
HETATM   17  C   UNL     1     -43.057  61.908 -59.005  1.00  0.00     0.080 C 
BRANCH  17  18
HETATM   18  S   UNL     1     -41.959  60.975 -60.133  1.00  0.00    -0.130 SA
BRANCH  18  19
HETATM   19  C   UNL     1     -42.681  59.346 -60.166  1.00  0.00     0.000 A 
HETATM   20  C   UNL     1     -44.054  59.106 -60.274  1.00  0.00     0.020 A 
HETATM   21  C   UNL     1     -44.546  57.795 -60.276  1.00  0.00     0.025 A 
HETATM   22  C   UNL     1     -43.662  56.721 -60.192  1.00  0.00     0.034 A 
HETATM   23 CL   UNL     1     -44.268  55.112 -60.186  1.00  0.00    -0.084 Cl
HETATM   24  C   UNL     1     -42.291  56.944 -60.117  1.00  0.00     0.025 A 
HETATM   25  C   UNL     1     -41.804  58.254 -60.107  1.00  0.00     0.020 A 
ENDBRANCH  18  19
ENDBRANCH  17  18
ENDBRANCH  16  17
ENDBRANCH  15  16
ENDBRANCH  12  15
ENDBRANCH   7  11
BRANCH   6  26
HETATM   26  C   UNL     1     -43.801  56.954 -56.210  1.00  0.00     0.252 C 
HETATM   27  N   UNL     1     -43.435  55.798 -56.847  1.00  0.00    -0.366 N 
HETATM   28  H   UNL     1     -43.073  55.023 -56.305  1.00  0.00     0.159 HD
HETATM   29  H   UNL     1     -44.025  55.546 -57.634  1.00  0.00     0.159 HD
HETATM   30  O   UNL     1     -44.688  57.668 -56.658  1.00  0.00    -0.268 OA
ENDBRANCH   6  26
BRANCH   1  31
HETATM   31  C   UNL     1     -40.379  53.902 -53.085  1.00  0.00     0.273 C 
BRANCH  31  32
HETATM   32  C   UNL     1     -40.112  52.423 -53.057  1.00  0.00    -0.033 A 
HETATM   33  C   UNL     1     -39.721  51.762 -51.884  1.00  0.00     0.009 A 
HETATM   34  C   UNL     1     -39.507  50.382 -51.892  1.00  0.00     0.001 A 
HETATM   35  C   UNL     1     -39.698  49.648 -53.061  1.00  0.00     0.000 A 
HETATM   36  C   UNL     1     -40.102  50.290 -54.227  1.00  0.00     0.001 A 
HETATM   37  C   UNL     1     -40.306  51.669 -54.227  1.00  0.00     0.009 A 
ENDBRANCH  31  32
ENDBRANCH   1  31
TORSDOF 9
ENDMDL
MODEL 5
REMARK VINA RESULT:      -8.3      1.539      1.971
REMARK  9 active torsions:
REMARK  status: ('A' for Active; 'I' for Inactive)
REMARK    1  A    between atoms: C_4  and  C_5 
REMARK    2  A    between atoms: C_5  and  N_6 
REMARK    3  A    between atoms: C_11  and  C_12 
REMARK       I    between atoms: C_12  and  N_13 
REMARK    4  A    between atoms: C_15  and  N_16 
REMARK       I    between atoms: N_16  and  C_17 
REMARK    5  A    between atoms: C_17  and  C_18 
REMARK    6  A    between atoms: C_18  and  C_19 
REMARK    7  A    between atoms: C_19  and  C_20 
REMARK    8  A    between atoms: C_20  and  S_21 
REMARK    9  A    between atoms: S_21  and  C_22 
ROOT
HETATM    1  N   UNL     1     -41.817  53.789 -54.044  1.00  0.00    -0.063 N 
HETATM    2  H   UNL     1     -42.228  52.908 -54.367  1.00  0.00     0.280 HD
HETATM    3  C   UNL     1     -42.647  54.211 -52.834  1.00  0.00     0.282 C 
HETATM    4  C   UNL     1     -42.458  55.657 -52.534  1.00  0.00     0.018 C 
HETATM    5  C   UNL     1     -41.884  56.583 -53.381  1.00  0.00    -0.023 C 
HETATM    6  C   UNL     1     -41.720  57.864 -52.731  1.00  0.00     0.073 C 
HETATM    7  C   UNL     1     -42.455  57.899 -51.553  1.00  0.00     0.093 C 
HETATM    8  S   UNL     1     -43.003  56.354 -51.091  1.00  0.00    -0.074 SA
HETATM    9  C   UNL     1     -41.440  56.202 -54.767  1.00  0.00     0.068 C 
HETATM   10  C   UNL     1     -41.966  54.807 -55.173  1.00  0.00     0.240 C 
ENDROOT
BRANCH   7  11
HETATM   11  N   UNL     1     -42.704  59.006 -50.755  1.00  0.00    -0.320 N 
HETATM   12  C   UNL     1     -43.587  60.036 -51.058  1.00  0.00     0.222 C 
HETATM   13  O   UNL     1     -44.265  60.141 -52.073  1.00  0.00    -0.273 OA
HETATM   14  H   UNL     1     -41.989  59.221 -50.068  1.00  0.00     0.169 HD
BRANCH  12  15
HETATM   15  C   UNL     1     -43.634  61.078 -49.949  1.00  0.00     0.104 C 
BRANCH  15  16
HETATM   16  C   UNL     1     -44.856  61.993 -50.024  1.00  0.00     0.020 C 
BRANCH  16  17
HETATM   17  C   UNL     1     -44.674  63.377 -50.658  1.00  0.00     0.080 C 
BRANCH  17  18
HETATM   18  S   UNL     1     -44.274  64.764 -49.534  1.00  0.00    -0.130 SA
BRANCH  18  19
HETATM   19  C   UNL     1     -45.310  64.465 -48.115  1.00  0.00     0.000 A 
HETATM   20  C   UNL     1     -44.820  64.101 -46.857  1.00  0.00     0.020 A 
HETATM   21  C   UNL     1     -45.700  63.867 -45.795  1.00  0.00     0.025 A 
HETATM   22  C   UNL     1     -47.073  64.018 -45.983  1.00  0.00     0.034 A 
HETATM   23 CL   UNL     1     -48.155  63.722 -44.679  1.00  0.00    -0.084 Cl
HETATM   24  C   UNL     1     -47.572  64.411 -47.220  1.00  0.00     0.025 A 
HETATM   25  C   UNL     1     -46.691  64.637 -48.281  1.00  0.00     0.020 A 
ENDBRANCH  18  19
ENDBRANCH  17  18
ENDBRANCH  16  17
ENDBRANCH  15  16
ENDBRANCH  12  15
ENDBRANCH   7  11
BRANCH   6  26
HETATM   26  C   UNL     1     -40.976  58.988 -53.291  1.00  0.00     0.252 C 
HETATM   27  N   UNL     1     -41.722  59.923 -53.958  1.00  0.00    -0.366 N 
HETATM   28  H   UNL     1     -42.703  60.033 -53.730  1.00  0.00     0.159 HD
HETATM   29  H   UNL     1     -41.225  60.780 -54.179  1.00  0.00     0.159 HD
HETATM   30  O   UNL     1     -39.777  59.150 -53.109  1.00  0.00    -0.268 OA
ENDBRANCH   6  26
BRANCH   1  31
HETATM   31  C   UNL     1     -40.363  53.491 -53.748  1.00  0.00     0.273 C 
BRANCH  31  32
HETATM   32  C   UNL     1     -40.050  52.080 -53.336  1.00  0.00    -0.033 A 
HETATM   33  C   UNL     1     -39.749  51.745 -52.009  1.00  0.00     0.009 A 
HETATM   34  C   UNL     1     -39.488  50.418 -51.660  1.00  0.00     0.001 A 
HETATM   35  C   UNL     1     -39.543  49.414 -52.626  1.00  0.00     0.000 A 
HETATM   36  C   UNL     1     -39.857  49.732 -53.943  1.00  0.00     0.001 A 
HETATM   37  C   UNL     1     -40.107  51.057 -54.298  1.00  0.00     0.009 A 
ENDBRANCH  31  32
ENDBRANCH   1  31
TORSDOF 9
ENDMDL
MODEL 6
REMARK VINA RESULT:      -8.2      3.846      5.537
REMARK  9 active torsions:
REMARK  status: ('A' for Active; 'I' for Inactive)
REMARK    1  A    between atoms: C_4  and  C_5 
REMARK    2  A    between atoms: C_5  and  N_6 
REMARK    3  A    between atoms: C_11  and  C_12 
REMARK       I    between atoms: C_12  and  N_13 
REMARK    4  A    between atoms: C_15  and  N_16 
REMARK       I    between atoms: N_16  and  C_17 
REMARK    5  A    between atoms: C_17  and  C_18 
REMARK    6  A    between atoms: C_18  and  C_19 
REMARK    7  A    between atoms: C_19  and  C_20 
REMARK    8  A    between atoms: C_20  and  S_21 
REMARK    9  A    between atoms: S_21  and  C_22 
ROOT
HETATM    1  N   UNL     1     -41.854  54.212 -53.725  1.00  0.00    -0.063 N 
HETATM    2  H   UNL     1     -42.119  53.388 -54.272  1.00  0.00     0.280 HD
HETATM    3  C   UNL     1     -43.112  54.620 -52.962  1.00  0.00     0.282 C 
HETATM    4  C   UNL     1     -43.013  56.025 -52.479  1.00  0.00     0.018 C 
HETATM    5  C   UNL     1     -42.087  56.956 -52.905  1.00  0.00    -0.023 C 
HETATM    6  C   UNL     1     -42.171  58.176 -52.136  1.00  0.00     0.073 C 
HETATM    7  C   UNL     1     -43.345  58.194 -51.395  1.00  0.00     0.093 C 
HETATM    8  S   UNL     1     -44.105  56.670 -51.358  1.00  0.00    -0.074 SA
HETATM    9  C   UNL     1     -41.097  56.629 -53.991  1.00  0.00     0.068 C 
HETATM   10  C   UNL     1     -41.451  55.308 -54.710  1.00  0.00     0.240 C 
ENDROOT
BRANCH   7  11
HETATM   11  N   UNL     1     -43.871  59.265 -50.687  1.00  0.00    -0.320 N 
HETATM   12  C   UNL     1     -45.203  59.408 -50.313  1.00  0.00     0.222 C 
HETATM   13  O   UNL     1     -46.117  58.633 -50.562  1.00  0.00    -0.273 OA
HETATM   14  H   UNL     1     -43.321  60.117 -50.707  1.00  0.00     0.169 HD
BRANCH  12  15
HETATM   15  C   UNL     1     -45.428  60.691 -49.524  1.00  0.00     0.104 C 
BRANCH  15  16
HETATM   16  C   UNL     1     -46.218  61.749 -50.294  1.00  0.00     0.020 C 
BRANCH  16  17
HETATM   17  C   UNL     1     -46.375  61.562 -51.807  1.00  0.00     0.080 C 
BRANCH  17  18
HETATM   18  S   UNL     1     -45.024  62.186 -52.871  1.00  0.00    -0.130 SA
BRANCH  18  19
HETATM   19  C   UNL     1     -44.668  60.809 -53.945  1.00  0.00     0.000 A 
HETATM   20  C   UNL     1     -45.365  59.598 -53.914  1.00  0.00     0.020 A 
HETATM   21  C   UNL     1     -45.014  58.556 -54.780  1.00  0.00     0.025 A 
HETATM   22  C   UNL     1     -43.979  58.732 -55.695  1.00  0.00     0.034 A 
HETATM   23 CL   UNL     1     -43.543  57.448 -56.753  1.00  0.00    -0.084 Cl
HETATM   24  C   UNL     1     -43.298  59.943 -55.760  1.00  0.00     0.025 A 
HETATM   25  C   UNL     1     -43.645  60.979 -54.889  1.00  0.00     0.020 A 
ENDBRANCH  18  19
ENDBRANCH  17  18
ENDBRANCH  16  17
ENDBRANCH  15  16
ENDBRANCH  12  15
ENDBRANCH   7  11
BRANCH   6  26
HETATM   26  C   UNL     1     -41.209  59.272 -52.213  1.00  0.00     0.252 C 
HETATM   27  N   UNL     1     -40.534  59.555 -51.056  1.00  0.00    -0.366 N 
HETATM   28  H   UNL     1     -40.415  58.830 -50.358  1.00  0.00     0.159 HD
HETATM   29  H   UNL     1     -39.748  60.187 -51.170  1.00  0.00     0.159 HD
HETATM   30  O   UNL     1     -40.942  59.852 -53.257  1.00  0.00    -0.268 OA
ENDBRANCH   6  26
BRANCH   1  31
HETATM   31  C   UNL     1     -40.692  53.784 -52.856  1.00  0.00     0.273 C 
BRANCH  31  32
HETATM   32  C   UNL     1     -40.282  52.342 -52.967  1.00  0.00    -0.033 A 
HETATM   33  C   UNL     1     -39.778  51.629 -51.870  1.00  0.00     0.009 A 
HETATM   34  C   UNL     1     -39.432  50.283 -52.005  1.00  0.00     0.001 A 
HETATM   35  C   UNL     1     -39.603  49.633 -53.227  1.00  0.00     0.000 A 
HETATM   36  C   UNL     1     -40.118  50.326 -54.318  1.00  0.00     0.001 A 
HETATM   37  C   UNL     1     -40.454  51.673 -54.190  1.00  0.00     0.009 A 
ENDBRANCH  31  32
ENDBRANCH   1  31
TORSDOF 9
ENDMDL
MODEL 7
REMARK VINA RESULT:      -8.1      2.323      2.807
REMARK  9 active torsions:
REMARK  status: ('A' for Active; 'I' for Inactive)
REMARK    1  A    between atoms: C_4  and  C_5 
REMARK    2  A    between atoms: C_5  and  N_6 
REMARK    3  A    between atoms: C_11  and  C_12 
REMARK       I    between atoms: C_12  and  N_13 
REMARK    4  A    between atoms: C_15  and  N_16 
REMARK       I    between atoms: N_16  and  C_17 
REMARK    5  A    between atoms: C_17  and  C_18 
REMARK    6  A    between atoms: C_18  and  C_19 
REMARK    7  A    between atoms: C_19  and  C_20 
REMARK    8  A    between atoms: C_20  and  S_21 
REMARK    9  A    between atoms: S_21  and  C_22 
ROOT
HETATM    1  N   UNL     1     -41.366  54.094 -51.334  1.00  0.00    -0.063 N 
HETATM    2  H   UNL     1     -41.207  53.309 -50.696  1.00  0.00     0.280 HD
HETATM    3  C   UNL     1     -40.943  55.342 -50.562  1.00  0.00     0.282 C 
HETATM    4  C   UNL     1     -41.517  56.571 -51.177  1.00  0.00     0.018 C 
HETATM    5  C   UNL     1     -42.537  56.601 -52.106  1.00  0.00    -0.023 C 
HETATM    6  C   UNL     1     -42.757  57.939 -52.606  1.00  0.00     0.073 C 
HETATM    7  C   UNL     1     -42.102  58.863 -51.803  1.00  0.00     0.093 C 
HETATM    8  S   UNL     1     -40.999  58.121 -50.738  1.00  0.00    -0.074 SA
HETATM    9  C   UNL     1     -43.228  55.339 -52.547  1.00  0.00     0.068 C 
HETATM   10  C   UNL     1     -42.861  54.141 -51.642  1.00  0.00     0.240 C 
ENDROOT
BRANCH   7  11
HETATM   11  N   UNL     1     -42.227  60.244 -51.843  1.00  0.00    -0.320 N 
HETATM   12  C   UNL     1     -43.321  60.969 -51.384  1.00  0.00     0.222 C 
HETATM   13  O   UNL     1     -44.345  60.510 -50.893  1.00  0.00    -0.273 OA
HETATM   14  H   UNL     1     -41.627  60.719 -52.509  1.00  0.00     0.169 HD
BRANCH  12  15
HETATM   15  C   UNL     1     -43.114  62.467 -51.559  1.00  0.00     0.104 C 
BRANCH  15  16
HETATM   16  C   UNL     1     -43.010  63.226 -50.237  1.00  0.00     0.020 C 
BRANCH  16  17
HETATM   17  C   UNL     1     -44.196  64.104 -49.821  1.00  0.00     0.080 C 
BRANCH  17  18
HETATM   18  S   UNL     1     -44.381  64.470 -48.039  1.00  0.00    -0.130 SA
BRANCH  18  19
HETATM   19  C   UNL     1     -45.218  63.031 -47.402  1.00  0.00     0.000 A 
HETATM   20  C   UNL     1     -44.819  61.718 -47.667  1.00  0.00     0.020 A 
HETATM   21  C   UNL     1     -45.540  60.638 -47.143  1.00  0.00     0.025 A 
HETATM   22  C   UNL     1     -46.650  60.872 -46.334  1.00  0.00     0.034 A 
HETATM   23 CL   UNL     1     -47.540  59.545 -45.698  1.00  0.00    -0.084 Cl
HETATM   24  C   UNL     1     -47.040  62.173 -46.035  1.00  0.00     0.025 A 
HETATM   25  C   UNL     1     -46.322  63.248 -46.566  1.00  0.00     0.020 A 
ENDBRANCH  18  19
ENDBRANCH  17  18
ENDBRANCH  16  17
ENDBRANCH  15  16
ENDBRANCH  12  15
ENDBRANCH   7  11
BRANCH   6  26
HETATM   26  C   UNL     1     -43.629  58.270 -53.730  1.00  0.00     0.252 C 
HETATM   27  N   UNL     1     -44.934  58.539 -53.411  1.00  0.00    -0.366 N 
HETATM   28  H   UNL     1     -45.162  58.871 -52.482  1.00  0.00     0.159 HD
HETATM   29  H   UNL     1     -45.478  58.942 -54.168  1.00  0.00     0.159 HD
HETATM   30  O   UNL     1     -43.220  58.396 -54.876  1.00  0.00    -0.268 OA
ENDBRANCH   6  26
BRANCH   1  31
HETATM   31  C   UNL     1     -40.548  53.802 -52.572  1.00  0.00     0.273 C 
BRANCH  31  32
HETATM   32  C   UNL     1     -40.239  52.354 -52.833  1.00  0.00    -0.033 A 
HETATM   33  C   UNL     1     -40.360  51.789 -54.110  1.00  0.00     0.009 A 
HETATM   34  C   UNL     1     -40.039  50.446 -54.318  1.00  0.00     0.001 A 
HETATM   35  C   UNL     1     -39.580  49.662 -53.261  1.00  0.00     0.000 A 
HETATM   36  C   UNL     1     -39.441  50.215 -51.993  1.00  0.00     0.001 A 
HETATM   37  C   UNL     1     -39.770  51.553 -51.778  1.00  0.00     0.009 A 
ENDBRANCH  31  32
ENDBRANCH   1  31
TORSDOF 9
ENDMDL
MODEL 8
REMARK VINA RESULT:      -8.0      6.187      9.481
REMARK  9 active torsions:
REMARK  status: ('A' for Active; 'I' for Inactive)
REMARK    1  A    between atoms: C_4  and  C_5 
REMARK    2  A    between atoms: C_5  and  N_6 
REMARK    3  A    between atoms: C_11  and  C_12 
REMARK       I    between atoms: C_12  and  N_13 
REMARK    4  A    between atoms: C_15  and  N_16 
REMARK       I    between atoms: N_16  and  C_17 
REMARK    5  A    between atoms: C_17  and  C_18 
REMARK    6  A    between atoms: C_18  and  C_19 
REMARK    7  A    between atoms: C_19  and  C_20 
REMARK    8  A    between atoms: C_20  and  S_21 
REMARK    9  A    between atoms: S_21  and  C_22 
ROOT
HETATM    1  N   UNL     1     -44.213  59.886 -57.604  1.00  0.00    -0.063 N 
HETATM    2  H   UNL     1     -44.777  60.589 -58.090  1.00  0.00     0.280 HD
HETATM    3  C   UNL     1     -45.185  59.134 -56.697  1.00  0.00     0.282 C 
HETATM    4  C   UNL     1     -44.458  58.398 -55.627  1.00  0.00     0.018 C 
HETATM    5  C   UNL     1     -43.138  58.593 -55.274  1.00  0.00    -0.023 C 
HETATM    6  C   UNL     1     -42.702  57.619 -54.300  1.00  0.00     0.073 C 
HETATM    7  C   UNL     1     -43.797  56.956 -53.763  1.00  0.00     0.093 C 
HETATM    8  S   UNL     1     -45.221  57.243 -54.654  1.00  0.00    -0.074 SA
HETATM    9  C   UNL     1     -42.305  59.661 -55.931  1.00  0.00     0.068 C 
HETATM   10  C   UNL     1     -43.172  60.629 -56.768  1.00  0.00     0.240 C 
ENDROOT
BRANCH   7  11
HETATM   11  N   UNL     1     -43.804  56.096 -52.675  1.00  0.00    -0.320 N 
HETATM   12  C   UNL     1     -43.369  54.775 -52.688  1.00  0.00     0.222 C 
HETATM   13  O   UNL     1     -42.933  54.161 -53.654  1.00  0.00    -0.273 OA
HETATM   14  H   UNL     1     -44.431  56.349 -51.919  1.00  0.00     0.169 HD
BRANCH  12  15
HETATM   15  C   UNL     1     -43.493  54.131 -51.315  1.00  0.00     0.104 C 
BRANCH  15  16
HETATM   16  C   UNL     1     -42.668  54.832 -50.236  1.00  0.00     0.020 C 
BRANCH  16  17
HETATM   17  C   UNL     1     -41.140  54.748 -50.337  1.00  0.00     0.080 C 
BRANCH  17  18
HETATM   18  S   UNL     1     -40.336  53.274 -49.613  1.00  0.00    -0.130 SA
BRANCH  18  19
HETATM   19  C   UNL     1     -40.107  52.193 -51.012  1.00  0.00     0.000 A 
HETATM   20  C   UNL     1     -39.839  50.825 -50.902  1.00  0.00     0.020 A 
HETATM   21  C   UNL     1     -39.654  50.045 -52.049  1.00  0.00     0.025 A 
HETATM   22  C   UNL     1     -39.760  50.628 -53.310  1.00  0.00     0.034 A 
HETATM   23 CL   UNL     1     -39.524  49.670 -54.719  1.00  0.00    -0.084 Cl
HETATM   24  C   UNL     1     -40.058  51.981 -53.435  1.00  0.00     0.025 A 
HETATM   25  C   UNL     1     -40.234  52.758 -52.288  1.00  0.00     0.020 A 
ENDBRANCH  18  19
ENDBRANCH  17  18
ENDBRANCH  16  17
ENDBRANCH  15  16
ENDBRANCH  12  15
ENDBRANCH   7  11
BRANCH   6  26
HETATM   26  C   UNL     1     -41.318  57.440 -53.870  1.00  0.00     0.252 C 
HETATM   27  N   UNL     1     -40.693  56.312 -54.332  1.00  0.00    -0.366 N 
HETATM   28  H   UNL     1     -41.013  55.880 -55.191  1.00  0.00     0.159 HD
HETATM   29  H   UNL     1     -39.689  56.293 -54.179  1.00  0.00     0.159 HD
HETATM   30  O   UNL     1     -40.709  58.276 -53.217  1.00  0.00    -0.268 OA
ENDBRANCH   6  26
BRANCH   1  31
HETATM   31  C   UNL     1     -43.566  59.045 -58.683  1.00  0.00     0.273 C 
BRANCH  31  32
HETATM   32  C   UNL     1     -44.412  57.940 -59.252  1.00  0.00    -0.033 A 
HETATM   33  C   UNL     1     -44.035  56.594 -59.154  1.00  0.00     0.009 A 
HETATM   34  C   UNL     1     -44.860  55.593 -59.673  1.00  0.00     0.001 A 
HETATM   35  C   UNL     1     -46.072  55.924 -60.275  1.00  0.00     0.000 A 
HETATM   36  C   UNL     1     -46.465  57.256 -60.364  1.00  0.00     0.001 A 
HETATM   37  C   UNL     1     -45.639  58.259 -59.857  1.00  0.00     0.009 A 
ENDBRANCH  31  32
ENDBRANCH   1  31
TORSDOF 9
ENDMDL
MODEL 9
REMARK VINA RESULT:      -8.0      6.281      8.650
REMARK  9 active torsions:
REMARK  status: ('A' for Active; 'I' for Inactive)
REMARK    1  A    between atoms: C_4  and  C_5 
REMARK    2  A    between atoms: C_5  and  N_6 
REMARK    3  A    between atoms: C_11  and  C_12 
REMARK       I    between atoms: C_12  and  N_13 
REMARK    4  A    between atoms: C_15  and  N_16 
REMARK       I    between atoms: N_16  and  C_17 
REMARK    5  A    between atoms: C_17  and  C_18 
REMARK    6  A    between atoms: C_18  and  C_19 
REMARK    7  A    between atoms: C_19  and  C_20 
REMARK    8  A    between atoms: C_20  and  S_21 
REMARK    9  A    between atoms: S_21  and  C_22 
ROOT
HETATM    1  N   UNL     1     -41.627  54.365 -52.176  1.00  0.00    -0.063 N 
HETATM    2  H   UNL     1     -41.640  53.841 -51.297  1.00  0.00     0.280 HD
HETATM    3  C   UNL     1     -41.648  55.839 -51.775  1.00  0.00     0.282 C 
HETATM    4  C   UNL     1     -42.069  56.697 -52.916  1.00  0.00     0.018 C 
HETATM    5  C   UNL     1     -42.666  56.251 -54.078  1.00  0.00    -0.023 C 
HETATM    6  C   UNL     1     -42.815  57.320 -55.040  1.00  0.00     0.073 C 
HETATM    7  C   UNL     1     -42.601  58.547 -54.427  1.00  0.00     0.093 C 
HETATM    8  S   UNL     1     -41.907  58.382 -52.881  1.00  0.00    -0.074 SA
HETATM    9  C   UNL     1     -43.015  54.800 -54.267  1.00  0.00     0.068 C 
HETATM   10  C   UNL     1     -42.896  54.006 -52.946  1.00  0.00     0.240 C 
ENDROOT
BRANCH   7  11
HETATM   11  N   UNL     1     -42.838  59.804 -54.967  1.00  0.00    -0.320 N 
HETATM   12  C   UNL     1     -44.076  60.432 -55.034  1.00  0.00     0.222 C 
HETATM   13  O   UNL     1     -45.146  59.977 -54.650  1.00  0.00    -0.273 OA
HETATM   14  H   UNL     1     -42.130  60.145 -55.608  1.00  0.00     0.169 HD
BRANCH  12  15
HETATM   15  C   UNL     1     -43.969  61.814 -55.664  1.00  0.00     0.104 C 
BRANCH  15  16
HETATM   16  C   UNL     1     -44.671  61.922 -57.018  1.00  0.00     0.020 C 
BRANCH  16  17
HETATM   17  C   UNL     1     -44.258  60.937 -58.117  1.00  0.00     0.080 C 
BRANCH  17  18
HETATM   18  S   UNL     1     -45.443  60.664 -59.483  1.00  0.00    -0.130 SA
BRANCH  18  19
HETATM   19  C   UNL     1     -45.358  58.906 -59.766  1.00  0.00     0.000 A 
HETATM   20  C   UNL     1     -46.443  58.040 -59.608  1.00  0.00     0.020 A 
HETATM   21  C   UNL     1     -46.293  56.667 -59.834  1.00  0.00     0.025 A 
HETATM   22  C   UNL     1     -45.060  56.161 -60.240  1.00  0.00     0.034 A 
HETATM   23 CL   UNL     1     -44.873  54.472 -60.509  1.00  0.00    -0.084 Cl
HETATM   24  C   UNL     1     -43.979  57.015 -60.433  1.00  0.00     0.025 A 
HETATM   25  C   UNL     1     -44.131  58.385 -60.200  1.00  0.00     0.020 A 
ENDBRANCH  18  19
ENDBRANCH  17  18
ENDBRANCH  16  17
ENDBRANCH  15  16
ENDBRANCH  12  15
ENDBRANCH   7  11
BRANCH   6  26
HETATM   26  C   UNL     1     -43.233  57.133 -56.426  1.00  0.00     0.252 C 
HETATM   27  N   UNL     1     -42.335  56.491 -57.238  1.00  0.00    -0.366 N 
HETATM   28  H   UNL     1     -41.654  55.862 -56.829  1.00  0.00     0.159 HD
HETATM   29  H   UNL     1     -42.708  56.208 -58.138  1.00  0.00     0.159 HD
HETATM   30  O   UNL     1     -44.345  57.440 -56.834  1.00  0.00    -0.268 OA
ENDBRANCH   6  26
BRANCH   1  31
HETATM   31  C   UNL     1     -40.381  53.922 -52.912  1.00  0.00     0.273 C 
BRANCH  31  32
HETATM   32  C   UNL     1     -40.118  52.442 -52.930  1.00  0.00    -0.033 A 
HETATM   33  C   UNL     1     -39.766  51.738 -51.770  1.00  0.00     0.009 A 
HETATM   34  C   UNL     1     -39.554  50.358 -51.822  1.00  0.00     0.001 A 
HETATM   35  C   UNL     1     -39.709  49.669 -53.023  1.00  0.00     0.000 A 
HETATM   36  C   UNL     1     -40.075  50.354 -54.177  1.00  0.00     0.001 A 
HETATM   37  C   UNL     1     -40.276  51.733 -54.132  1.00  0.00     0.009 A 
ENDBRANCH  31  32
ENDBRANCH   1  31
TORSDOF 9
ENDMDL
MODEL 10
REMARK VINA RESULT:      -7.9      5.863      9.122
REMARK  9 active torsions:
REMARK  status: ('A' for Active; 'I' for Inactive)
REMARK    1  A    between atoms: C_4  and  C_5 
REMARK    2  A    between atoms: C_5  and  N_6 
REMARK    3  A    between atoms: C_11  and  C_12 
REMARK       I    between atoms: C_12  and  N_13 
REMARK    4  A    between atoms: C_15  and  N_16 
REMARK       I    between atoms: N_16  and  C_17 
REMARK    5  A    between atoms: C_17  and  C_18 
REMARK    6  A    between atoms: C_18  and  C_19 
REMARK    7  A    between atoms: C_19  and  C_20 
REMARK    8  A    between atoms: C_20  and  S_21 
REMARK    9  A    between atoms: S_21  and  C_22 
ROOT
HETATM    1  N   UNL     1     -42.452  55.689 -51.318  1.00  0.00    -0.063 N 
HETATM    2  H   UNL     1     -42.067  55.270 -50.467  1.00  0.00     0.280 HD
HETATM    3  C   UNL     1     -41.414  56.711 -51.778  1.00  0.00     0.282 C 
HETATM    4  C   UNL     1     -42.013  57.690 -52.727  1.00  0.00     0.018 C 
HETATM    5  C   UNL     1     -43.364  57.879 -52.939  1.00  0.00    -0.023 C 
HETATM    6  C   UNL     1     -43.605  58.800 -54.026  1.00  0.00     0.073 C 
HETATM    7  C   UNL     1     -42.433  59.470 -54.354  1.00  0.00     0.093 C 
HETATM    8  S   UNL     1     -41.063  58.756 -53.636  1.00  0.00    -0.074 SA
HETATM    9  C   UNL     1     -44.391  57.120 -52.143  1.00  0.00     0.068 C 
HETATM   10  C   UNL     1     -43.756  56.388 -50.939  1.00  0.00     0.240 C 
ENDROOT
BRANCH   7  11
HETATM   11  N   UNL     1     -42.301  60.556 -55.206  1.00  0.00    -0.320 N 
HETATM   12  C   UNL     1     -42.219  60.488 -56.592  1.00  0.00     0.222 C 
HETATM   13  O   UNL     1     -42.229  59.471 -57.274  1.00  0.00    -0.273 OA
HETATM   14  H   UNL     1     -41.949  61.407 -54.781  1.00  0.00     0.169 HD
BRANCH  12  15
HETATM   15  C   UNL     1     -42.106  61.872 -57.215  1.00  0.00     0.104 C 
BRANCH  15  16
HETATM   16  C   UNL     1     -42.627  61.939 -58.651  1.00  0.00     0.020 C 
BRANCH  16  17
HETATM   17  C   UNL     1     -41.650  61.596 -59.781  1.00  0.00     0.080 C 
BRANCH  17  18
HETATM   18  S   UNL     1     -42.346  60.800 -61.274  1.00  0.00    -0.130 SA
BRANCH  18  19
HETATM   19  C   UNL     1     -42.747  59.154 -60.721  1.00  0.00     0.000 A 
HETATM   20  C   UNL     1     -41.792  58.168 -60.458  1.00  0.00     0.020 A 
HETATM   21  C   UNL     1     -42.187  56.891 -60.043  1.00  0.00     0.025 A 
HETATM   22  C   UNL     1     -43.540  56.605 -59.869  1.00  0.00     0.034 A 
HETATM   23 CL   UNL     1     -44.025  55.033 -59.367  1.00  0.00    -0.084 Cl
HETATM   24  C   UNL     1     -44.500  57.586 -60.096  1.00  0.00     0.025 A 
HETATM   25  C   UNL     1     -44.102  58.857 -60.518  1.00  0.00     0.020 A 
ENDBRANCH  18  19
ENDBRANCH  17  18
ENDBRANCH  16  17
ENDBRANCH  15  16
ENDBRANCH  12  15
ENDBRANCH   7  11
BRANCH   6  26
HETATM   26  C   UNL     1     -44.915  59.059 -54.616  1.00  0.00     0.252 C 
HETATM   27  N   UNL     1     -45.663  60.029 -54.003  1.00  0.00    -0.366 N 
HETATM   28  H   UNL     1     -45.198  60.755 -53.471  1.00  0.00     0.159 HD
HETATM   29  H   UNL     1     -46.481  60.324 -54.526  1.00  0.00     0.159 HD
HETATM   30  O   UNL     1     -45.300  58.522 -55.646  1.00  0.00    -0.268 OA
ENDBRANCH   6  26
BRANCH   1  31
HETATM   31  C   UNL     1     -42.689  54.545 -52.280  1.00  0.00     0.273 C 
BRANCH  31  32
HETATM   32  C   UNL     1     -41.547  53.583 -52.455  1.00  0.00    -0.033 A 
HETATM   33  C   UNL     1     -40.802  53.111 -51.366  1.00  0.00     0.009 A 
HETATM   34  C   UNL     1     -39.764  52.198 -51.566  1.00  0.00     0.001 A 
HETATM   35  C   UNL     1     -39.475  51.734 -52.848  1.00  0.00     0.000 A 
HETATM   36  C   UNL     1     -40.218  52.182 -53.935  1.00  0.00     0.001 A 
HETATM   37  C   UNL     1     -41.248  53.102 -53.741  1.00  0.00     0.009 A 
ENDBRANCH  31  32
ENDBRANCH   1  31
TORSDOF 9
ENDMDL
