MODEL 1
REMARK VINA RESULT:      -7.9      0.000      0.000
REMARK  5 active torsions:
REMARK  status: ('A' for Active; 'I' for Inactive)
REMARK    1  A    between atoms: C_8  and  N_9 
REMARK       I    between atoms: N_9  and  C_10 
REMARK    2  A    between atoms: C_10  and  C_11 
REMARK    3  A    between atoms: C_11  and  N_12 
REMARK    4  A    between atoms: N_12  and  C_13 
REMARK    5  A    between atoms: C_13  and  C_14 
ROOT
HETATM    1  C   UNL     1     -42.523  54.736 -55.480  1.00  0.00     0.372 C 
ENDROOT
BRANCH   1   2
HETATM    2  C   UNL     1     -43.050  55.855 -56.394  1.00  0.00     0.250 C 
HETATM    3  N   UNL     1     -42.892  55.556 -57.731  1.00  0.00    -0.322 N 
HETATM    4  H   UNL     1     -42.474  54.648 -57.909  1.00  0.00     0.169 HD
HETATM    5  O   UNL     1     -43.571  56.856 -55.915  1.00  0.00    -0.271 OA
BRANCH   3   6
HETATM    6  C   UNL     1     -43.204  56.340 -58.826  1.00  0.00     0.085 A 
HETATM    7  C   UNL     1     -44.056  55.887 -59.817  1.00  0.00     0.052 A 
HETATM    8  C   UNL     1     -44.798  54.618 -59.998  1.00  0.00     0.072 C 
HETATM    9  N   UNL     1     -44.131  56.896 -60.734  1.00  0.00    -0.280 N 
HETATM   10  H   UNL     1     -44.664  56.921 -61.597  1.00  0.00     0.189 HD
HETATM   11  N   UNL     1     -43.396  57.966 -60.423  1.00  0.00    -0.177 NA
HETATM   12  C   UNL     1     -42.821  57.645 -59.253  1.00  0.00     0.079 A 
HETATM   13  C   UNL     1     -41.915  58.641 -58.628  1.00  0.00     0.075 C 
ENDBRANCH   3   6
ENDBRANCH   1   2
BRANCH   1  14
HETATM   14  N   UNL     1     -41.048  54.824 -55.346  1.00  0.00     0.100 N 
HETATM   15  H   UNL     1     -40.754  55.694 -55.797  1.00  0.00     0.317 HD
BRANCH  14  16
HETATM   16  C   UNL     1     -40.585  54.878 -53.944  1.00  0.00     0.250 C 
HETATM   17  C   UNL     1     -41.478  55.775 -53.074  1.00  0.00     0.048 C 
BRANCH  16  18
HETATM   18  C   UNL     1     -40.276  53.503 -53.369  1.00  0.00    -0.024 A 
HETATM   19  C   UNL     1     -40.079  52.367 -54.175  1.00  0.00     0.036 A 
HETATM   20  C   UNL     1     -39.795  51.126 -53.600  1.00  0.00     0.073 A 
HETATM   21 CL   UNL     1     -39.565  49.756 -54.619  1.00  0.00    -0.081 Cl
HETATM   22  C   UNL     1     -39.701  51.005 -52.217  1.00  0.00     0.138 A 
HETATM   23  F   UNL     1     -39.434  49.821 -51.648  1.00  0.00    -0.204 F 
HETATM   24  C   UNL     1     -39.882  52.114 -51.400  1.00  0.00     0.044 A 
HETATM   25  C   UNL     1     -40.163  53.356 -51.973  1.00  0.00     0.012 A 
ENDBRANCH  16  18
ENDBRANCH  14  16
ENDBRANCH   1  14
TORSDOF 5
ENDMDL
MODEL 2
REMARK VINA RESULT:      -7.8      0.714      1.875
REMARK  5 active torsions:
REMARK  status: ('A' for Active; 'I' for Inactive)
REMARK    1  A    between atoms: C_8  and  N_9 
REMARK       I    between atoms: N_9  and  C_10 
REMARK    2  A    between atoms: C_10  and  C_11 
REMARK    3  A    between atoms: C_11  and  N_12 
REMARK    4  A    between atoms: N_12  and  C_13 
REMARK    5  A    between atoms: C_13  and  C_14 
ROOT
HETATM    1  C   UNL     1     -43.275  55.924 -54.725  1.00  0.00     0.372 C 
ENDROOT
BRANCH   1   2
HETATM    2  C   UNL     1     -43.691  56.534 -56.073  1.00  0.00     0.250 C 
HETATM    3  N   UNL     1     -43.128  55.870 -57.143  1.00  0.00    -0.322 N 
HETATM    4  H   UNL     1     -42.546  55.079 -56.884  1.00  0.00     0.169 HD
HETATM    5  O   UNL     1     -44.468  57.482 -56.114  1.00  0.00    -0.271 OA
BRANCH   3   6
HETATM    6  C   UNL     1     -43.241  56.166 -58.488  1.00  0.00     0.085 A 
HETATM    7  C   UNL     1     -42.689  57.316 -59.023  1.00  0.00     0.052 A 
HETATM    8  C   UNL     1     -41.916  58.428 -58.424  1.00  0.00     0.072 C 
HETATM    9  N   UNL     1     -42.995  57.294 -60.353  1.00  0.00    -0.280 N 
HETATM   10  H   UNL     1     -42.754  57.976 -61.064  1.00  0.00     0.189 HD
HETATM   11  N   UNL     1     -43.703  56.226 -60.728  1.00  0.00    -0.177 NA
HETATM   12  C   UNL     1     -43.863  55.519 -59.597  1.00  0.00     0.079 A 
HETATM   13  C   UNL     1     -44.630  54.251 -59.672  1.00  0.00     0.075 C 
ENDBRANCH   3   6
ENDBRANCH   1   2
BRANCH   1  14
HETATM   14  N   UNL     1     -42.366  54.769 -54.933  1.00  0.00     0.100 N 
HETATM   15  H   UNL     1     -42.198  54.693 -55.940  1.00  0.00     0.317 HD
BRANCH  14  16
HETATM   16  C   UNL     1     -41.050  54.929 -54.280  1.00  0.00     0.250 C 
HETATM   17  C   UNL     1     -40.981  56.200 -53.422  1.00  0.00     0.048 C 
BRANCH  16  18
HETATM   18  C   UNL     1     -40.565  53.652 -53.606  1.00  0.00    -0.024 A 
HETATM   19  C   UNL     1     -40.283  52.474 -54.320  1.00  0.00     0.036 A 
HETATM   20  C   UNL     1     -39.839  51.327 -53.656  1.00  0.00     0.073 A 
HETATM   21 CL   UNL     1     -39.507  49.901 -54.563  1.00  0.00    -0.081 Cl
HETATM   22  C   UNL     1     -39.668  51.345 -52.275  1.00  0.00     0.138 A 
HETATM   23  F   UNL     1     -39.247  50.254 -51.620  1.00  0.00    -0.204 F 
HETATM   24  C   UNL     1     -39.932  52.501 -51.549  1.00  0.00     0.044 A 
HETATM   25  C   UNL     1     -40.373  53.648 -52.211  1.00  0.00     0.012 A 
ENDBRANCH  16  18
ENDBRANCH  14  16
ENDBRANCH   1  14
TORSDOF 5
ENDMDL
MODEL 3
REMARK VINA RESULT:      -7.7      3.550      5.568
REMARK  5 active torsions:
REMARK  status: ('A' for Active; 'I' for Inactive)
REMARK    1  A    between atoms: C_8  and  N_9 
REMARK       I    between atoms: N_9  and  C_10 
REMARK    2  A    between atoms: C_10  and  C_11 
REMARK    3  A    between atoms: C_11  and  N_12 
REMARK    4  A    between atoms: N_12  and  C_13 
REMARK    5  A    between atoms: C_13  and  C_14 
ROOT
HETATM    1  C   UNL     1     -43.819  56.006 -54.297  1.00  0.00     0.372 C 
ENDROOT
BRANCH   1   2
HETATM    2  C   UNL     1     -43.761  57.093 -53.211  1.00  0.00     0.250 C 
HETATM    3  N   UNL     1     -42.471  57.351 -52.799  1.00  0.00    -0.322 N 
HETATM    4  H   UNL     1     -41.761  56.805 -53.279  1.00  0.00     0.169 HD
HETATM    5  O   UNL     1     -44.786  57.648 -52.831  1.00  0.00    -0.271 OA
BRANCH   3   6
HETATM    6  C   UNL     1     -42.045  58.225 -51.816  1.00  0.00     0.085 A 
HETATM    7  C   UNL     1     -41.432  57.769 -50.663  1.00  0.00     0.052 A 
HETATM    8  C   UNL     1     -41.082  56.413 -50.183  1.00  0.00     0.072 C 
HETATM    9  N   UNL     1     -41.158  58.882 -49.921  1.00  0.00    -0.280 N 
HETATM   10  H   UNL     1     -40.710  58.936 -49.013  1.00  0.00     0.189 HD
HETATM   11  N   UNL     1     -41.545  60.024 -50.495  1.00  0.00    -0.177 NA
HETATM   12  C   UNL     1     -42.091  59.641 -51.661  1.00  0.00     0.079 A 
HETATM   13  C   UNL     1     -42.636  60.696 -52.551  1.00  0.00     0.075 C 
ENDBRANCH   3   6
ENDBRANCH   1   2
BRANCH   1  14
HETATM   14  N   UNL     1     -43.340  54.708 -53.760  1.00  0.00     0.100 N 
HETATM   15  H   UNL     1     -44.146  54.078 -53.724  1.00  0.00     0.317 HD
BRANCH  14  16
HETATM   16  C   UNL     1     -42.316  54.061 -54.605  1.00  0.00     0.250 C 
HETATM   17  C   UNL     1     -41.637  55.058 -55.556  1.00  0.00     0.048 C 
BRANCH  16  18
HETATM   18  C   UNL     1     -41.375  53.163 -53.812  1.00  0.00    -0.024 A 
HETATM   19  C   UNL     1     -40.791  52.004 -54.355  1.00  0.00     0.036 A 
HETATM   20  C   UNL     1     -39.932  51.213 -53.587  1.00  0.00     0.073 A 
HETATM   21 CL   UNL     1     -39.240  49.798 -54.283  1.00  0.00    -0.081 Cl
HETATM   22  C   UNL     1     -39.644  51.571 -52.274  1.00  0.00     0.138 A 
HETATM   23  F   UNL     1     -38.826  50.822 -51.521  1.00  0.00    -0.204 F 
HETATM   24  C   UNL     1     -40.201  52.718 -51.719  1.00  0.00     0.044 A 
HETATM   25  C   UNL     1     -41.058  53.511 -52.485  1.00  0.00     0.012 A 
ENDBRANCH  16  18
ENDBRANCH  14  16
ENDBRANCH   1  14
TORSDOF 5
ENDMDL
MODEL 4
REMARK VINA RESULT:      -7.1      3.647      4.979
REMARK  5 active torsions:
REMARK  status: ('A' for Active; 'I' for Inactive)
REMARK    1  A    between atoms: C_8  and  N_9 
REMARK       I    between atoms: N_9  and  C_10 
REMARK    2  A    between atoms: C_10  and  C_11 
REMARK    3  A    between atoms: C_11  and  N_12 
REMARK    4  A    between atoms: N_12  and  C_13 
REMARK    5  A    between atoms: C_13  and  C_14 
ROOT
HETATM    1  C   UNL     1     -42.442  55.176 -56.061  1.00  0.00     0.372 C 
ENDROOT
BRANCH   1   2
HETATM    2  C   UNL     1     -42.874  56.463 -55.339  1.00  0.00     0.250 C 
HETATM    3  N   UNL     1     -41.796  57.220 -54.931  1.00  0.00    -0.322 N 
HETATM    4  H   UNL     1     -40.892  56.829 -55.180  1.00  0.00     0.169 HD
HETATM    5  O   UNL     1     -44.062  56.735 -55.209  1.00  0.00    -0.271 OA
BRANCH   3   6
HETATM    6  C   UNL     1     -41.802  58.405 -54.219  1.00  0.00     0.085 A 
HETATM    7  C   UNL     1     -42.013  59.621 -54.843  1.00  0.00     0.052 A 
HETATM    8  C   UNL     1     -42.266  59.992 -56.255  1.00  0.00     0.072 C 
HETATM    9  N   UNL     1     -41.945  60.563 -53.858  1.00  0.00    -0.280 N 
HETATM   10  H   UNL     1     -42.051  61.568 -53.943  1.00  0.00     0.189 HD
HETATM   11  N   UNL     1     -41.703  60.062 -52.645  1.00  0.00    -0.177 NA
HETATM   12  C   UNL     1     -41.615  58.737 -52.845  1.00  0.00     0.079 A 
HETATM   13  C   UNL     1     -41.339  57.874 -51.669  1.00  0.00     0.075 C 
ENDBRANCH   3   6
ENDBRANCH   1   2
BRANCH   1  14
HETATM   14  N   UNL     1     -42.745  53.985 -55.229  1.00  0.00     0.100 N 
HETATM   15  H   UNL     1     -43.049  53.242 -55.862  1.00  0.00     0.317 HD
BRANCH  14  16
HETATM   16  C   UNL     1     -41.578  53.475 -54.481  1.00  0.00     0.250 C 
HETATM   17  C   UNL     1     -40.251  53.831 -55.167  1.00  0.00     0.048 C 
BRANCH  16  18
HETATM   18  C   UNL     1     -41.650  53.778 -52.990  1.00  0.00    -0.024 A 
HETATM   19  C   UNL     1     -42.861  54.046 -52.326  1.00  0.00     0.036 A 
HETATM   20  C   UNL     1     -42.876  54.318 -50.955  1.00  0.00     0.073 A 
HETATM   21 CL   UNL     1     -44.376  54.647 -50.177  1.00  0.00    -0.081 Cl
HETATM   22  C   UNL     1     -41.687  54.321 -50.233  1.00  0.00     0.138 A 
HETATM   23  F   UNL     1     -41.681  54.584 -48.918  1.00  0.00    -0.204 F 
HETATM   24  C   UNL     1     -40.479  54.049 -50.866  1.00  0.00     0.044 A 
HETATM   25  C   UNL     1     -40.462  53.775 -52.235  1.00  0.00     0.012 A 
ENDBRANCH  16  18
ENDBRANCH  14  16
ENDBRANCH   1  14
TORSDOF 5
ENDMDL
MODEL 5
REMARK VINA RESULT:      -7.0      3.992      5.565
REMARK  5 active torsions:
REMARK  status: ('A' for Active; 'I' for Inactive)
REMARK    1  A    between atoms: C_8  and  N_9 
REMARK       I    between atoms: N_9  and  C_10 
REMARK    2  A    between atoms: C_10  and  C_11 
REMARK    3  A    between atoms: C_11  and  N_12 
REMARK    4  A    between atoms: N_12  and  C_13 
REMARK    5  A    between atoms: C_13  and  C_14 
ROOT
HETATM    1  C   UNL     1     -43.457  56.157 -53.746  1.00  0.00     0.372 C 
ENDROOT
BRANCH   1   2
HETATM    2  C   UNL     1     -43.666  57.173 -52.611  1.00  0.00     0.250 C 
HETATM    3  N   UNL     1     -42.907  58.311 -52.784  1.00  0.00    -0.322 N 
HETATM    4  H   UNL     1     -42.346  58.315 -53.631  1.00  0.00     0.169 HD
HETATM    5  O   UNL     1     -44.461  56.942 -51.707  1.00  0.00    -0.271 OA
BRANCH   3   6
HETATM    6  C   UNL     1     -42.805  59.407 -51.947  1.00  0.00     0.085 A 
HETATM    7  C   UNL     1     -43.729  60.435 -51.989  1.00  0.00     0.052 A 
HETATM    8  C   UNL     1     -44.941  60.661 -52.810  1.00  0.00     0.072 C 
HETATM    9  N   UNL     1     -43.323  61.341 -51.051  1.00  0.00    -0.280 N 
HETATM   10  H   UNL     1     -43.758  62.222 -50.801  1.00  0.00     0.189 HD
HETATM   11  N   UNL     1     -42.209  60.988 -50.405  1.00  0.00    -0.177 NA
HETATM   12  C   UNL     1     -41.877  59.802 -50.939  1.00  0.00     0.079 A 
HETATM   13  C   UNL     1     -40.653  59.131 -50.433  1.00  0.00     0.075 C 
ENDBRANCH   3   6
ENDBRANCH   1   2
BRANCH   1  14
HETATM   14  N   UNL     1     -42.827  54.918 -53.226  1.00  0.00     0.100 N 
HETATM   15  H   UNL     1     -43.501  54.158 -53.353  1.00  0.00     0.317 HD
BRANCH  14  16
HETATM   16  C   UNL     1     -41.594  54.535 -53.945  1.00  0.00     0.250 C 
HETATM   17  C   UNL     1     -40.716  55.751 -54.274  1.00  0.00     0.048 C 
BRANCH  16  18
HETATM   18  C   UNL     1     -40.874  53.358 -53.301  1.00  0.00    -0.024 A 
HETATM   19  C   UNL     1     -40.457  52.230 -54.029  1.00  0.00     0.036 A 
HETATM   20  C   UNL     1     -39.797  51.175 -53.393  1.00  0.00     0.073 A 
HETATM   21 CL   UNL     1     -39.305  49.807 -54.316  1.00  0.00    -0.081 Cl
HETATM   22  C   UNL     1     -39.544  51.236 -52.026  1.00  0.00     0.138 A 
HETATM   23  F   UNL     1     -38.917  50.232 -51.398  1.00  0.00    -0.204 F 
HETATM   24  C   UNL     1     -39.938  52.345 -51.287  1.00  0.00     0.044 A 
HETATM   25  C   UNL     1     -40.595  53.402 -51.921  1.00  0.00     0.012 A 
ENDBRANCH  16  18
ENDBRANCH  14  16
ENDBRANCH   1  14
TORSDOF 5
ENDMDL
MODEL 6
REMARK VINA RESULT:      -6.9      1.894      2.240
REMARK  5 active torsions:
REMARK  status: ('A' for Active; 'I' for Inactive)
REMARK    1  A    between atoms: C_8  and  N_9 
REMARK       I    between atoms: N_9  and  C_10 
REMARK    2  A    between atoms: C_10  and  C_11 
REMARK    3  A    between atoms: C_11  and  N_12 
REMARK    4  A    between atoms: N_12  and  C_13 
REMARK    5  A    between atoms: C_13  and  C_14 
ROOT
HETATM    1  C   UNL     1     -42.871  55.223 -56.278  1.00  0.00     0.372 C 
ENDROOT
BRANCH   1   2
HETATM    2  C   UNL     1     -42.962  56.531 -57.081  1.00  0.00     0.250 C 
HETATM    3  N   UNL     1     -43.930  56.475 -58.061  1.00  0.00    -0.322 N 
HETATM    4  H   UNL     1     -44.442  55.598 -58.094  1.00  0.00     0.169 HD
HETATM    5  O   UNL     1     -42.246  57.485 -56.800  1.00  0.00    -0.271 OA
BRANCH   3   6
HETATM    6  C   UNL     1     -44.258  57.439 -58.996  1.00  0.00     0.085 A 
HETATM    7  C   UNL     1     -45.543  57.941 -59.095  1.00  0.00     0.052 A 
HETATM    8  C   UNL     1     -46.790  57.658 -58.347  1.00  0.00     0.072 C 
HETATM    9  N   UNL     1     -45.512  58.851 -60.112  1.00  0.00    -0.280 N 
HETATM   10  H   UNL     1     -46.272  59.419 -60.469  1.00  0.00     0.189 HD
HETATM   11  N   UNL     1     -44.313  58.980 -60.685  1.00  0.00    -0.177 NA
HETATM   12  C   UNL     1     -43.528  58.123 -60.012  1.00  0.00     0.079 A 
HETATM   13  C   UNL     1     -42.105  58.020 -60.419  1.00  0.00     0.075 C 
ENDBRANCH   3   6
ENDBRANCH   1   2
BRANCH   1  14
HETATM   14  N   UNL     1     -42.684  55.509 -54.834  1.00  0.00     0.100 N 
HETATM   15  H   UNL     1     -43.117  54.742 -54.314  1.00  0.00     0.317 HD
BRANCH  14  16
HETATM   16  C   UNL     1     -41.266  55.572 -54.423  1.00  0.00     0.250 C 
HETATM   17  C   UNL     1     -40.947  56.856 -53.644  1.00  0.00     0.048 C 
BRANCH  16  18
HETATM   18  C   UNL     1     -40.775  54.278 -53.789  1.00  0.00    -0.024 A 
HETATM   19  C   UNL     1     -40.780  54.061 -52.400  1.00  0.00     0.036 A 
HETATM   20  C   UNL     1     -40.320  52.854 -51.866  1.00  0.00     0.073 A 
HETATM   21 CL   UNL     1     -40.335  52.626 -50.159  1.00  0.00    -0.081 Cl
HETATM   22  C   UNL     1     -39.856  51.851 -52.711  1.00  0.00     0.138 A 
HETATM   23  F   UNL     1     -39.407  50.688 -52.216  1.00  0.00    -0.204 F 
HETATM   24  C   UNL     1     -39.851  52.038 -54.088  1.00  0.00     0.044 A 
HETATM   25  C   UNL     1     -40.312  53.242 -54.624  1.00  0.00     0.012 A 
ENDBRANCH  16  18
ENDBRANCH  14  16
ENDBRANCH   1  14
TORSDOF 5
ENDMDL
MODEL 7
REMARK VINA RESULT:      -6.8     14.301     16.817
REMARK  5 active torsions:
REMARK  status: ('A' for Active; 'I' for Inactive)
REMARK    1  A    between atoms: C_8  and  N_9 
REMARK       I    between atoms: N_9  and  C_10 
REMARK    2  A    between atoms: C_10  and  C_11 
REMARK    3  A    between atoms: C_11  and  N_12 
REMARK    4  A    between atoms: N_12  and  C_13 
REMARK    5  A    between atoms: C_13  and  C_14 
ROOT
HETATM    1  C   UNL     1     -35.531  42.236 -55.158  1.00  0.00     0.372 C 
ENDROOT
BRANCH   1   2
HETATM    2  C   UNL     1     -35.606  41.982 -53.644  1.00  0.00     0.250 C 
HETATM    3  N   UNL     1     -34.802  40.934 -53.249  1.00  0.00    -0.322 N 
HETATM    4  H   UNL     1     -34.275  40.504 -54.004  1.00  0.00     0.169 HD
HETATM    5  O   UNL     1     -36.299  42.696 -52.927  1.00  0.00    -0.271 OA
BRANCH   3   6
HETATM    6  C   UNL     1     -34.654  40.398 -51.984  1.00  0.00     0.085 A 
HETATM    7  C   UNL     1     -33.410  40.281 -51.391  1.00  0.00     0.052 A 
HETATM    8  C   UNL     1     -32.046  40.640 -51.844  1.00  0.00     0.072 C 
HETATM    9  N   UNL     1     -33.630  39.711 -50.170  1.00  0.00    -0.280 N 
HETATM   10  H   UNL     1     -32.950  39.475 -49.456  1.00  0.00     0.189 HD
HETATM   11  N   UNL     1     -34.914  39.445 -49.921  1.00  0.00    -0.177 NA
HETATM   12  C   UNL     1     -35.560  39.862 -51.022  1.00  0.00     0.079 A 
HETATM   13  C   UNL     1     -37.034  39.696 -51.067  1.00  0.00     0.075 C 
ENDBRANCH   3   6
ENDBRANCH   1   2
BRANCH   1  14
HETATM   14  N   UNL     1     -36.886  42.478 -55.714  1.00  0.00     0.100 N 
HETATM   15  H   UNL     1     -36.766  42.960 -56.608  1.00  0.00     0.317 HD
BRANCH  14  16
HETATM   16  C   UNL     1     -37.644  41.238 -55.983  1.00  0.00     0.250 C 
HETATM   17  C   UNL     1     -39.008  41.230 -55.278  1.00  0.00     0.048 C 
BRANCH  16  18
HETATM   18  C   UNL     1     -37.664  40.864 -57.459  1.00  0.00    -0.024 A 
HETATM   19  C   UNL     1     -38.122  39.619 -57.923  1.00  0.00     0.036 A 
HETATM   20  C   UNL     1     -38.122  39.323 -59.289  1.00  0.00     0.073 A 
HETATM   21 CL   UNL     1     -38.686  37.785 -59.820  1.00  0.00    -0.081 Cl
HETATM   22  C   UNL     1     -37.669  40.268 -60.205  1.00  0.00     0.138 A 
HETATM   23  F   UNL     1     -37.658  40.000 -61.519  1.00  0.00    -0.204 F 
HETATM   24  C   UNL     1     -37.221  41.510 -59.771  1.00  0.00     0.044 A 
HETATM   25  C   UNL     1     -37.222  41.808 -58.407  1.00  0.00     0.012 A 
ENDBRANCH  16  18
ENDBRANCH  14  16
ENDBRANCH   1  14
TORSDOF 5
ENDMDL
MODEL 8
REMARK VINA RESULT:      -6.8     14.157     15.393
REMARK  5 active torsions:
REMARK  status: ('A' for Active; 'I' for Inactive)
REMARK    1  A    between atoms: C_8  and  N_9 
REMARK       I    between atoms: N_9  and  C_10 
REMARK    2  A    between atoms: C_10  and  C_11 
REMARK    3  A    between atoms: C_11  and  N_12 
REMARK    4  A    between atoms: N_12  and  C_13 
REMARK    5  A    between atoms: C_13  and  C_14 
ROOT
HETATM    1  C   UNL     1     -37.605  41.573 -55.238  1.00  0.00     0.372 C 
ENDROOT
BRANCH   1   2
HETATM    2  C   UNL     1     -36.996  40.959 -56.510  1.00  0.00     0.250 C 
HETATM    3  N   UNL     1     -37.914  40.866 -57.535  1.00  0.00    -0.322 N 
HETATM    4  H   UNL     1     -38.835  41.228 -57.306  1.00  0.00     0.169 HD
HETATM    5  O   UNL     1     -35.812  40.645 -56.545  1.00  0.00    -0.271 OA
BRANCH   3   6
HETATM    6  C   UNL     1     -37.737  40.328 -58.796  1.00  0.00     0.085 A 
HETATM    7  C   UNL     1     -37.454  41.129 -59.888  1.00  0.00     0.052 A 
HETATM    8  C   UNL     1     -37.272  42.591 -60.039  1.00  0.00     0.072 C 
HETATM    9  N   UNL     1     -37.354  40.283 -60.956  1.00  0.00    -0.280 N 
HETATM   10  H   UNL     1     -37.155  40.514 -61.923  1.00  0.00     0.189 HD
HETATM   11  N   UNL     1     -37.553  38.999 -60.649  1.00  0.00    -0.177 NA
HETATM   12  C   UNL     1     -37.787  39.006 -59.326  1.00  0.00     0.079 A 
HETATM   13  C   UNL     1     -38.059  37.706 -58.662  1.00  0.00     0.075 C 
ENDBRANCH   3   6
ENDBRANCH   1   2
BRANCH   1  14
HETATM   14  N   UNL     1     -36.567  42.294 -54.460  1.00  0.00     0.100 N 
HETATM   15  H   UNL     1     -36.783  43.293 -54.520  1.00  0.00     0.317 HD
BRANCH  14  16
HETATM   16  C   UNL     1     -36.547  41.934 -53.027  1.00  0.00     0.250 C 
HETATM   17  C   UNL     1     -37.752  41.068 -52.632  1.00  0.00     0.048 C 
BRANCH  16  18
HETATM   18  C   UNL     1     -35.189  41.424 -52.564  1.00  0.00    -0.024 A 
HETATM   19  C   UNL     1     -34.266  40.818 -53.435  1.00  0.00     0.036 A 
HETATM   20  C   UNL     1     -33.030  40.367 -52.962  1.00  0.00     0.073 A 
HETATM   21 CL   UNL     1     -31.927  39.626 -54.057  1.00  0.00    -0.081 Cl
HETATM   22  C   UNL     1     -32.702  40.519 -51.619  1.00  0.00     0.138 A 
HETATM   23  F   UNL     1     -31.524  40.088 -51.146  1.00  0.00    -0.204 F 
HETATM   24  C   UNL     1     -33.594  41.123 -50.741  1.00  0.00     0.044 A 
HETATM   25  C   UNL     1     -34.828  41.577 -51.211  1.00  0.00     0.012 A 
ENDBRANCH  16  18
ENDBRANCH  14  16
ENDBRANCH   1  14
TORSDOF 5
ENDMDL
MODEL 9
REMARK VINA RESULT:      -6.7     14.362     16.720
REMARK  5 active torsions:
REMARK  status: ('A' for Active; 'I' for Inactive)
REMARK    1  A    between atoms: C_8  and  N_9 
REMARK       I    between atoms: N_9  and  C_10 
REMARK    2  A    between atoms: C_10  and  C_11 
REMARK    3  A    between atoms: C_11  and  N_12 
REMARK    4  A    between atoms: N_12  and  C_13 
REMARK    5  A    between atoms: C_13  and  C_14 
ROOT
HETATM    1  C   UNL     1     -36.524  41.819 -53.112  1.00  0.00     0.372 C 
ENDROOT
BRANCH   1   2
HETATM    2  C   UNL     1     -35.490  40.693 -53.286  1.00  0.00     0.250 C 
HETATM    3  N   UNL     1     -34.403  41.094 -54.033  1.00  0.00    -0.322 N 
HETATM    4  H   UNL     1     -34.438  42.063 -54.336  1.00  0.00     0.169 HD
HETATM    5  O   UNL     1     -35.667  39.599 -52.761  1.00  0.00    -0.271 OA
BRANCH   3   6
HETATM    6  C   UNL     1     -33.312  40.342 -54.427  1.00  0.00     0.085 A 
HETATM    7  C   UNL     1     -32.245  40.118 -53.576  1.00  0.00     0.052 A 
HETATM    8  C   UNL     1     -31.968  40.539 -52.183  1.00  0.00     0.072 C 
HETATM    9  N   UNL     1     -31.356  39.359 -54.283  1.00  0.00    -0.280 N 
HETATM   10  H   UNL     1     -30.457  39.002 -53.981  1.00  0.00     0.189 HD
HETATM   11  N   UNL     1     -31.756  39.074 -55.524  1.00  0.00    -0.177 NA
HETATM   12  C   UNL     1     -32.956  39.667 -55.632  1.00  0.00     0.079 A 
HETATM   13  C   UNL     1     -33.679  39.544 -56.922  1.00  0.00     0.075 C 
ENDBRANCH   3   6
ENDBRANCH   1   2
BRANCH   1  14
HETATM   14  N   UNL     1     -37.084  42.220 -54.426  1.00  0.00     0.100 N 
HETATM   15  H   UNL     1     -36.294  42.377 -55.057  1.00  0.00     0.317 HD
BRANCH  14  16
HETATM   16  C   UNL     1     -37.940  41.186 -55.043  1.00  0.00     0.250 C 
HETATM   17  C   UNL     1     -39.383  41.243 -54.520  1.00  0.00     0.048 C 
BRANCH  16  18
HETATM   18  C   UNL     1     -37.791  41.121 -56.557  1.00  0.00    -0.024 A 
HETATM   19  C   UNL     1     -38.362  40.098 -57.335  1.00  0.00     0.036 A 
HETATM   20  C   UNL     1     -38.198  40.083 -58.723  1.00  0.00     0.073 A 
HETATM   21 CL   UNL     1     -38.907  38.811 -59.642  1.00  0.00    -0.081 Cl
HETATM   22  C   UNL     1     -37.469  41.088 -59.348  1.00  0.00     0.138 A 
HETATM   23  F   UNL     1     -37.297  41.087 -60.678  1.00  0.00    -0.204 F 
HETATM   24  C   UNL     1     -36.903  42.116 -58.602  1.00  0.00     0.044 A 
HETATM   25  C   UNL     1     -37.068  42.134 -57.216  1.00  0.00     0.012 A 
ENDBRANCH  16  18
ENDBRANCH  14  16
ENDBRANCH   1  14
TORSDOF 5
ENDMDL
MODEL 10
REMARK VINA RESULT:      -6.7      1.966      2.986
REMARK  5 active torsions:
REMARK  status: ('A' for Active; 'I' for Inactive)
REMARK    1  A    between atoms: C_8  and  N_9 
REMARK       I    between atoms: N_9  and  C_10 
REMARK    2  A    between atoms: C_10  and  C_11 
REMARK    3  A    between atoms: C_11  and  N_12 
REMARK    4  A    between atoms: N_12  and  C_13 
REMARK    5  A    between atoms: C_13  and  C_14 
ROOT
HETATM    1  C   UNL     1     -42.468  56.015 -53.403  1.00  0.00     0.372 C 
ENDROOT
BRANCH   1   2
HETATM    2  C   UNL     1     -41.945  56.405 -54.796  1.00  0.00     0.250 C 
HETATM    3  N   UNL     1     -42.880  57.106 -55.528  1.00  0.00    -0.322 N 
HETATM    4  H   UNL     1     -43.754  57.273 -55.038  1.00  0.00     0.169 HD
HETATM    5  O   UNL     1     -40.801  56.119 -55.134  1.00  0.00    -0.271 OA
BRANCH   3   6
HETATM    6  C   UNL     1     -42.777  57.572 -56.825  1.00  0.00     0.085 A 
HETATM    7  C   UNL     1     -42.430  58.884 -57.094  1.00  0.00     0.052 A 
HETATM    8  C   UNL     1     -42.102  60.033 -56.220  1.00  0.00     0.072 C 
HETATM    9  N   UNL     1     -42.433  58.999 -58.454  1.00  0.00    -0.280 N 
HETATM   10  H   UNL     1     -42.226  59.819 -59.015  1.00  0.00     0.189 HD
HETATM   11  N   UNL     1     -42.757  57.872 -59.092  1.00  0.00    -0.177 NA
HETATM   12  C   UNL     1     -42.969  56.983 -58.109  1.00  0.00     0.079 A 
HETATM   13  C   UNL     1     -43.362  55.604 -58.492  1.00  0.00     0.075 C 
ENDBRANCH   3   6
ENDBRANCH   1   2
BRANCH   1  14
HETATM   14  N   UNL     1     -41.348  55.598 -52.524  1.00  0.00     0.100 N 
HETATM   15  H   UNL     1     -41.189  56.357 -51.855  1.00  0.00     0.317 HD
BRANCH  14  16
HETATM   16  C   UNL     1     -41.633  54.377 -51.743  1.00  0.00     0.250 C 
HETATM   17  C   UNL     1     -43.133  54.211 -51.457  1.00  0.00     0.048 C 
BRANCH  16  18
HETATM   18  C   UNL     1     -40.928  53.145 -52.292  1.00  0.00    -0.024 A 
HETATM   19  C   UNL     1     -40.358  52.161 -51.464  1.00  0.00     0.036 A 
HETATM   20  C   UNL     1     -39.722  51.046 -52.017  1.00  0.00     0.073 A 
HETATM   21 CL   UNL     1     -39.031  49.864 -50.972  1.00  0.00    -0.081 Cl
HETATM   22  C   UNL     1     -39.651  50.899 -53.399  1.00  0.00     0.138 A 
HETATM   23  F   UNL     1     -39.040  49.838 -53.947  1.00  0.00    -0.204 F 
HETATM   24  C   UNL     1     -40.215  51.853 -54.238  1.00  0.00     0.044 A 
HETATM   25  C   UNL     1     -40.853  52.967 -53.687  1.00  0.00     0.012 A 
ENDBRANCH  16  18
ENDBRANCH  14  16
ENDBRANCH   1  14
TORSDOF 5
ENDMDL
