MODEL 1
REMARK VINA RESULT:      -8.9      0.000      0.000
REMARK  6 active torsions:
REMARK  status: ('A' for Active; 'I' for Inactive)
REMARK    1  A    between atoms: O_2  and  C_3 
REMARK    2  A    between atoms: C_4  and  C_5 
REMARK    3  A    between atoms: C_6  and  C_7 
REMARK       I    between atoms: C_7  and  N_8 
REMARK    4  A    between atoms: N_8  and  C_9 
REMARK    5  A    between atoms: C_9  and  C_10 
REMARK       I    between atoms: C_10  and  N_11 
REMARK    6  A    between atoms: N_11  and  N_12 
ROOT
HETATM    1  C   UNL     1     -41.596  58.829 -53.510  1.00  0.00     0.255 C 
HETATM    2  N   UNL     1     -42.471  58.622 -54.564  1.00  0.00    -0.245 N 
HETATM    3  O   UNL     1     -40.594  59.541 -53.562  1.00  0.00    -0.270 OA
HETATM    4  H   UNL     1     -43.272  58.001 -54.440  1.00  0.00     0.192 HD
ENDROOT
BRANCH   1   5
HETATM    5  C   UNL     1     -41.867  57.934 -52.299  1.00  0.00     0.227 C 
BRANCH   5   6
HETATM    6  N   UNL     1     -41.543  56.523 -52.464  1.00  0.00    -0.349 N 
HETATM    7  C   UNL     1     -42.532  55.611 -52.743  1.00  0.00     0.241 C 
HETATM    8  O   UNL     1     -43.685  55.919 -53.012  1.00  0.00    -0.269 OA
HETATM    9  H   UNL     1     -40.625  56.204 -52.184  1.00  0.00     0.163 HD
BRANCH   7  10
HETATM   10  C   UNL     1     -42.076  54.206 -52.633  1.00  0.00     0.075 C 
HETATM   11  C   UNL     1     -40.951  53.829 -53.259  1.00  0.00     0.020 C 
BRANCH  11  12
HETATM   12  C   UNL     1     -40.468  52.444 -53.220  1.00  0.00    -0.003 A 
HETATM   13  C   UNL     1     -39.826  51.906 -52.089  1.00  0.00     0.078 A 
HETATM   14  C   UNL     1     -39.374  50.581 -52.125  1.00  0.00     0.037 A 
HETATM   15  C   UNL     1     -39.578  49.793 -53.262  1.00  0.00     0.003 A 
HETATM   16  C   UNL     1     -40.229  50.322 -54.373  1.00  0.00     0.001 A 
HETATM   17  C   UNL     1     -40.669  51.644 -54.354  1.00  0.00     0.014 A 
BRANCH  13  18
HETATM   18  O   UNL     1     -39.665  52.749 -51.019  1.00  0.00    -0.355 OA
HETATM   19  C   UNL     1     -40.419  52.464 -49.849  1.00  0.00     0.210 C 
ENDBRANCH  13  18
ENDBRANCH  11  12
ENDBRANCH   7  10
ENDBRANCH   5   6
ENDBRANCH   1   5
BRANCH   2  20
HETATM   20  N   UNL     1     -42.274  59.259 -55.754  1.00  0.00    -0.166 NA
HETATM   21  C   UNL     1     -42.320  58.532 -56.822  1.00  0.00     0.157 A 
HETATM   22  C   UNL     1     -42.524  57.020 -56.945  1.00  0.00     0.277 A 
HETATM   23  C   UNL     1     -42.139  59.025 -58.181  1.00  0.00     0.028 A 
HETATM   24  O   UNL     1     -42.708  56.264 -56.013  1.00  0.00    -0.266 OA
HETATM   25  N   UNL     1     -42.436  56.745 -58.294  1.00  0.00    -0.321 N 
HETATM   26  C   UNL     1     -42.210  57.913 -59.020  1.00  0.00     0.048 A 
HETATM   27  H   UNL     1     -42.523  55.817 -58.680  1.00  0.00     0.169 HD
HETATM   28  C   UNL     1     -42.061  58.038 -60.385  1.00  0.00     0.032 A 
HETATM   29  C   UNL     1     -41.840  59.326 -60.892  1.00  0.00     0.021 A 
HETATM   30  C   UNL     1     -41.774  60.442 -60.031  1.00  0.00     0.012 A 
HETATM   31 BR   UNL     1     -41.477  62.160 -60.766  1.00  0.00    -0.051 Br
HETATM   32  C   UNL     1     -41.922  60.304 -58.651  1.00  0.00     0.035 A 
ENDBRANCH   2  20
TORSDOF 6
ENDMDL
MODEL 2
REMARK VINA RESULT:      -8.8      1.696      2.390
REMARK  6 active torsions:
REMARK  status: ('A' for Active; 'I' for Inactive)
REMARK    1  A    between atoms: O_2  and  C_3 
REMARK    2  A    between atoms: C_4  and  C_5 
REMARK    3  A    between atoms: C_6  and  C_7 
REMARK       I    between atoms: C_7  and  N_8 
REMARK    4  A    between atoms: N_8  and  C_9 
REMARK    5  A    between atoms: C_9  and  C_10 
REMARK       I    between atoms: C_10  and  N_11 
REMARK    6  A    between atoms: N_11  and  N_12 
ROOT
HETATM    1  C   UNL     1     -41.181  58.274 -53.008  1.00  0.00     0.255 C 
HETATM    2  N   UNL     1     -42.059  57.665 -53.889  1.00  0.00    -0.245 N 
HETATM    3  O   UNL     1     -40.340  59.115 -53.326  1.00  0.00    -0.270 OA
HETATM    4  H   UNL     1     -42.716  56.964 -53.542  1.00  0.00     0.192 HD
ENDROOT
BRANCH   1   5
HETATM    5  C   UNL     1     -41.205  57.675 -51.600  1.00  0.00     0.227 C 
BRANCH   5   6
HETATM    6  N   UNL     1     -41.251  56.219 -51.529  1.00  0.00    -0.349 N 
HETATM    7  C   UNL     1     -41.149  55.580 -50.318  1.00  0.00     0.241 C 
HETATM    8  O   UNL     1     -41.162  56.158 -49.240  1.00  0.00    -0.269 OA
HETATM    9  H   UNL     1     -41.167  55.692 -52.388  1.00  0.00     0.163 HD
BRANCH   7  10
HETATM   10  C   UNL     1     -40.964  54.116 -50.446  1.00  0.00     0.075 C 
HETATM   11  C   UNL     1     -40.185  53.635 -51.427  1.00  0.00     0.020 C 
BRANCH  11  12
HETATM   12  C   UNL     1     -39.992  52.195 -51.630  1.00  0.00    -0.003 A 
HETATM   13  C   UNL     1     -39.761  51.641 -52.903  1.00  0.00     0.078 A 
HETATM   14  C   UNL     1     -39.603  50.256 -53.028  1.00  0.00     0.037 A 
HETATM   15  C   UNL     1     -39.651  49.432 -51.899  1.00  0.00     0.003 A 
HETATM   16  C   UNL     1     -39.862  49.983 -50.638  1.00  0.00     0.001 A 
HETATM   17  C   UNL     1     -40.037  51.360 -50.504  1.00  0.00     0.014 A 
BRANCH  13  18
HETATM   18  O   UNL     1     -39.733  52.521 -53.956  1.00  0.00    -0.355 OA
HETATM   19  C   UNL     1     -40.904  52.614 -54.754  1.00  0.00     0.210 C 
ENDBRANCH  13  18
ENDBRANCH  11  12
ENDBRANCH   7  10
ENDBRANCH   5   6
ENDBRANCH   1   5
BRANCH   2  20
HETATM   20  N   UNL     1     -42.057  58.011 -55.208  1.00  0.00    -0.166 NA
HETATM   21  C   UNL     1     -42.487  57.127 -56.047  1.00  0.00     0.157 A 
HETATM   22  C   UNL     1     -42.968  55.699 -55.774  1.00  0.00     0.277 A 
HETATM   23  C   UNL     1     -42.566  57.307 -57.491  1.00  0.00     0.028 A 
HETATM   24  O   UNL     1     -43.041  55.188 -54.675  1.00  0.00    -0.266 OA
HETATM   25  N   UNL     1     -43.263  55.167 -57.011  1.00  0.00    -0.321 N 
HETATM   26  C   UNL     1     -43.029  56.102 -58.017  1.00  0.00     0.048 A 
HETATM   27  H   UNL     1     -43.599  54.225 -57.146  1.00  0.00     0.169 HD
HETATM   28  C   UNL     1     -43.203  55.936 -59.376  1.00  0.00     0.032 A 
HETATM   29  C   UNL     1     -42.899  57.028 -60.200  1.00  0.00     0.021 A 
HETATM   30  C   UNL     1     -42.434  58.243 -59.652  1.00  0.00     0.012 A 
HETATM   31 BR   UNL     1     -42.041  59.688 -60.808  1.00  0.00    -0.051 Br
HETATM   32  C   UNL     1     -42.258  58.398 -58.277  1.00  0.00     0.035 A 
ENDBRANCH   2  20
TORSDOF 6
ENDMDL
MODEL 3
REMARK VINA RESULT:      -8.4      1.447      1.522
REMARK  6 active torsions:
REMARK  status: ('A' for Active; 'I' for Inactive)
REMARK    1  A    between atoms: O_2  and  C_3 
REMARK    2  A    between atoms: C_4  and  C_5 
REMARK    3  A    between atoms: C_6  and  C_7 
REMARK       I    between atoms: C_7  and  N_8 
REMARK    4  A    between atoms: N_8  and  C_9 
REMARK    5  A    between atoms: C_9  and  C_10 
REMARK       I    between atoms: C_10  and  N_11 
REMARK    6  A    between atoms: N_11  and  N_12 
ROOT
HETATM    1  C   UNL     1     -44.017  57.841 -53.377  1.00  0.00     0.255 C 
HETATM    2  N   UNL     1     -43.006  57.442 -54.235  1.00  0.00    -0.245 N 
HETATM    3  O   UNL     1     -44.735  58.826 -53.552  1.00  0.00    -0.270 OA
HETATM    4  H   UNL     1     -42.446  56.619 -54.005  1.00  0.00     0.192 HD
ENDROOT
BRANCH   1   5
HETATM    5  C   UNL     1     -44.059  57.057 -52.064  1.00  0.00     0.227 C 
BRANCH   5   6
HETATM    6  N   UNL     1     -43.595  55.677 -52.132  1.00  0.00    -0.349 N 
HETATM    7  C   UNL     1     -42.257  55.388 -52.019  1.00  0.00     0.241 C 
HETATM    8  O   UNL     1     -41.406  56.212 -51.715  1.00  0.00    -0.269 OA
HETATM    9  H   UNL     1     -44.241  54.967 -52.451  1.00  0.00     0.163 HD
BRANCH   7  10
HETATM   10  C   UNL     1     -41.935  53.981 -52.356  1.00  0.00     0.075 C 
HETATM   11  C   UNL     1     -40.651  53.614 -52.483  1.00  0.00     0.020 C 
BRANCH  11  12
HETATM   12  C   UNL     1     -40.268  52.247 -52.852  1.00  0.00    -0.003 A 
HETATM   13  C   UNL     1     -39.933  51.276 -51.890  1.00  0.00     0.078 A 
HETATM   14  C   UNL     1     -39.560  49.994 -52.313  1.00  0.00     0.037 A 
HETATM   15  C   UNL     1     -39.542  49.674 -53.674  1.00  0.00     0.003 A 
HETATM   16  C   UNL     1     -39.891  50.630 -54.623  1.00  0.00     0.001 A 
HETATM   17  C   UNL     1     -40.249  51.914 -54.215  1.00  0.00     0.014 A 
BRANCH  13  18
HETATM   18  O   UNL     1     -39.973  51.677 -50.579  1.00  0.00    -0.355 OA
HETATM   19  C   UNL     1     -40.431  50.729 -49.625  1.00  0.00     0.210 C 
ENDBRANCH  13  18
ENDBRANCH  11  12
ENDBRANCH   7  10
ENDBRANCH   5   6
ENDBRANCH   1   5
BRANCH   2  20
HETATM   20  N   UNL     1     -42.770  58.132 -55.387  1.00  0.00    -0.166 NA
HETATM   21  C   UNL     1     -42.738  57.449 -56.483  1.00  0.00     0.157 A 
HETATM   22  C   UNL     1     -42.886  55.938 -56.677  1.00  0.00     0.277 A 
HETATM   23  C   UNL     1     -42.506  58.002 -57.811  1.00  0.00     0.028 A 
HETATM   24  O   UNL     1     -43.091  55.139 -55.786  1.00  0.00    -0.266 OA
HETATM   25  N   UNL     1     -42.721  55.721 -58.029  1.00  0.00    -0.321 N 
HETATM   26  C   UNL     1     -42.498  56.924 -58.695  1.00  0.00     0.048 A 
HETATM   27  H   UNL     1     -42.758  54.807 -58.455  1.00  0.00     0.169 HD
HETATM   28  C   UNL     1     -42.285  57.110 -60.046  1.00  0.00     0.032 A 
HETATM   29  C   UNL     1     -42.081  58.424 -60.489  1.00  0.00     0.021 A 
HETATM   30  C   UNL     1     -42.095  59.506 -59.582  1.00  0.00     0.012 A 
HETATM   31 BR   UNL     1     -41.818  61.260 -60.232  1.00  0.00    -0.051 Br
HETATM   32  C   UNL     1     -42.307  59.306 -58.218  1.00  0.00     0.035 A 
ENDBRANCH   2  20
TORSDOF 6
ENDMDL
MODEL 4
REMARK VINA RESULT:      -8.3      2.153      2.688
REMARK  6 active torsions:
REMARK  status: ('A' for Active; 'I' for Inactive)
REMARK    1  A    between atoms: O_2  and  C_3 
REMARK    2  A    between atoms: C_4  and  C_5 
REMARK    3  A    between atoms: C_6  and  C_7 
REMARK       I    between atoms: C_7  and  N_8 
REMARK    4  A    between atoms: N_8  and  C_9 
REMARK    5  A    between atoms: C_9  and  C_10 
REMARK       I    between atoms: C_10  and  N_11 
REMARK    6  A    between atoms: N_11  and  N_12 
ROOT
HETATM    1  C   UNL     1     -44.337  57.767 -52.469  1.00  0.00     0.255 C 
HETATM    2  N   UNL     1     -44.750  57.068 -53.592  1.00  0.00    -0.245 N 
HETATM    3  O   UNL     1     -43.882  58.911 -52.484  1.00  0.00    -0.270 OA
HETATM    4  H   UNL     1     -45.101  56.115 -53.491  1.00  0.00     0.192 HD
ENDROOT
BRANCH   1   5
HETATM    5  C   UNL     1     -44.310  56.924 -51.192  1.00  0.00     0.227 C 
BRANCH   5   6
HETATM    6  N   UNL     1     -43.790  55.570 -51.335  1.00  0.00    -0.349 N 
HETATM    7  C   UNL     1     -42.471  55.300 -51.060  1.00  0.00     0.241 C 
HETATM    8  O   UNL     1     -41.704  56.107 -50.553  1.00  0.00    -0.269 OA
HETATM    9  H   UNL     1     -44.357  54.884 -51.816  1.00  0.00     0.163 HD
BRANCH   7  10
HETATM   10  C   UNL     1     -42.052  53.946 -51.491  1.00  0.00     0.075 C 
HETATM   11  C   UNL     1     -40.811  53.764 -51.967  1.00  0.00     0.020 C 
BRANCH  11  12
HETATM   12  C   UNL     1     -40.348  52.456 -52.445  1.00  0.00    -0.003 A 
HETATM   13  C   UNL     1     -40.348  52.113 -53.810  1.00  0.00     0.078 A 
HETATM   14  C   UNL     1     -39.909  50.841 -54.195  1.00  0.00     0.037 A 
HETATM   15  C   UNL     1     -39.453  49.928 -53.238  1.00  0.00     0.003 A 
HETATM   16  C   UNL     1     -39.437  50.276 -51.891  1.00  0.00     0.001 A 
HETATM   17  C   UNL     1     -39.887  51.533 -51.494  1.00  0.00     0.014 A 
BRANCH  13  18
HETATM   18  O   UNL     1     -40.815  53.066 -54.679  1.00  0.00    -0.355 OA
HETATM   19  C   UNL     1     -39.885  54.038 -55.135  1.00  0.00     0.210 C 
ENDBRANCH  13  18
ENDBRANCH  11  12
ENDBRANCH   7  10
ENDBRANCH   5   6
ENDBRANCH   1   5
BRANCH   2  20
HETATM   20  N   UNL     1     -44.703  57.657 -54.821  1.00  0.00    -0.166 NA
HETATM   21  C   UNL     1     -44.014  57.054 -55.733  1.00  0.00     0.157 A 
HETATM   22  C   UNL     1     -43.187  55.771 -55.620  1.00  0.00     0.277 A 
HETATM   23  C   UNL     1     -43.847  57.520 -57.104  1.00  0.00     0.028 A 
HETATM   24  O   UNL     1     -43.084  55.095 -54.617  1.00  0.00    -0.266 OA
HETATM   25  N   UNL     1     -42.611  55.593 -56.861  1.00  0.00    -0.321 N 
HETATM   26  C   UNL     1     -42.993  56.613 -57.730  1.00  0.00     0.048 A 
HETATM   27  H   UNL     1     -41.998  54.824 -57.085  1.00  0.00     0.169 HD
HETATM   28  C   UNL     1     -42.618  56.778 -59.048  1.00  0.00     0.032 A 
HETATM   29  C   UNL     1     -43.134  57.891 -59.727  1.00  0.00     0.021 A 
HETATM   30  C   UNL     1     -43.999  58.798 -59.080  1.00  0.00     0.012 A 
HETATM   31 BR   UNL     1     -44.670  60.282 -60.044  1.00  0.00    -0.051 Br
HETATM   32  C   UNL     1     -44.368  58.623 -57.747  1.00  0.00     0.035 A 
ENDBRANCH   2  20
TORSDOF 6
ENDMDL
MODEL 5
REMARK VINA RESULT:      -8.3      3.430      8.388
REMARK  6 active torsions:
REMARK  status: ('A' for Active; 'I' for Inactive)
REMARK    1  A    between atoms: O_2  and  C_3 
REMARK    2  A    between atoms: C_4  and  C_5 
REMARK    3  A    between atoms: C_6  and  C_7 
REMARK       I    between atoms: C_7  and  N_8 
REMARK    4  A    between atoms: N_8  and  C_9 
REMARK    5  A    between atoms: C_9  and  C_10 
REMARK       I    between atoms: C_10  and  N_11 
REMARK    6  A    between atoms: N_11  and  N_12 
ROOT
HETATM    1  C   UNL     1     -42.764  57.031 -51.917  1.00  0.00     0.255 C 
HETATM    2  N   UNL     1     -41.461  56.621 -52.147  1.00  0.00    -0.245 N 
HETATM    3  O   UNL     1     -43.675  56.293 -51.542  1.00  0.00    -0.270 OA
HETATM    4  H   UNL     1     -40.769  57.298 -52.473  1.00  0.00     0.192 HD
ENDROOT
BRANCH   1   5
HETATM    5  C   UNL     1     -43.043  58.471 -52.353  1.00  0.00     0.227 C 
BRANCH   5   6
HETATM    6  N   UNL     1     -42.994  58.722 -53.788  1.00  0.00    -0.349 N 
HETATM    7  C   UNL     1     -41.892  59.317 -54.351  1.00  0.00     0.241 C 
HETATM    8  O   UNL     1     -40.852  59.535 -53.745  1.00  0.00    -0.269 OA
HETATM    9  H   UNL     1     -43.849  58.629 -54.322  1.00  0.00     0.163 HD
BRANCH   7  10
HETATM   10  C   UNL     1     -42.106  59.723 -55.760  1.00  0.00     0.075 C 
HETATM   11  C   UNL     1     -42.188  58.779 -56.710  1.00  0.00     0.020 C 
BRANCH  11  12
HETATM   12  C   UNL     1     -42.361  59.117 -58.127  1.00  0.00    -0.003 A 
HETATM   13  C   UNL     1     -43.113  58.313 -59.004  1.00  0.00     0.078 A 
HETATM   14  C   UNL     1     -43.223  58.685 -60.349  1.00  0.00     0.037 A 
HETATM   15  C   UNL     1     -42.613  59.856 -60.813  1.00  0.00     0.003 A 
HETATM   16  C   UNL     1     -41.885  60.659 -59.940  1.00  0.00     0.001 A 
HETATM   17  C   UNL     1     -41.755  60.290 -58.603  1.00  0.00     0.014 A 
BRANCH  13  18
HETATM   18  O   UNL     1     -43.673  57.182 -58.466  1.00  0.00    -0.355 OA
HETATM   19  C   UNL     1     -43.138  55.934 -58.882  1.00  0.00     0.210 C 
ENDBRANCH  13  18
ENDBRANCH  11  12
ENDBRANCH   7  10
ENDBRANCH   5   6
ENDBRANCH   1   5
BRANCH   2  20
HETATM   20  N   UNL     1     -41.100  55.324 -51.924  1.00  0.00    -0.166 NA
HETATM   21  C   UNL     1     -40.822  54.607 -52.962  1.00  0.00     0.157 A 
HETATM   22  C   UNL     1     -40.881  54.996 -54.442  1.00  0.00     0.277 A 
HETATM   23  C   UNL     1     -40.415  53.208 -52.931  1.00  0.00     0.028 A 
HETATM   24  O   UNL     1     -41.186  56.094 -54.861  1.00  0.00    -0.266 OA
HETATM   25  N   UNL     1     -40.540  53.855 -55.137  1.00  0.00    -0.321 N 
HETATM   26  C   UNL     1     -40.267  52.807 -54.259  1.00  0.00     0.048 A 
HETATM   27  H   UNL     1     -40.502  53.807 -56.144  1.00  0.00     0.169 HD
HETATM   28  C   UNL     1     -39.899  51.517 -54.579  1.00  0.00     0.032 A 
HETATM   29  C   UNL     1     -39.677  50.631 -53.515  1.00  0.00     0.021 A 
HETATM   30  C   UNL     1     -39.827  51.052 -52.177  1.00  0.00     0.012 A 
HETATM   31 BR   UNL     1     -39.511  49.817 -50.779  1.00  0.00    -0.051 Br
HETATM   32  C   UNL     1     -40.203  52.358 -51.866  1.00  0.00     0.035 A 
ENDBRANCH   2  20
TORSDOF 6
ENDMDL
MODEL 6
REMARK VINA RESULT:      -8.2      3.532      4.101
REMARK  6 active torsions:
REMARK  status: ('A' for Active; 'I' for Inactive)
REMARK    1  A    between atoms: O_2  and  C_3 
REMARK    2  A    between atoms: C_4  and  C_5 
REMARK    3  A    between atoms: C_6  and  C_7 
REMARK       I    between atoms: C_7  and  N_8 
REMARK    4  A    between atoms: N_8  and  C_9 
REMARK    5  A    between atoms: C_9  and  C_10 
REMARK       I    between atoms: C_10  and  N_11 
REMARK    6  A    between atoms: N_11  and  N_12 
ROOT
HETATM    1  C   UNL     1     -43.518  57.282 -57.034  1.00  0.00     0.255 C 
HETATM    2  N   UNL     1     -43.504  57.576 -58.388  1.00  0.00    -0.245 N 
HETATM    3  O   UNL     1     -44.467  57.499 -56.280  1.00  0.00    -0.270 OA
HETATM    4  H   UNL     1     -42.668  57.376 -58.938  1.00  0.00     0.192 HD
ENDROOT
BRANCH   1   5
HETATM    5  C   UNL     1     -42.164  56.826 -56.488  1.00  0.00     0.227 C 
BRANCH   5   6
HETATM    6  N   UNL     1     -42.131  55.492 -55.900  1.00  0.00    -0.349 N 
HETATM    7  C   UNL     1     -42.103  55.334 -54.536  1.00  0.00     0.241 C 
HETATM    8  O   UNL     1     -42.250  56.253 -53.743  1.00  0.00    -0.269 OA
HETATM    9  H   UNL     1     -41.937  54.704 -56.505  1.00  0.00     0.163 HD
BRANCH   7  10
HETATM   10  C   UNL     1     -41.822  53.942 -54.117  1.00  0.00     0.075 C 
HETATM   11  C   UNL     1     -40.568  53.596 -53.788  1.00  0.00     0.020 C 
BRANCH  11  12
HETATM   12  C   UNL     1     -40.218  52.224 -53.401  1.00  0.00    -0.003 A 
HETATM   13  C   UNL     1     -39.787  51.899 -52.101  1.00  0.00     0.078 A 
HETATM   14  C   UNL     1     -39.452  50.572 -51.804  1.00  0.00     0.037 A 
HETATM   15  C   UNL     1     -39.567  49.577 -52.779  1.00  0.00     0.003 A 
HETATM   16  C   UNL     1     -40.010  49.897 -54.059  1.00  0.00     0.001 A 
HETATM   17  C   UNL     1     -40.331  51.217 -54.371  1.00  0.00     0.014 A 
BRANCH  13  18
HETATM   18  O   UNL     1     -39.700  52.937 -51.209  1.00  0.00    -0.355 OA
HETATM   19  C   UNL     1     -40.400  52.796 -49.980  1.00  0.00     0.210 C 
ENDBRANCH  13  18
ENDBRANCH  11  12
ENDBRANCH   7  10
ENDBRANCH   5   6
ENDBRANCH   1   5
BRANCH   2  20
HETATM   20  N   UNL     1     -44.607  58.112 -58.984  1.00  0.00    -0.166 NA
HETATM   21  C   UNL     1     -45.314  57.324 -59.726  1.00  0.00     0.157 A 
HETATM   22  C   UNL     1     -45.063  55.855 -60.075  1.00  0.00     0.277 A 
HETATM   23  C   UNL     1     -46.524  57.706 -60.442  1.00  0.00     0.028 A 
HETATM   24  O   UNL     1     -44.137  55.189 -59.660  1.00  0.00    -0.266 OA
HETATM   25  N   UNL     1     -46.080  55.503 -60.938  1.00  0.00    -0.321 N 
HETATM   26  C   UNL     1     -46.935  56.581 -61.156  1.00  0.00     0.048 A 
HETATM   27  H   UNL     1     -46.170  54.584 -61.347  1.00  0.00     0.169 HD
HETATM   28  C   UNL     1     -48.057  56.615 -61.958  1.00  0.00     0.032 A 
HETATM   29  C   UNL     1     -48.765  57.824 -62.021  1.00  0.00     0.021 A 
HETATM   30  C   UNL     1     -48.338  58.953 -61.290  1.00  0.00     0.012 A 
HETATM   31 BR   UNL     1     -49.331  60.558 -61.407  1.00  0.00    -0.051 Br
HETATM   32  C   UNL     1     -47.200  58.908 -60.485  1.00  0.00     0.035 A 
ENDBRANCH   2  20
TORSDOF 6
ENDMDL
MODEL 7
REMARK VINA RESULT:      -7.9      3.309      4.031
REMARK  6 active torsions:
REMARK  status: ('A' for Active; 'I' for Inactive)
REMARK    1  A    between atoms: O_2  and  C_3 
REMARK    2  A    between atoms: C_4  and  C_5 
REMARK    3  A    between atoms: C_6  and  C_7 
REMARK       I    between atoms: C_7  and  N_8 
REMARK    4  A    between atoms: N_8  and  C_9 
REMARK    5  A    between atoms: C_9  and  C_10 
REMARK       I    between atoms: C_10  and  N_11 
REMARK    6  A    between atoms: N_11  and  N_12 
ROOT
HETATM    1  C   UNL     1     -41.703  57.772 -50.825  1.00  0.00     0.255 C 
HETATM    2  N   UNL     1     -43.077  57.838 -50.989  1.00  0.00    -0.245 N 
HETATM    3  O   UNL     1     -40.886  58.382 -51.513  1.00  0.00    -0.270 OA
HETATM    4  H   UNL     1     -43.684  57.285 -50.382  1.00  0.00     0.192 HD
ENDROOT
BRANCH   1   5
HETATM    5  C   UNL     1     -41.253  56.711 -49.819  1.00  0.00     0.227 C 
BRANCH   5   6
HETATM    6  N   UNL     1     -41.163  55.348 -50.328  1.00  0.00    -0.349 N 
HETATM    7  C   UNL     1     -40.593  54.358 -49.565  1.00  0.00     0.241 C 
HETATM    8  O   UNL     1     -40.269  54.502 -48.395  1.00  0.00    -0.269 OA
HETATM    9  H   UNL     1     -41.348  55.187 -51.310  1.00  0.00     0.163 HD
BRANCH   7  10
HETATM   10  C   UNL     1     -40.358  53.105 -50.319  1.00  0.00     0.075 C 
HETATM   11  C   UNL     1     -40.269  53.150 -51.657  1.00  0.00     0.020 C 
BRANCH  11  12
HETATM   12  C   UNL     1     -40.075  51.939 -52.464  1.00  0.00    -0.003 A 
HETATM   13  C   UNL     1     -40.438  51.876 -53.822  1.00  0.00     0.078 A 
HETATM   14  C   UNL     1     -40.241  50.684 -54.528  1.00  0.00     0.037 A 
HETATM   15  C   UNL     1     -39.668  49.574 -53.899  1.00  0.00     0.003 A 
HETATM   16  C   UNL     1     -39.292  49.644 -52.560  1.00  0.00     0.001 A 
HETATM   17  C   UNL     1     -39.499  50.821 -51.843  1.00  0.00     0.014 A 
BRANCH  13  18
HETATM   18  O   UNL     1     -40.997  53.009 -54.357  1.00  0.00    -0.355 OA
HETATM   19  C   UNL     1     -40.142  53.861 -55.106  1.00  0.00     0.210 C 
ENDBRANCH  13  18
ENDBRANCH  11  12
ENDBRANCH   7  10
ENDBRANCH   5   6
ENDBRANCH   1   5
BRANCH   2  20
HETATM   20  N   UNL     1     -43.616  58.650 -51.943  1.00  0.00    -0.166 NA
HETATM   21  C   UNL     1     -44.089  58.077 -53.001  1.00  0.00     0.157 A 
HETATM   22  C   UNL     1     -44.092  56.590 -53.366  1.00  0.00     0.277 A 
HETATM   23  C   UNL     1     -44.705  58.768 -54.126  1.00  0.00     0.028 A 
HETATM   24  O   UNL     1     -43.657  55.700 -52.665  1.00  0.00    -0.266 OA
HETATM   25  N   UNL     1     -44.665  56.520 -54.619  1.00  0.00    -0.321 N 
HETATM   26  C   UNL     1     -45.023  57.790 -55.068  1.00  0.00     0.048 A 
HETATM   27  H   UNL     1     -44.793  55.656 -55.125  1.00  0.00     0.169 HD
HETATM   28  C   UNL     1     -45.613  58.121 -56.270  1.00  0.00     0.032 A 
HETATM   29  C   UNL     1     -45.882  59.477 -56.501  1.00  0.00     0.021 A 
HETATM   30  C   UNL     1     -45.557  60.455 -55.537  1.00  0.00     0.012 A 
HETATM   31 BR   UNL     1     -45.944  62.272 -55.897  1.00  0.00    -0.051 Br
HETATM   32  C   UNL     1     -44.957  60.109 -54.327  1.00  0.00     0.035 A 
ENDBRANCH   2  20
TORSDOF 6
ENDMDL
MODEL 8
REMARK VINA RESULT:      -7.8      6.847     10.220
REMARK  6 active torsions:
REMARK  status: ('A' for Active; 'I' for Inactive)
REMARK    1  A    between atoms: O_2  and  C_3 
REMARK    2  A    between atoms: C_4  and  C_5 
REMARK    3  A    between atoms: C_6  and  C_7 
REMARK       I    between atoms: C_7  and  N_8 
REMARK    4  A    between atoms: N_8  and  C_9 
REMARK    5  A    between atoms: C_9  and  C_10 
REMARK       I    between atoms: C_10  and  N_11 
REMARK    6  A    between atoms: N_11  and  N_12 
ROOT
HETATM    1  C   UNL     1     -43.361  58.978 -51.054  1.00  0.00     0.255 C 
HETATM    2  N   UNL     1     -43.916  57.709 -51.042  1.00  0.00    -0.245 N 
HETATM    3  O   UNL     1     -42.165  59.218 -51.221  1.00  0.00    -0.270 OA
HETATM    4  H   UNL     1     -44.919  57.599 -50.880  1.00  0.00     0.192 HD
ENDROOT
BRANCH   1   5
HETATM    5  C   UNL     1     -44.338  60.083 -50.647  1.00  0.00     0.227 C 
BRANCH   5   6
HETATM    6  N   UNL     1     -44.144  60.647 -49.317  1.00  0.00    -0.349 N 
HETATM    7  C   UNL     1     -45.177  61.286 -48.676  1.00  0.00     0.241 C 
HETATM    8  O   UNL     1     -46.328  61.300 -49.088  1.00  0.00    -0.269 OA
HETATM    9  H   UNL     1     -43.200  60.728 -48.961  1.00  0.00     0.163 HD
BRANCH   7  10
HETATM   10  C   UNL     1     -44.747  62.009 -47.457  1.00  0.00     0.075 C 
HETATM   11  C   UNL     1     -45.256  61.653 -46.268  1.00  0.00     0.020 C 
BRANCH  11  12
HETATM   12  C   UNL     1     -44.899  62.354 -45.029  1.00  0.00    -0.003 A 
HETATM   13  C   UNL     1     -45.509  63.565 -44.651  1.00  0.00     0.078 A 
HETATM   14  C   UNL     1     -45.108  64.191 -43.464  1.00  0.00     0.037 A 
HETATM   15  C   UNL     1     -44.131  63.609 -42.651  1.00  0.00     0.003 A 
HETATM   16  C   UNL     1     -43.542  62.403 -43.018  1.00  0.00     0.001 A 
HETATM   17  C   UNL     1     -43.921  61.779 -44.205  1.00  0.00     0.014 A 
BRANCH  13  18
HETATM   18  O   UNL     1     -46.455  64.067 -45.509  1.00  0.00    -0.355 OA
HETATM   19  C   UNL     1     -47.816  63.811 -45.193  1.00  0.00     0.210 C 
ENDBRANCH  13  18
ENDBRANCH  11  12
ENDBRANCH   7  10
ENDBRANCH   5   6
ENDBRANCH   1   5
BRANCH   2  20
HETATM   20  N   UNL     1     -43.132  56.615 -51.261  1.00  0.00    -0.166 NA
HETATM   21  C   UNL     1     -43.184  56.084 -52.438  1.00  0.00     0.157 A 
HETATM   22  C   UNL     1     -44.050  56.486 -53.635  1.00  0.00     0.277 A 
HETATM   23  C   UNL     1     -42.422  54.919 -52.868  1.00  0.00     0.028 A 
HETATM   24  O   UNL     1     -44.823  57.422 -53.652  1.00  0.00    -0.266 OA
HETATM   25  N   UNL     1     -43.763  55.567 -54.623  1.00  0.00    -0.321 N 
HETATM   26  C   UNL     1     -42.813  54.649 -54.179  1.00  0.00     0.048 A 
HETATM   27  H   UNL     1     -44.196  55.576 -55.534  1.00  0.00     0.169 HD
HETATM   28  C   UNL     1     -42.282  53.585 -54.878  1.00  0.00     0.032 A 
HETATM   29  C   UNL     1     -41.333  52.793 -54.218  1.00  0.00     0.021 A 
HETATM   30  C   UNL     1     -40.945  53.080 -52.892  1.00  0.00     0.012 A 
HETATM   31 BR   UNL     1     -39.658  51.981 -52.047  1.00  0.00    -0.051 Br
HETATM   32  C   UNL     1     -41.492  54.156 -52.193  1.00  0.00     0.035 A 
ENDBRANCH   2  20
TORSDOF 6
ENDMDL
MODEL 9
REMARK VINA RESULT:      -7.8      3.622      9.804
REMARK  6 active torsions:
REMARK  status: ('A' for Active; 'I' for Inactive)
REMARK    1  A    between atoms: O_2  and  C_3 
REMARK    2  A    between atoms: C_4  and  C_5 
REMARK    3  A    between atoms: C_6  and  C_7 
REMARK       I    between atoms: C_7  and  N_8 
REMARK    4  A    between atoms: N_8  and  C_9 
REMARK    5  A    between atoms: C_9  and  C_10 
REMARK       I    between atoms: C_10  and  N_11 
REMARK    6  A    between atoms: N_11  and  N_12 
ROOT
HETATM    1  C   UNL     1     -43.413  56.630 -56.289  1.00  0.00     0.255 C 
HETATM    2  N   UNL     1     -43.726  55.705 -55.307  1.00  0.00    -0.245 N 
HETATM    3  O   UNL     1     -42.408  56.584 -56.999  1.00  0.00    -0.270 OA
HETATM    4  H   UNL     1     -44.575  55.828 -54.752  1.00  0.00     0.192 HD
ENDROOT
BRANCH   1   5
HETATM    5  C   UNL     1     -44.335  57.850 -56.305  1.00  0.00     0.227 C 
BRANCH   5   6
HETATM    6  N   UNL     1     -43.769  59.069 -56.871  1.00  0.00    -0.349 N 
HETATM    7  C   UNL     1     -44.221  59.551 -58.074  1.00  0.00     0.241 C 
HETATM    8  O   UNL     1     -45.193  59.102 -58.665  1.00  0.00    -0.269 OA
HETATM    9  H   UNL     1     -42.920  59.439 -56.463  1.00  0.00     0.163 HD
BRANCH   7  10
HETATM   10  C   UNL     1     -43.378  60.642 -58.618  1.00  0.00     0.075 C 
HETATM   11  C   UNL     1     -42.223  60.337 -59.229  1.00  0.00     0.020 C 
BRANCH  11  12
HETATM   12  C   UNL     1     -41.326  61.373 -59.754  1.00  0.00    -0.003 A 
HETATM   13  C   UNL     1     -41.308  61.728 -61.116  1.00  0.00     0.078 A 
HETATM   14  C   UNL     1     -40.414  62.713 -61.554  1.00  0.00     0.037 A 
HETATM   15  C   UNL     1     -39.566  63.355 -60.646  1.00  0.00     0.003 A 
HETATM   16  C   UNL     1     -39.599  63.015 -59.297  1.00  0.00     0.001 A 
HETATM   17  C   UNL     1     -40.472  62.024 -58.852  1.00  0.00     0.014 A 
BRANCH  13  18
HETATM   18  O   UNL     1     -42.170  61.045 -61.937  1.00  0.00    -0.355 OA
HETATM   19  C   UNL     1     -42.333  61.539 -63.259  1.00  0.00     0.210 C 
ENDBRANCH  13  18
ENDBRANCH  11  12
ENDBRANCH   7  10
ENDBRANCH   5   6
ENDBRANCH   1   5
BRANCH   2  20
HETATM   20  N   UNL     1     -42.916  54.629 -55.093  1.00  0.00    -0.166 NA
HETATM   21  C   UNL     1     -42.300  54.576 -53.959  1.00  0.00     0.157 A 
HETATM   22  C   UNL     1     -42.313  55.589 -52.811  1.00  0.00     0.277 A 
HETATM   23  C   UNL     1     -41.397  53.510 -53.543  1.00  0.00     0.028 A 
HETATM   24  O   UNL     1     -42.958  56.617 -52.798  1.00  0.00    -0.266 OA
HETATM   25  N   UNL     1     -41.450  55.082 -51.862  1.00  0.00    -0.321 N 
HETATM   26  C   UNL     1     -40.912  53.868 -52.285  1.00  0.00     0.048 A 
HETATM   27  H   UNL     1     -41.249  55.545 -50.988  1.00  0.00     0.169 HD
HETATM   28  C   UNL     1     -40.012  53.068 -51.613  1.00  0.00     0.032 A 
HETATM   29  C   UNL     1     -39.610  51.882 -52.244  1.00  0.00     0.021 A 
HETATM   30  C   UNL     1     -40.112  51.532 -53.516  1.00  0.00     0.012 A 
HETATM   31 BR   UNL     1     -39.541  49.919 -54.323  1.00  0.00    -0.051 Br
HETATM   32  C   UNL     1     -41.019  52.351 -54.188  1.00  0.00     0.035 A 
ENDBRANCH   2  20
TORSDOF 6
ENDMDL
MODEL 10
REMARK VINA RESULT:      -7.8      5.884      9.813
REMARK  6 active torsions:
REMARK  status: ('A' for Active; 'I' for Inactive)
REMARK    1  A    between atoms: O_2  and  C_3 
REMARK    2  A    between atoms: C_4  and  C_5 
REMARK    3  A    between atoms: C_6  and  C_7 
REMARK       I    between atoms: C_7  and  N_8 
REMARK    4  A    between atoms: N_8  and  C_9 
REMARK    5  A    between atoms: C_9  and  C_10 
REMARK       I    between atoms: C_10  and  N_11 
REMARK    6  A    between atoms: N_11  and  N_12 
ROOT
HETATM    1  C   UNL     1     -41.379  57.756 -51.341  1.00  0.00     0.255 C 
HETATM    2  N   UNL     1     -41.785  56.749 -52.201  1.00  0.00    -0.245 N 
HETATM    3  O   UNL     1     -40.663  57.587 -50.354  1.00  0.00    -0.270 OA
HETATM    4  H   UNL     1     -42.394  56.975 -52.989  1.00  0.00     0.192 HD
ENDROOT
BRANCH   1   5
HETATM    5  C   UNL     1     -42.054  59.103 -51.605  1.00  0.00     0.227 C 
BRANCH   5   6
HETATM    6  N   UNL     1     -42.661  59.749 -50.447  1.00  0.00    -0.349 N 
HETATM    7  C   UNL     1     -43.823  60.468 -50.583  1.00  0.00     0.241 C 
HETATM    8  O   UNL     1     -44.490  60.496 -51.608  1.00  0.00    -0.269 OA
HETATM    9  H   UNL     1     -42.119  59.819 -49.596  1.00  0.00     0.163 HD
BRANCH   7  10
HETATM   10  C   UNL     1     -44.164  61.257 -49.376  1.00  0.00     0.075 C 
HETATM   11  C   UNL     1     -45.420  61.700 -49.215  1.00  0.00     0.020 C 
BRANCH  11  12
HETATM   12  C   UNL     1     -45.812  62.517 -48.061  1.00  0.00    -0.003 A 
HETATM   13  C   UNL     1     -46.530  61.984 -46.974  1.00  0.00     0.078 A 
HETATM   14  C   UNL     1     -46.887  62.825 -45.913  1.00  0.00     0.037 A 
HETATM   15  C   UNL     1     -46.516  64.173 -45.920  1.00  0.00     0.003 A 
HETATM   16  C   UNL     1     -45.791  64.694 -46.988  1.00  0.00     0.001 A 
HETATM   17  C   UNL     1     -45.444  63.871 -48.057  1.00  0.00     0.014 A 
BRANCH  13  18
HETATM   18  O   UNL     1     -46.855  60.654 -47.050  1.00  0.00    -0.355 OA
HETATM   19  C   UNL     1     -46.496  59.834 -45.947  1.00  0.00     0.210 C 
ENDBRANCH  13  18
ENDBRANCH  11  12
ENDBRANCH   7  10
ENDBRANCH   5   6
ENDBRANCH   1   5
BRANCH   2  20
HETATM   20  N   UNL     1     -41.361  55.468 -52.006  1.00  0.00    -0.166 NA
HETATM   21  C   UNL     1     -40.987  54.809 -53.053  1.00  0.00     0.157 A 
HETATM   22  C   UNL     1     -40.992  55.252 -54.518  1.00  0.00     0.277 A 
HETATM   23  C   UNL     1     -40.501  53.435 -53.051  1.00  0.00     0.028 A 
HETATM   24  O   UNL     1     -41.339  56.347 -54.913  1.00  0.00    -0.266 OA
HETATM   25  N   UNL     1     -40.549  54.161 -55.235  1.00  0.00    -0.321 N 
HETATM   26  C   UNL     1     -40.261  53.097 -54.382  1.00  0.00     0.048 A 
HETATM   27  H   UNL     1     -40.455  54.155 -56.240  1.00  0.00     0.169 HD
HETATM   28  C   UNL     1     -39.801  51.843 -54.729  1.00  0.00     0.032 A 
HETATM   29  C   UNL     1     -39.582  50.929 -53.688  1.00  0.00     0.021 A 
HETATM   30  C   UNL     1     -39.826  51.288 -52.345  1.00  0.00     0.012 A 
HETATM   31 BR   UNL     1     -39.512  50.019 -50.978  1.00  0.00    -0.051 Br
HETATM   32  C   UNL     1     -40.295  52.557 -52.007  1.00  0.00     0.035 A 
ENDBRANCH   2  20
TORSDOF 6
ENDMDL
