MODEL 1
REMARK VINA RESULT:      -8.0      0.000      0.000
REMARK  5 active torsions:
REMARK  status: ('A' for Active; 'I' for Inactive)
REMARK    1  A    between atoms: C_2  and  C_3 
REMARK    2  A    between atoms: C_3  and  N_4 
REMARK    3  A    between atoms: C_3  and  C_18 
REMARK    4  A    between atoms: N_4  and  C_7 
REMARK    5  A    between atoms: C_7  and  C_8 
ROOT
HETATM    1  N   UNL     1     -40.596  52.874 -51.288  1.00  0.00    -0.056 N 
HETATM    2  H   UNL     1     -41.591  52.640 -51.393  1.00  0.00     0.278 HD
HETATM    3  H   UNL     1     -40.216  52.097 -50.736  1.00  0.00     0.278 HD
ENDROOT
BRANCH   1   4
HETATM    4  C   UNL     1     -39.957  52.825 -52.649  1.00  0.00     0.292 C 
BRANCH   4   5
HETATM    5  C   UNL     1     -40.772  53.544 -53.710  1.00  0.00    -0.020 A 
HETATM    6  C   UNL     1     -40.150  54.510 -54.522  1.00  0.00     0.011 A 
HETATM    7  C   UNL     1     -40.879  55.207 -55.491  1.00  0.00     0.024 A 
HETATM    8  C   UNL     1     -42.235  54.949 -55.659  1.00  0.00     0.034 A 
HETATM    9  C   UNL     1     -42.871  53.996 -54.868  1.00  0.00     0.024 A 
HETATM   10 CL   UNL     1     -43.130  55.807 -56.849  1.00  0.00    -0.084 Cl
HETATM   11  C   UNL     1     -42.148  53.298 -53.897  1.00  0.00     0.011 A 
ENDBRANCH   4   5
BRANCH   4  12
HETATM   12  C   UNL     1     -39.797  51.410 -53.133  1.00  0.00     0.190 A 
HETATM   13  N   UNL     1     -39.618  50.367 -52.315  1.00  0.00    -0.109 NA
HETATM   14  O   UNL     1     -39.584  49.279 -53.193  1.00  0.00    -0.205 OA
HETATM   15  C   UNL     1     -39.787  49.783 -54.439  1.00  0.00     0.288 A 
HETATM   16  N   UNL     1     -39.955  51.086 -54.465  1.00  0.00    -0.215 NA
ENDBRANCH   4  12
ENDBRANCH   1   4
BRANCH   1  17
HETATM   17  C   UNL     1     -40.437  54.143 -50.543  1.00  0.00     0.272 C 
BRANCH  17  18
HETATM   18  C   UNL     1     -41.683  54.973 -50.646  1.00  0.00    -0.030 A 
HETATM   19  C   UNL     1     -41.605  56.324 -51.021  1.00  0.00     0.048 A 
HETATM   20  C   UNL     1     -42.767  57.084 -51.163  1.00  0.00     0.102 A 
HETATM   21  C   UNL     1     -44.014  56.512 -50.911  1.00  0.00     0.102 A 
HETATM   22  O   UNL     1     -42.598  58.389 -51.545  1.00  0.00    -0.346 OA
HETATM   23  O   UNL     1     -45.189  57.209 -50.997  1.00  0.00    -0.346 OA
HETATM   24  C   UNL     1     -44.105  55.168 -50.561  1.00  0.00     0.040 A 
HETATM   25  C   UNL     1     -44.959  58.623 -50.988  1.00  0.00     0.202 C 
HETATM   26  C   UNL     1     -43.839  58.988 -51.949  1.00  0.00     0.202 C 
HETATM   27  C   UNL     1     -42.946  54.398 -50.430  1.00  0.00     0.012 A 
ENDBRANCH  17  18
ENDBRANCH   1  17
TORSDOF 5
ENDMDL
MODEL 2
REMARK VINA RESULT:      -7.8      3.358      7.297
REMARK  5 active torsions:
REMARK  status: ('A' for Active; 'I' for Inactive)
REMARK    1  A    between atoms: C_2  and  C_3 
REMARK    2  A    between atoms: C_3  and  N_4 
REMARK    3  A    between atoms: C_3  and  C_18 
REMARK    4  A    between atoms: N_4  and  C_7 
REMARK    5  A    between atoms: C_7  and  C_8 
ROOT
HETATM    1  N   UNL     1     -43.902  56.076 -52.926  1.00  0.00    -0.056 N 
HETATM    2  H   UNL     1     -43.613  55.707 -52.013  1.00  0.00     0.278 HD
HETATM    3  H   UNL     1     -44.903  55.851 -52.978  1.00  0.00     0.278 HD
ENDROOT
BRANCH   1   4
HETATM    4  C   UNL     1     -43.771  57.574 -52.890  1.00  0.00     0.292 C 
BRANCH   4   5
HETATM    5  C   UNL     1     -42.425  58.035 -52.362  1.00  0.00    -0.020 A 
HETATM    6  C   UNL     1     -42.170  57.986 -50.978  1.00  0.00     0.011 A 
HETATM    7  C   UNL     1     -40.949  58.427 -50.459  1.00  0.00     0.024 A 
HETATM    8  C   UNL     1     -39.969  58.922 -51.313  1.00  0.00     0.034 A 
HETATM    9  C   UNL     1     -40.197  58.978 -52.686  1.00  0.00     0.024 A 
HETATM   10 CL   UNL     1     -38.469  59.463 -50.674  1.00  0.00    -0.084 Cl
HETATM   11  C   UNL     1     -41.417  58.540 -53.209  1.00  0.00     0.011 A 
ENDBRANCH   4   5
BRANCH   4  12
HETATM   12  C   UNL     1     -44.807  58.197 -51.995  1.00  0.00     0.190 A 
HETATM   13  N   UNL     1     -45.390  57.551 -50.979  1.00  0.00    -0.109 NA
HETATM   14  O   UNL     1     -46.215  58.528 -50.414  1.00  0.00    -0.205 OA
HETATM   15  C   UNL     1     -46.008  59.667 -51.127  1.00  0.00     0.288 A 
HETATM   16  N   UNL     1     -45.129  59.535 -52.095  1.00  0.00    -0.215 NA
ENDBRANCH   4  12
ENDBRANCH   1   4
BRANCH   1  17
HETATM   17  C   UNL     1     -43.177  55.388 -54.018  1.00  0.00     0.272 C 
BRANCH  17  18
HETATM   18  C   UNL     1     -42.198  54.399 -53.456  1.00  0.00    -0.030 A 
HETATM   19  C   UNL     1     -41.876  53.236 -54.172  1.00  0.00     0.048 A 
HETATM   20  C   UNL     1     -40.930  52.339 -53.673  1.00  0.00     0.102 A 
HETATM   21  C   UNL     1     -40.315  52.581 -52.445  1.00  0.00     0.102 A 
HETATM   22  O   UNL     1     -40.667  51.238 -54.445  1.00  0.00    -0.346 OA
HETATM   23  O   UNL     1     -39.406  51.727 -51.880  1.00  0.00    -0.346 OA
HETATM   24  C   UNL     1     -40.610  53.742 -51.736  1.00  0.00     0.040 A 
HETATM   25  C   UNL     1     -39.463  50.430 -52.486  1.00  0.00     0.202 C 
HETATM   26  C   UNL     1     -39.488  50.549 -54.002  1.00  0.00     0.202 C 
HETATM   27  C   UNL     1     -41.547  54.650 -52.237  1.00  0.00     0.012 A 
ENDBRANCH  17  18
ENDBRANCH   1  17
TORSDOF 5
ENDMDL
MODEL 3
REMARK VINA RESULT:      -7.5      3.370      4.985
REMARK  5 active torsions:
REMARK  status: ('A' for Active; 'I' for Inactive)
REMARK    1  A    between atoms: C_2  and  C_3 
REMARK    2  A    between atoms: C_3  and  N_4 
REMARK    3  A    between atoms: C_3  and  C_18 
REMARK    4  A    between atoms: N_4  and  C_7 
REMARK    5  A    between atoms: C_7  and  C_8 
ROOT
HETATM    1  N   UNL     1     -42.482  55.073 -51.644  1.00  0.00    -0.056 N 
HETATM    2  H   UNL     1     -42.779  54.590 -52.501  1.00  0.00     0.278 HD
HETATM    3  H   UNL     1     -43.047  54.638 -50.906  1.00  0.00     0.278 HD
ENDROOT
BRANCH   1   4
HETATM    4  C   UNL     1     -41.043  54.724 -51.385  1.00  0.00     0.292 C 
BRANCH   4   5
HETATM    5  C   UNL     1     -40.584  53.500 -52.158  1.00  0.00    -0.020 A 
HETATM    6  C   UNL     1     -40.768  53.453 -53.552  1.00  0.00     0.011 A 
HETATM    7  C   UNL     1     -40.379  52.330 -54.289  1.00  0.00     0.024 A 
HETATM    8  C   UNL     1     -39.803  51.240 -53.642  1.00  0.00     0.034 A 
HETATM    9  C   UNL     1     -39.610  51.265 -52.264  1.00  0.00     0.024 A 
HETATM   10 CL   UNL     1     -39.327  49.861 -54.548  1.00  0.00    -0.084 Cl
HETATM   11  C   UNL     1     -39.998  52.385 -51.523  1.00  0.00     0.011 A 
ENDBRANCH   4   5
BRANCH   4  12
HETATM   12  C   UNL     1     -40.802  54.416 -49.933  1.00  0.00     0.190 A 
HETATM   13  N   UNL     1     -41.768  54.038 -49.089  1.00  0.00    -0.109 NA
HETATM   14  O   UNL     1     -41.075  53.810 -47.896  1.00  0.00    -0.205 OA
HETATM   15  C   UNL     1     -39.761  54.036 -48.164  1.00  0.00     0.288 A 
HETATM   16  N   UNL     1     -39.525  54.383 -49.410  1.00  0.00    -0.215 NA
ENDBRANCH   4  12
ENDBRANCH   1   4
BRANCH   1  17
HETATM   17  C   UNL     1     -42.795  56.517 -51.728  1.00  0.00     0.272 C 
BRANCH  17  18
HETATM   18  C   UNL     1     -43.295  56.868 -53.098  1.00  0.00    -0.030 A 
HETATM   19  C   UNL     1     -42.661  56.349 -54.238  1.00  0.00     0.048 A 
HETATM   20  C   UNL     1     -43.154  56.637 -55.512  1.00  0.00     0.102 A 
HETATM   21  C   UNL     1     -44.268  57.462 -55.662  1.00  0.00     0.102 A 
HETATM   22  O   UNL     1     -42.482  56.077 -56.567  1.00  0.00    -0.346 OA
HETATM   23  O   UNL     1     -44.782  57.814 -56.881  1.00  0.00    -0.346 OA
HETATM   24  C   UNL     1     -44.918  57.965 -54.538  1.00  0.00     0.040 A 
HETATM   25  C   UNL     1     -43.842  57.565 -57.935  1.00  0.00     0.202 C 
HETATM   26  C   UNL     1     -43.230  56.182 -57.788  1.00  0.00     0.202 C 
HETATM   27  C   UNL     1     -44.436  57.670 -53.260  1.00  0.00     0.012 A 
ENDBRANCH  17  18
ENDBRANCH   1  17
TORSDOF 5
ENDMDL
MODEL 4
REMARK VINA RESULT:      -7.4      4.087      6.600
REMARK  5 active torsions:
REMARK  status: ('A' for Active; 'I' for Inactive)
REMARK    1  A    between atoms: C_2  and  C_3 
REMARK    2  A    between atoms: C_3  and  N_4 
REMARK    3  A    between atoms: C_3  and  C_18 
REMARK    4  A    between atoms: N_4  and  C_7 
REMARK    5  A    between atoms: C_7  and  C_8 
ROOT
HETATM    1  N   UNL     1     -41.600  55.337 -54.903  1.00  0.00    -0.056 N 
HETATM    2  H   UNL     1     -41.026  54.901 -55.634  1.00  0.00     0.278 HD
HETATM    3  H   UNL     1     -42.460  54.776 -54.896  1.00  0.00     0.278 HD
ENDROOT
BRANCH   1   4
HETATM    4  C   UNL     1     -40.910  55.132 -53.582  1.00  0.00     0.292 C 
BRANCH   4   5
HETATM    5  C   UNL     1     -40.514  53.685 -53.342  1.00  0.00    -0.020 A 
HETATM    6  C   UNL     1     -40.605  52.759 -54.398  1.00  0.00     0.011 A 
HETATM    7  C   UNL     1     -40.271  51.416 -54.202  1.00  0.00     0.024 A 
HETATM    8  C   UNL     1     -39.842  50.981 -52.951  1.00  0.00     0.034 A 
HETATM    9  C   UNL     1     -39.742  51.880 -51.893  1.00  0.00     0.024 A 
HETATM   10 CL   UNL     1     -39.433  49.330 -52.712  1.00  0.00    -0.084 Cl
HETATM   11  C   UNL     1     -40.077  53.224 -52.083  1.00  0.00     0.011 A 
ENDBRANCH   4   5
BRANCH   4  12
HETATM   12  C   UNL     1     -41.796  55.519 -52.430  1.00  0.00     0.190 A 
HETATM   13  N   UNL     1     -41.473  56.460 -51.536  1.00  0.00    -0.109 NA
HETATM   14  O   UNL     1     -42.602  56.513 -50.711  1.00  0.00    -0.205 OA
HETATM   15  C   UNL     1     -43.495  55.626 -51.224  1.00  0.00     0.288 A 
HETATM   16  N   UNL     1     -43.069  55.004 -52.300  1.00  0.00    -0.215 NA
ENDBRANCH   4  12
ENDBRANCH   1   4
BRANCH   1  17
HETATM   17  C   UNL     1     -41.918  56.738 -55.257  1.00  0.00     0.272 C 
BRANCH  17  18
HETATM   18  C   UNL     1     -42.753  56.788 -56.503  1.00  0.00    -0.030 A 
HETATM   19  C   UNL     1     -42.937  55.633 -57.279  1.00  0.00     0.048 A 
HETATM   20  C   UNL     1     -43.752  55.667 -58.412  1.00  0.00     0.102 A 
HETATM   21  C   UNL     1     -44.372  56.856 -58.794  1.00  0.00     0.102 A 
HETATM   22  O   UNL     1     -43.886  54.491 -59.102  1.00  0.00    -0.346 OA
HETATM   23  O   UNL     1     -45.154  56.969 -59.912  1.00  0.00    -0.346 OA
HETATM   24  C   UNL     1     -44.215  58.003 -58.020  1.00  0.00     0.040 A 
HETATM   25  C   UNL     1     -44.943  55.872 -60.809  1.00  0.00     0.202 C 
HETATM   26  C   UNL     1     -44.960  54.553 -60.053  1.00  0.00     0.202 C 
HETATM   27  C   UNL     1     -43.410  57.971 -56.877  1.00  0.00     0.012 A 
ENDBRANCH  17  18
ENDBRANCH   1  17
TORSDOF 5
ENDMDL
MODEL 5
REMARK VINA RESULT:      -7.4      3.597      5.942
REMARK  5 active torsions:
REMARK  status: ('A' for Active; 'I' for Inactive)
REMARK    1  A    between atoms: C_2  and  C_3 
REMARK    2  A    between atoms: C_3  and  N_4 
REMARK    3  A    between atoms: C_3  and  C_18 
REMARK    4  A    between atoms: N_4  and  C_7 
REMARK    5  A    between atoms: C_7  and  C_8 
ROOT
HETATM    1  N   UNL     1     -42.722  55.427 -53.190  1.00  0.00    -0.056 N 
HETATM    2  H   UNL     1     -42.819  54.860 -54.040  1.00  0.00     0.278 HD
HETATM    3  H   UNL     1     -43.480  55.095 -52.583  1.00  0.00     0.278 HD
ENDROOT
BRANCH   1   4
HETATM    4  C   UNL     1     -41.418  55.066 -52.533  1.00  0.00     0.292 C 
BRANCH   4   5
HETATM    5  C   UNL     1     -40.889  53.713 -52.975  1.00  0.00    -0.020 A 
HETATM    6  C   UNL     1     -41.343  53.155 -54.185  1.00  0.00     0.011 A 
HETATM    7  C   UNL     1     -40.894  51.900 -54.607  1.00  0.00     0.024 A 
HETATM    8  C   UNL     1     -39.988  51.188 -53.828  1.00  0.00     0.034 A 
HETATM    9  C   UNL     1     -39.524  51.721 -52.628  1.00  0.00     0.024 A 
HETATM   10 CL   UNL     1     -39.437  49.646 -54.347  1.00  0.00    -0.084 Cl
HETATM   11  C   UNL     1     -39.971  52.975 -52.201  1.00  0.00     0.011 A 
ENDBRANCH   4   5
BRANCH   4  12
HETATM   12  C   UNL     1     -41.555  54.993 -51.037  1.00  0.00     0.190 A 
HETATM   13  N   UNL     1     -42.457  54.227 -50.416  1.00  0.00    -0.109 NA
HETATM   14  O   UNL     1     -42.172  54.435 -49.063  1.00  0.00    -0.205 OA
HETATM   15  C   UNL     1     -41.102  55.273 -49.019  1.00  0.00     0.288 A 
HETATM   16  N   UNL     1     -40.657  55.628 -50.204  1.00  0.00    -0.215 NA
ENDBRANCH   4  12
ENDBRANCH   1   4
BRANCH   1  17
HETATM   17  C   UNL     1     -42.918  56.861 -53.497  1.00  0.00     0.272 C 
BRANCH  17  18
HETATM   18  C   UNL     1     -42.782  57.106 -54.971  1.00  0.00    -0.030 A 
HETATM   19  C   UNL     1     -43.057  56.080 -55.889  1.00  0.00     0.048 A 
HETATM   20  C   UNL     1     -42.975  56.320 -57.261  1.00  0.00     0.102 A 
HETATM   21  C   UNL     1     -42.598  57.578 -57.731  1.00  0.00     0.102 A 
HETATM   22  O   UNL     1     -43.274  55.266 -58.083  1.00  0.00    -0.346 OA
HETATM   23  O   UNL     1     -42.464  57.872 -59.062  1.00  0.00    -0.346 OA
HETATM   24  C   UNL     1     -42.345  58.610 -56.832  1.00  0.00     0.040 A 
HETATM   25  C   UNL     1     -42.377  56.680 -59.853  1.00  0.00     0.202 C 
HETATM   26  C   UNL     1     -43.454  55.688 -59.444  1.00  0.00     0.202 C 
HETATM   27  C   UNL     1     -42.436  58.378 -55.456  1.00  0.00     0.012 A 
ENDBRANCH  17  18
ENDBRANCH   1  17
TORSDOF 5
ENDMDL
MODEL 6
REMARK VINA RESULT:      -7.2      2.868      6.414
REMARK  5 active torsions:
REMARK  status: ('A' for Active; 'I' for Inactive)
REMARK    1  A    between atoms: C_2  and  C_3 
REMARK    2  A    between atoms: C_3  and  N_4 
REMARK    3  A    between atoms: C_3  and  C_18 
REMARK    4  A    between atoms: N_4  and  C_7 
REMARK    5  A    between atoms: C_7  and  C_8 
ROOT
HETATM    1  N   UNL     1     -42.802  55.718 -52.763  1.00  0.00    -0.056 N 
HETATM    2  H   UNL     1     -43.419  55.651 -51.944  1.00  0.00     0.278 HD
HETATM    3  H   UNL     1     -43.006  54.865 -53.296  1.00  0.00     0.278 HD
ENDROOT
BRANCH   1   4
HETATM    4  C   UNL     1     -43.249  56.892 -53.590  1.00  0.00     0.292 C 
BRANCH   4   5
HETATM    5  C   UNL     1     -43.227  56.606 -55.081  1.00  0.00    -0.020 A 
HETATM    6  C   UNL     1     -43.677  57.589 -55.981  1.00  0.00     0.011 A 
HETATM    7  C   UNL     1     -43.693  57.346 -57.358  1.00  0.00     0.024 A 
HETATM    8  C   UNL     1     -43.260  56.119 -57.852  1.00  0.00     0.034 A 
HETATM    9  C   UNL     1     -42.809  55.132 -56.981  1.00  0.00     0.024 A 
HETATM   10 CL   UNL     1     -43.280  55.822 -59.544  1.00  0.00    -0.084 Cl
HETATM   11  C   UNL     1     -42.793  55.370 -55.603  1.00  0.00     0.011 A 
ENDBRANCH   4   5
BRANCH   4  12
HETATM   12  C   UNL     1     -42.358  58.086 -53.381  1.00  0.00     0.190 A 
HETATM   13  N   UNL     1     -41.241  58.305 -54.084  1.00  0.00    -0.109 NA
HETATM   14  O   UNL     1     -40.795  59.536 -53.592  1.00  0.00    -0.205 OA
HETATM   15  C   UNL     1     -41.714  59.942 -52.676  1.00  0.00     0.288 A 
HETATM   16  N   UNL     1     -42.716  59.106 -52.523  1.00  0.00    -0.215 NA
ENDBRANCH   4  12
ENDBRANCH   1   4
BRANCH   1  17
HETATM   17  C   UNL     1     -41.383  55.721 -52.346  1.00  0.00     0.272 C 
BRANCH  17  18
HETATM   18  C   UNL     1     -40.872  54.317 -52.210  1.00  0.00    -0.030 A 
HETATM   19  C   UNL     1     -40.800  53.477 -53.333  1.00  0.00     0.048 A 
HETATM   20  C   UNL     1     -40.281  52.186 -53.216  1.00  0.00     0.102 A 
HETATM   21  C   UNL     1     -39.852  51.713 -51.976  1.00  0.00     0.102 A 
HETATM   22  O   UNL     1     -40.235  51.442 -54.365  1.00  0.00    -0.346 OA
HETATM   23  O   UNL     1     -39.367  50.448 -51.784  1.00  0.00    -0.346 OA
HETATM   24  C   UNL     1     -39.898  52.544 -50.860  1.00  0.00     0.040 A 
HETATM   25  C   UNL     1     -39.710  49.586 -52.876  1.00  0.00     0.202 C 
HETATM   26  C   UNL     1     -39.424  50.268 -54.204  1.00  0.00     0.202 C 
HETATM   27  C   UNL     1     -40.405  53.842 -50.973  1.00  0.00     0.012 A 
ENDBRANCH  17  18
ENDBRANCH   1  17
TORSDOF 5
ENDMDL
MODEL 7
REMARK VINA RESULT:      -7.2      4.265      6.576
REMARK  5 active torsions:
REMARK  status: ('A' for Active; 'I' for Inactive)
REMARK    1  A    between atoms: C_2  and  C_3 
REMARK    2  A    between atoms: C_3  and  N_4 
REMARK    3  A    between atoms: C_3  and  C_18 
REMARK    4  A    between atoms: N_4  and  C_7 
REMARK    5  A    between atoms: C_7  and  C_8 
ROOT
HETATM    1  N   UNL     1     -41.535  55.416 -55.372  1.00  0.00    -0.056 N 
HETATM    2  H   UNL     1     -40.821  55.121 -56.049  1.00  0.00     0.278 HD
HETATM    3  H   UNL     1     -42.275  54.712 -55.471  1.00  0.00     0.278 HD
ENDROOT
BRANCH   1   4
HETATM    4  C   UNL     1     -40.954  55.279 -53.992  1.00  0.00     0.292 C 
BRANCH   4   5
HETATM    5  C   UNL     1     -40.571  53.849 -53.652  1.00  0.00    -0.020 A 
HETATM    6  C   UNL     1     -40.602  52.867 -54.659  1.00  0.00     0.011 A 
HETATM    7  C   UNL     1     -40.278  51.537 -54.372  1.00  0.00     0.024 A 
HETATM    8  C   UNL     1     -39.921  51.173 -53.077  1.00  0.00     0.034 A 
HETATM    9  C   UNL     1     -39.882  52.129 -52.065  1.00  0.00     0.024 A 
HETATM   10 CL   UNL     1     -39.524  49.539 -52.726  1.00  0.00    -0.084 Cl
HETATM   11  C   UNL     1     -40.206  53.459 -52.347  1.00  0.00     0.011 A 
ENDBRANCH   4   5
BRANCH   4  12
HETATM   12  C   UNL     1     -41.934  55.712 -52.935  1.00  0.00     0.190 A 
HETATM   13  N   UNL     1     -43.120  55.124 -52.745  1.00  0.00    -0.109 NA
HETATM   14  O   UNL     1     -43.639  55.811 -51.642  1.00  0.00    -0.205 OA
HETATM   15  C   UNL     1     -42.691  56.708 -51.265  1.00  0.00     0.288 A 
HETATM   16  N   UNL     1     -41.604  56.675 -52.004  1.00  0.00    -0.215 NA
ENDBRANCH   4  12
ENDBRANCH   1   4
BRANCH   1  17
HETATM   17  C   UNL     1     -42.064  56.752 -55.724  1.00  0.00     0.272 C 
BRANCH  17  18
HETATM   18  C   UNL     1     -42.961  56.662 -56.924  1.00  0.00    -0.030 A 
HETATM   19  C   UNL     1     -43.810  57.730 -57.255  1.00  0.00     0.048 A 
HETATM   20  C   UNL     1     -44.610  57.667 -58.397  1.00  0.00     0.102 A 
HETATM   21  C   UNL     1     -44.588  56.531 -59.206  1.00  0.00     0.102 A 
HETATM   22  O   UNL     1     -45.397  58.760 -58.651  1.00  0.00    -0.346 OA
HETATM   23  O   UNL     1     -45.372  56.389 -60.319  1.00  0.00    -0.346 OA
HETATM   24  C   UNL     1     -43.734  55.476 -58.900  1.00  0.00     0.040 A 
HETATM   25  C   UNL     1     -46.450  57.334 -60.323  1.00  0.00     0.202 C 
HETATM   26  C   UNL     1     -45.941  58.724 -59.979  1.00  0.00     0.202 C 
HETATM   27  C   UNL     1     -42.922  55.538 -57.764  1.00  0.00     0.012 A 
ENDBRANCH  17  18
ENDBRANCH   1  17
TORSDOF 5
ENDMDL
MODEL 8
REMARK VINA RESULT:      -7.1      3.504      6.597
REMARK  5 active torsions:
REMARK  status: ('A' for Active; 'I' for Inactive)
REMARK    1  A    between atoms: C_2  and  C_3 
REMARK    2  A    between atoms: C_3  and  N_4 
REMARK    3  A    between atoms: C_3  and  C_18 
REMARK    4  A    between atoms: N_4  and  C_7 
REMARK    5  A    between atoms: C_7  and  C_8 
ROOT
HETATM    1  N   UNL     1     -41.787  54.745 -55.532  1.00  0.00    -0.056 N 
HETATM    2  H   UNL     1     -42.448  54.440 -54.808  1.00  0.00     0.278 HD
HETATM    3  H   UNL     1     -42.166  54.346 -56.398  1.00  0.00     0.278 HD
ENDROOT
BRANCH   1   4
HETATM    4  C   UNL     1     -41.872  56.242 -55.642  1.00  0.00     0.292 C 
BRANCH   4   5
HETATM    5  C   UNL     1     -42.591  56.880 -54.467  1.00  0.00    -0.020 A 
HETATM    6  C   UNL     1     -43.992  56.788 -54.380  1.00  0.00     0.011 A 
HETATM    7  C   UNL     1     -44.685  57.387 -53.323  1.00  0.00     0.024 A 
HETATM    8  C   UNL     1     -43.988  58.084 -52.342  1.00  0.00     0.034 A 
HETATM    9  C   UNL     1     -42.601  58.186 -52.406  1.00  0.00     0.024 A 
HETATM   10 CL   UNL     1     -44.840  58.819 -51.044  1.00  0.00    -0.084 Cl
HETATM   11  C   UNL     1     -41.904  57.591 -53.461  1.00  0.00     0.011 A 
ENDBRANCH   4   5
BRANCH   4  12
HETATM   12  C   UNL     1     -42.626  56.663 -56.873  1.00  0.00     0.190 A 
HETATM   13  N   UNL     1     -42.601  57.907 -57.363  1.00  0.00    -0.109 NA
HETATM   14  O   UNL     1     -43.382  57.808 -58.519  1.00  0.00    -0.205 OA
HETATM   15  C   UNL     1     -43.758  56.505 -58.619  1.00  0.00     0.288 A 
HETATM   16  N   UNL     1     -43.298  55.744 -57.652  1.00  0.00    -0.215 NA
ENDBRANCH   4  12
ENDBRANCH   1   4
BRANCH   1  17
HETATM   17  C   UNL     1     -40.440  54.189 -55.273  1.00  0.00     0.272 C 
BRANCH  17  18
HETATM   18  C   UNL     1     -40.395  53.529 -53.926  1.00  0.00    -0.030 A 
HETATM   19  C   UNL     1     -40.069  52.168 -53.814  1.00  0.00     0.048 A 
HETATM   20  C   UNL     1     -39.980  51.564 -52.559  1.00  0.00     0.102 A 
HETATM   21  C   UNL     1     -40.238  52.305 -51.405  1.00  0.00     0.102 A 
HETATM   22  O   UNL     1     -39.642  50.237 -52.543  1.00  0.00    -0.346 OA
HETATM   23  O   UNL     1     -40.203  51.769 -50.146  1.00  0.00    -0.346 OA
HETATM   24  C   UNL     1     -40.540  53.661 -51.502  1.00  0.00     0.040 A 
HETATM   25  C   UNL     1     -40.259  50.337 -50.187  1.00  0.00     0.202 C 
HETATM   26  C   UNL     1     -39.288  49.795 -51.224  1.00  0.00     0.202 C 
HETATM   27  C   UNL     1     -40.618  54.273 -52.756  1.00  0.00     0.012 A 
ENDBRANCH  17  18
ENDBRANCH   1  17
TORSDOF 5
ENDMDL
MODEL 9
REMARK VINA RESULT:      -7.0      3.056      4.303
REMARK  5 active torsions:
REMARK  status: ('A' for Active; 'I' for Inactive)
REMARK    1  A    between atoms: C_2  and  C_3 
REMARK    2  A    between atoms: C_3  and  N_4 
REMARK    3  A    between atoms: C_3  and  C_18 
REMARK    4  A    between atoms: N_4  and  C_7 
REMARK    5  A    between atoms: C_7  and  C_8 
ROOT
HETATM    1  N   UNL     1     -42.579  55.162 -52.200  1.00  0.00    -0.056 N 
HETATM    2  H   UNL     1     -43.026  54.326 -52.595  1.00  0.00     0.278 HD
HETATM    3  H   UNL     1     -43.090  55.325 -51.325  1.00  0.00     0.278 HD
ENDROOT
BRANCH   1   4
HETATM    4  C   UNL     1     -41.161  54.810 -51.843  1.00  0.00     0.292 C 
BRANCH   4   5
HETATM    5  C   UNL     1     -40.683  53.536 -52.516  1.00  0.00    -0.020 A 
HETATM    6  C   UNL     1     -40.905  53.355 -53.894  1.00  0.00     0.011 A 
HETATM    7  C   UNL     1     -40.499  52.182 -54.537  1.00  0.00     0.024 A 
HETATM    8  C   UNL     1     -39.866  51.176 -53.813  1.00  0.00     0.034 A 
HETATM    9  C   UNL     1     -39.634  51.334 -52.449  1.00  0.00     0.024 A 
HETATM   10 CL   UNL     1     -39.368  49.735 -54.604  1.00  0.00    -0.084 Cl
HETATM   11  C   UNL     1     -40.040  52.504 -51.802  1.00  0.00     0.011 A 
ENDBRANCH   4   5
BRANCH   4  12
HETATM   12  C   UNL     1     -41.002  54.588 -50.365  1.00  0.00     0.190 A 
HETATM   13  N   UNL     1     -42.021  54.296 -49.549  1.00  0.00    -0.109 NA
HETATM   14  O   UNL     1     -41.395  54.122 -48.310  1.00  0.00    -0.205 OA
HETATM   15  C   UNL     1     -40.063  54.288 -48.525  1.00  0.00     0.288 A 
HETATM   16  N   UNL     1     -39.755  54.547 -49.776  1.00  0.00    -0.215 NA
ENDBRANCH   4  12
ENDBRANCH   1   4
BRANCH   1  17
HETATM   17  C   UNL     1     -42.752  56.321 -53.104  1.00  0.00     0.272 C 
BRANCH  17  18
HETATM   18  C   UNL     1     -43.703  57.316 -52.506  1.00  0.00    -0.030 A 
HETATM   19  C   UNL     1     -44.069  58.466 -53.224  1.00  0.00     0.048 A 
HETATM   20  C   UNL     1     -44.990  59.368 -52.688  1.00  0.00     0.102 A 
HETATM   21  C   UNL     1     -45.536  59.145 -51.424  1.00  0.00     0.102 A 
HETATM   22  O   UNL     1     -45.300  60.454 -53.463  1.00  0.00    -0.346 OA
HETATM   23  O   UNL     1     -46.416  60.006 -50.825  1.00  0.00    -0.346 OA
HETATM   24  C   UNL     1     -45.197  57.997 -50.713  1.00  0.00     0.040 A 
HETATM   25  C   UNL     1     -46.397  61.293 -51.456  1.00  0.00     0.202 C 
HETATM   26  C   UNL     1     -46.456  61.147 -52.968  1.00  0.00     0.202 C 
HETATM   27  C   UNL     1     -44.286  57.084 -51.249  1.00  0.00     0.012 A 
ENDBRANCH  17  18
ENDBRANCH   1  17
TORSDOF 5
ENDMDL
MODEL 10
REMARK VINA RESULT:      -7.0      2.761      6.829
REMARK  5 active torsions:
REMARK  status: ('A' for Active; 'I' for Inactive)
REMARK    1  A    between atoms: C_2  and  C_3 
REMARK    2  A    between atoms: C_3  and  N_4 
REMARK    3  A    between atoms: C_3  and  C_18 
REMARK    4  A    between atoms: N_4  and  C_7 
REMARK    5  A    between atoms: C_7  and  C_8 
ROOT
HETATM    1  N   UNL     1     -40.958  56.330 -51.498  1.00  0.00    -0.056 N 
HETATM    2  H   UNL     1     -40.594  56.235 -52.454  1.00  0.00     0.278 HD
HETATM    3  H   UNL     1     -40.248  56.895 -51.018  1.00  0.00     0.278 HD
ENDROOT
BRANCH   1   4
HETATM    4  C   UNL     1     -42.223  57.141 -51.557  1.00  0.00     0.292 C 
BRANCH   4   5
HETATM    5  C   UNL     1     -42.759  57.295 -52.970  1.00  0.00    -0.020 A 
HETATM    6  C   UNL     1     -44.116  57.027 -53.228  1.00  0.00     0.011 A 
HETATM    7  C   UNL     1     -44.634  57.136 -54.522  1.00  0.00     0.024 A 
HETATM    8  C   UNL     1     -43.804  57.513 -55.573  1.00  0.00     0.034 A 
HETATM    9  C   UNL     1     -42.458  57.786 -55.341  1.00  0.00     0.024 A 
HETATM   10 CL   UNL     1     -44.441  57.646 -57.163  1.00  0.00    -0.084 Cl
HETATM   11  C   UNL     1     -41.936  57.676 -54.050  1.00  0.00     0.011 A 
ENDBRANCH   4   5
BRANCH   4  12
HETATM   12  C   UNL     1     -42.011  58.536 -51.036  1.00  0.00     0.190 A 
HETATM   13  N   UNL     1     -40.833  58.983 -50.587  1.00  0.00    -0.109 NA
HETATM   14  O   UNL     1     -41.102  60.320 -50.274  1.00  0.00    -0.205 OA
HETATM   15  C   UNL     1     -42.401  60.540 -50.608  1.00  0.00     0.288 A 
HETATM   16  N   UNL     1     -43.006  59.488 -51.111  1.00  0.00    -0.215 NA
ENDBRANCH   4  12
ENDBRANCH   1   4
BRANCH   1  17
HETATM   17  C   UNL     1     -41.066  55.005 -50.849  1.00  0.00     0.272 C 
BRANCH  17  18
HETATM   18  C   UNL     1     -40.795  53.911 -51.840  1.00  0.00    -0.030 A 
HETATM   19  C   UNL     1     -40.224  52.700 -51.419  1.00  0.00     0.048 A 
HETATM   20  C   UNL     1     -40.014  51.664 -52.332  1.00  0.00     0.102 A 
HETATM   21  C   UNL     1     -40.350  51.835 -53.675  1.00  0.00     0.102 A 
HETATM   22  O   UNL     1     -39.466  50.513 -51.831  1.00  0.00    -0.346 OA
HETATM   23  O   UNL     1     -40.139  50.875 -54.628  1.00  0.00    -0.346 OA
HETATM   24  C   UNL     1     -40.937  53.024 -54.099  1.00  0.00     0.040 A 
HETATM   25  C   UNL     1     -39.214  49.881 -54.171  1.00  0.00     0.202 C 
HETATM   26  C   UNL     1     -39.570  49.427 -52.765  1.00  0.00     0.202 C 
HETATM   27  C   UNL     1     -41.161  54.059 -53.188  1.00  0.00     0.012 A 
ENDBRANCH  17  18
ENDBRANCH   1  17
TORSDOF 5
ENDMDL
