MODEL 1
REMARK VINA RESULT:      -8.5      0.000      0.000
REMARK  7 active torsions:
REMARK  status: ('A' for Active; 'I' for Inactive)
REMARK    1  A    between atoms: N_3  and  C_4 
REMARK    2  A    between atoms: C_7  and  O_8 
REMARK    3  A    between atoms: C_14  and  C_15 
REMARK    4  A    between atoms: C_15  and  N_16 
REMARK       I    between atoms: N_16  and  C_17 
REMARK       I    between atoms: C_17  and  N_18 
REMARK    5  A    between atoms: N_18  and  C_19 
REMARK    6  A    between atoms: C_19  and  C_20 
REMARK    7  A    between atoms: C_20  and  C_21 
ROOT
HETATM    1  C   UNL     1     -40.195  55.029 -55.112  1.00  0.00     0.068 C 
HETATM    2  C   UNL     1     -41.377  55.540 -54.359  1.00  0.00     0.014 A 
HETATM    3  N   UNL     1     -42.481  56.164 -54.935  1.00  0.00    -0.319 N 
HETATM    4  C   UNL     1     -43.401  56.428 -53.917  1.00  0.00     0.021 A 
HETATM    5  C   UNL     1     -44.660  57.212 -54.115  1.00  0.00     0.069 C 
HETATM    6  C   UNL     1     -42.904  55.917 -52.723  1.00  0.00    -0.016 A 
HETATM    7  C   UNL     1     -41.623  55.390 -53.009  1.00  0.00     0.035 A 
ENDROOT
BRANCH   6   8
HETATM    8  C   UNL     1     -43.561  55.938 -51.385  1.00  0.00     0.165 C 
BRANCH   8   9
HETATM    9  N   UNL     1     -42.559  56.194 -50.377  1.00  0.00    -0.339 N 
HETATM   10  C   UNL     1     -41.743  55.281 -49.792  1.00  0.00     0.316 C 
HETATM   11  N   UNL     1     -41.694  54.059 -50.398  1.00  0.00    -0.343 N 
HETATM   12  O   UNL     1     -41.124  55.565 -48.773  1.00  0.00    -0.248 OA
HETATM   13  H   UNL     1     -41.781  54.094 -51.403  1.00  0.00     0.164 HD
HETATM   14  H   UNL     1     -42.626  57.058 -49.857  1.00  0.00     0.164 HD
BRANCH  11  15
HETATM   15  C   UNL     1     -40.790  53.039 -49.897  1.00  0.00     0.129 C 
BRANCH  15  16
HETATM   16  C   UNL     1     -39.537  52.890 -50.765  1.00  0.00     0.058 C 
BRANCH  16  17
HETATM   17  C   UNL     1     -39.653  51.810 -51.818  1.00  0.00    -0.057 A 
HETATM   18  C   UNL     1     -39.911  52.136 -53.157  1.00  0.00     0.007 A 
HETATM   19  C   UNL     1     -40.033  51.133 -54.119  1.00  0.00     0.001 A 
HETATM   20  C   UNL     1     -39.892  49.794 -53.756  1.00  0.00     0.000 A 
HETATM   21  C   UNL     1     -39.625  49.459 -52.431  1.00  0.00     0.001 A 
HETATM   22  C   UNL     1     -39.506  50.460 -51.466  1.00  0.00     0.007 A 
ENDBRANCH  16  17
ENDBRANCH  15  16
ENDBRANCH  11  15
ENDBRANCH   8   9
ENDBRANCH   6   8
BRANCH   3  23
HETATM   23  C   UNL     1     -42.652  56.461 -56.319  1.00  0.00     0.039 A 
HETATM   24  C   UNL     1     -42.368  57.744 -56.800  1.00  0.00     0.033 A 
HETATM   25  C   UNL     1     -42.541  58.034 -58.156  1.00  0.00     0.039 A 
HETATM   26  C   UNL     1     -42.992  57.056 -59.045  1.00  0.00     0.068 A 
HETATM   27  C   UNL     1     -43.274  55.777 -58.564  1.00  0.00     0.039 A 
HETATM   28  C   UNL     1     -43.107  55.480 -57.206  1.00  0.00     0.033 A 
BRANCH  26  29
HETATM   29  O   UNL     1     -43.113  57.476 -60.340  1.00  0.00    -0.356 OA
HETATM   30  C   UNL     1     -43.475  58.836 -60.544  1.00  0.00     0.210 C 
ENDBRANCH  26  29
ENDBRANCH   3  23
TORSDOF 7
ENDMDL
MODEL 2
REMARK VINA RESULT:      -8.4      1.412      2.304
REMARK  7 active torsions:
REMARK  status: ('A' for Active; 'I' for Inactive)
REMARK    1  A    between atoms: N_3  and  C_4 
REMARK    2  A    between atoms: C_7  and  O_8 
REMARK    3  A    between atoms: C_14  and  C_15 
REMARK    4  A    between atoms: C_15  and  N_16 
REMARK       I    between atoms: N_16  and  C_17 
REMARK       I    between atoms: C_17  and  N_18 
REMARK    5  A    between atoms: N_18  and  C_19 
REMARK    6  A    between atoms: C_19  and  C_20 
REMARK    7  A    between atoms: C_20  and  C_21 
ROOT
HETATM    1  C   UNL     1     -44.437  59.771 -54.871  1.00  0.00     0.068 C 
HETATM    2  C   UNL     1     -43.460  58.855 -54.217  1.00  0.00     0.014 A 
HETATM    3  N   UNL     1     -42.689  57.904 -54.880  1.00  0.00    -0.319 N 
HETATM    4  C   UNL     1     -41.851  57.302 -53.940  1.00  0.00     0.021 A 
HETATM    5  C   UNL     1     -40.965  56.134 -54.239  1.00  0.00     0.069 C 
HETATM    6  C   UNL     1     -42.050  57.914 -52.707  1.00  0.00    -0.016 A 
HETATM    7  C   UNL     1     -43.081  58.865 -52.888  1.00  0.00     0.035 A 
ENDROOT
BRANCH   6   8
HETATM    8  C   UNL     1     -41.349  57.621 -51.424  1.00  0.00     0.165 C 
BRANCH   8   9
HETATM    9  N   UNL     1     -42.235  56.868 -50.569  1.00  0.00    -0.339 N 
HETATM   10  C   UNL     1     -42.205  55.529 -50.346  1.00  0.00     0.316 C 
HETATM   11  N   UNL     1     -41.080  54.885 -50.770  1.00  0.00    -0.343 N 
HETATM   12  O   UNL     1     -43.158  54.968 -49.817  1.00  0.00    -0.248 OA
HETATM   13  H   UNL     1     -40.236  55.434 -50.689  1.00  0.00     0.164 HD
HETATM   14  H   UNL     1     -43.115  57.294 -50.310  1.00  0.00     0.164 HD
BRANCH  11  15
HETATM   15  C   UNL     1     -40.915  53.467 -50.507  1.00  0.00     0.129 C 
BRANCH  15  16
HETATM   16  C   UNL     1     -39.597  52.918 -51.061  1.00  0.00     0.058 C 
BRANCH  16  17
HETATM   17  C   UNL     1     -39.777  51.930 -52.192  1.00  0.00    -0.057 A 
HETATM   18  C   UNL     1     -40.267  52.345 -53.437  1.00  0.00     0.007 A 
HETATM   19  C   UNL     1     -40.448  51.424 -54.471  1.00  0.00     0.001 A 
HETATM   20  C   UNL     1     -40.134  50.081 -54.272  1.00  0.00     0.000 A 
HETATM   21  C   UNL     1     -39.635  49.658 -53.042  1.00  0.00     0.001 A 
HETATM   22  C   UNL     1     -39.458  50.577 -52.006  1.00  0.00     0.007 A 
ENDBRANCH  16  17
ENDBRANCH  15  16
ENDBRANCH  11  15
ENDBRANCH   8   9
ENDBRANCH   6   8
BRANCH   3  23
HETATM   23  C   UNL     1     -42.733  57.611 -56.275  1.00  0.00     0.039 A 
HETATM   24  C   UNL     1     -43.438  56.494 -56.735  1.00  0.00     0.033 A 
HETATM   25  C   UNL     1     -43.475  56.207 -58.102  1.00  0.00     0.039 A 
HETATM   26  C   UNL     1     -42.818  57.026 -59.023  1.00  0.00     0.068 A 
HETATM   27  C   UNL     1     -42.115  58.139 -58.564  1.00  0.00     0.039 A 
HETATM   28  C   UNL     1     -42.070  58.432 -57.195  1.00  0.00     0.033 A 
BRANCH  26  29
HETATM   29  O   UNL     1     -42.940  56.629 -60.326  1.00  0.00    -0.356 OA
HETATM   30  C   UNL     1     -44.139  55.954 -60.684  1.00  0.00     0.210 C 
ENDBRANCH  26  29
ENDBRANCH   3  23
TORSDOF 7
ENDMDL
MODEL 3
REMARK VINA RESULT:      -8.2      2.120      3.255
REMARK  7 active torsions:
REMARK  status: ('A' for Active; 'I' for Inactive)
REMARK    1  A    between atoms: N_3  and  C_4 
REMARK    2  A    between atoms: C_7  and  O_8 
REMARK    3  A    between atoms: C_14  and  C_15 
REMARK    4  A    between atoms: C_15  and  N_16 
REMARK       I    between atoms: N_16  and  C_17 
REMARK       I    between atoms: C_17  and  N_18 
REMARK    5  A    between atoms: N_18  and  C_19 
REMARK    6  A    between atoms: C_19  and  C_20 
REMARK    7  A    between atoms: C_20  and  C_21 
ROOT
HETATM    1  C   UNL     1     -43.216  60.992 -57.400  1.00  0.00     0.068 C 
HETATM    2  C   UNL     1     -42.738  60.018 -56.378  1.00  0.00     0.014 A 
HETATM    3  N   UNL     1     -42.627  58.644 -56.574  1.00  0.00    -0.319 N 
HETATM    4  C   UNL     1     -42.077  58.090 -55.416  1.00  0.00     0.021 A 
HETATM    5  C   UNL     1     -41.925  56.619 -55.187  1.00  0.00     0.069 C 
HETATM    6  C   UNL     1     -41.788  59.116 -54.524  1.00  0.00    -0.016 A 
HETATM    7  C   UNL     1     -42.234  60.316 -55.126  1.00  0.00     0.035 A 
ENDROOT
BRANCH   6   8
HETATM    8  C   UNL     1     -41.160  58.998 -53.177  1.00  0.00     0.165 C 
BRANCH   8   9
HETATM    9  N   UNL     1     -42.191  58.724 -52.204  1.00  0.00    -0.339 N 
HETATM   10  C   UNL     1     -42.399  57.554 -51.549  1.00  0.00     0.316 C 
HETATM   11  N   UNL     1     -41.387  56.642 -51.632  1.00  0.00    -0.343 N 
HETATM   12  O   UNL     1     -43.451  57.357 -50.951  1.00  0.00    -0.248 OA
HETATM   13  H   UNL     1     -40.465  57.052 -51.662  1.00  0.00     0.164 HD
HETATM   14  H   UNL     1     -42.992  59.340 -52.181  1.00  0.00     0.164 HD
BRANCH  11  15
HETATM   15  C   UNL     1     -41.478  55.391 -50.901  1.00  0.00     0.129 C 
BRANCH  15  16
HETATM   16  C   UNL     1     -42.151  54.284 -51.716  1.00  0.00     0.058 C 
BRANCH  16  17
HETATM   17  C   UNL     1     -41.176  53.316 -52.350  1.00  0.00    -0.057 A 
HETATM   18  C   UNL     1     -41.144  53.135 -53.739  1.00  0.00     0.007 A 
HETATM   19  C   UNL     1     -40.253  52.227 -54.315  1.00  0.00     0.001 A 
HETATM   20  C   UNL     1     -39.381  51.498 -53.509  1.00  0.00     0.000 A 
HETATM   21  C   UNL     1     -39.396  51.678 -52.128  1.00  0.00     0.001 A 
HETATM   22  C   UNL     1     -40.288  52.582 -51.550  1.00  0.00     0.007 A 
ENDBRANCH  16  17
ENDBRANCH  15  16
ENDBRANCH  11  15
ENDBRANCH   8   9
ENDBRANCH   6   8
BRANCH   3  23
HETATM   23  C   UNL     1     -42.989  57.932 -57.756  1.00  0.00     0.039 A 
HETATM   24  C   UNL     1     -44.304  57.485 -57.929  1.00  0.00     0.033 A 
HETATM   25  C   UNL     1     -44.655  56.784 -59.085  1.00  0.00     0.039 A 
HETATM   26  C   UNL     1     -43.710  56.523 -60.079  1.00  0.00     0.068 A 
HETATM   27  C   UNL     1     -42.400  56.970 -59.906  1.00  0.00     0.039 A 
HETATM   28  C   UNL     1     -42.039  57.670 -58.748  1.00  0.00     0.033 A 
BRANCH  26  29
HETATM   29  O   UNL     1     -44.191  55.831 -61.155  1.00  0.00    -0.356 OA
HETATM   30  C   UNL     1     -44.982  54.682 -60.880  1.00  0.00     0.210 C 
ENDBRANCH  26  29
ENDBRANCH   3  23
TORSDOF 7
ENDMDL
MODEL 4
REMARK VINA RESULT:      -8.2      2.437      7.559
REMARK  7 active torsions:
REMARK  status: ('A' for Active; 'I' for Inactive)
REMARK    1  A    between atoms: N_3  and  C_4 
REMARK    2  A    between atoms: C_7  and  O_8 
REMARK    3  A    between atoms: C_14  and  C_15 
REMARK    4  A    between atoms: C_15  and  N_16 
REMARK       I    between atoms: N_16  and  C_17 
REMARK       I    between atoms: C_17  and  N_18 
REMARK    5  A    between atoms: N_18  and  C_19 
REMARK    6  A    between atoms: C_19  and  C_20 
REMARK    7  A    between atoms: C_20  and  C_21 
ROOT
HETATM    1  C   UNL     1     -43.863  54.272 -50.681  1.00  0.00     0.068 C 
HETATM    2  C   UNL     1     -43.317  55.396 -51.494  1.00  0.00     0.014 A 
HETATM    3  N   UNL     1     -42.244  55.297 -52.376  1.00  0.00    -0.319 N 
HETATM    4  C   UNL     1     -42.084  56.537 -52.997  1.00  0.00     0.021 A 
HETATM    5  C   UNL     1     -40.951  56.871 -53.914  1.00  0.00     0.069 C 
HETATM    6  C   UNL     1     -43.088  57.391 -52.553  1.00  0.00    -0.016 A 
HETATM    7  C   UNL     1     -43.836  56.673 -51.590  1.00  0.00     0.035 A 
ENDROOT
BRANCH   6   8
HETATM    8  C   UNL     1     -43.332  58.801 -52.971  1.00  0.00     0.165 C 
BRANCH   8   9
HETATM    9  N   UNL     1     -44.478  58.836 -53.849  1.00  0.00    -0.339 N 
HETATM   10  C   UNL     1     -44.462  58.943 -55.201  1.00  0.00     0.316 C 
HETATM   11  N   UNL     1     -43.250  58.742 -55.796  1.00  0.00    -0.343 N 
HETATM   12  O   UNL     1     -45.486  59.228 -55.813  1.00  0.00    -0.248 OA
HETATM   13  H   UNL     1     -42.674  58.055 -55.333  1.00  0.00     0.164 HD
HETATM   14  H   UNL     1     -45.375  59.067 -53.442  1.00  0.00     0.164 HD
BRANCH  11  15
HETATM   15  C   UNL     1     -43.143  58.755 -57.244  1.00  0.00     0.129 C 
BRANCH  15  16
HETATM   16  C   UNL     1     -42.721  57.397 -57.811  1.00  0.00     0.058 C 
BRANCH  16  17
HETATM   17  C   UNL     1     -43.782  56.738 -58.665  1.00  0.00    -0.057 A 
HETATM   18  C   UNL     1     -43.539  55.509 -59.293  1.00  0.00     0.007 A 
HETATM   19  C   UNL     1     -44.517  54.917 -60.093  1.00  0.00     0.001 A 
HETATM   20  C   UNL     1     -45.750  55.542 -60.269  1.00  0.00     0.000 A 
HETATM   21  C   UNL     1     -46.007  56.759 -59.641  1.00  0.00     0.001 A 
HETATM   22  C   UNL     1     -45.029  57.355 -58.843  1.00  0.00     0.007 A 
ENDBRANCH  16  17
ENDBRANCH  15  16
ENDBRANCH  11  15
ENDBRANCH   8   9
ENDBRANCH   6   8
BRANCH   3  23
HETATM   23  C   UNL     1     -41.461  54.130 -52.619  1.00  0.00     0.039 A 
HETATM   24  C   UNL     1     -41.605  53.427 -53.820  1.00  0.00     0.033 A 
HETATM   25  C   UNL     1     -40.840  52.282 -54.054  1.00  0.00     0.039 A 
HETATM   26  C   UNL     1     -39.926  51.825 -53.102  1.00  0.00     0.068 A 
HETATM   27  C   UNL     1     -39.783  52.526 -51.905  1.00  0.00     0.039 A 
HETATM   28  C   UNL     1     -40.549  53.673 -51.661  1.00  0.00     0.033 A 
BRANCH  26  29
HETATM   29  O   UNL     1     -39.245  50.696 -53.462  1.00  0.00    -0.356 OA
HETATM   30  C   UNL     1     -39.828  49.889 -54.478  1.00  0.00     0.210 C 
ENDBRANCH  26  29
ENDBRANCH   3  23
TORSDOF 7
ENDMDL
MODEL 5
REMARK VINA RESULT:      -8.0      5.089      8.874
REMARK  7 active torsions:
REMARK  status: ('A' for Active; 'I' for Inactive)
REMARK    1  A    between atoms: N_3  and  C_4 
REMARK    2  A    between atoms: C_7  and  O_8 
REMARK    3  A    between atoms: C_14  and  C_15 
REMARK    4  A    between atoms: C_15  and  N_16 
REMARK       I    between atoms: N_16  and  C_17 
REMARK       I    between atoms: C_17  and  N_18 
REMARK    5  A    between atoms: N_18  and  C_19 
REMARK    6  A    between atoms: C_19  and  C_20 
REMARK    7  A    between atoms: C_20  and  C_21 
ROOT
HETATM    1  C   UNL     1     -40.989  56.859 -54.130  1.00  0.00     0.068 C 
HETATM    2  C   UNL     1     -42.080  56.577 -53.155  1.00  0.00     0.014 A 
HETATM    3  N   UNL     1     -42.269  55.364 -52.496  1.00  0.00    -0.319 N 
HETATM    4  C   UNL     1     -43.344  55.517 -51.617  1.00  0.00     0.021 A 
HETATM    5  C   UNL     1     -43.940  54.396 -50.827  1.00  0.00     0.069 C 
HETATM    6  C   UNL     1     -43.786  56.834 -51.679  1.00  0.00    -0.016 A 
HETATM    7  C   UNL     1     -43.005  57.479 -52.667  1.00  0.00     0.035 A 
ENDROOT
BRANCH   6   8
HETATM    8  C   UNL     1     -44.886  57.460 -50.891  1.00  0.00     0.165 C 
BRANCH   8   9
HETATM    9  N   UNL     1     -45.272  58.697 -51.528  1.00  0.00    -0.339 N 
HETATM   10  C   UNL     1     -45.287  59.931 -50.964  1.00  0.00     0.316 C 
HETATM   11  N   UNL     1     -44.637  60.042 -49.769  1.00  0.00    -0.343 N 
HETATM   12  O   UNL     1     -45.877  60.855 -51.511  1.00  0.00    -0.248 OA
HETATM   13  H   UNL     1     -43.819  59.456 -49.689  1.00  0.00     0.164 HD
HETATM   14  H   UNL     1     -45.827  58.639 -52.372  1.00  0.00     0.164 HD
BRANCH  11  15
HETATM   15  C   UNL     1     -44.527  61.337 -49.123  1.00  0.00     0.129 C 
BRANCH  15  16
HETATM   16  C   UNL     1     -45.693  61.618 -48.171  1.00  0.00     0.058 C 
BRANCH  16  17
HETATM   17  C   UNL     1     -45.264  61.882 -46.745  1.00  0.00    -0.057 A 
HETATM   18  C   UNL     1     -45.430  63.149 -46.169  1.00  0.00     0.007 A 
HETATM   19  C   UNL     1     -45.015  63.390 -44.858  1.00  0.00     0.001 A 
HETATM   20  C   UNL     1     -44.438  62.367 -44.107  1.00  0.00     0.000 A 
HETATM   21  C   UNL     1     -44.279  61.101 -44.666  1.00  0.00     0.001 A 
HETATM   22  C   UNL     1     -44.689  60.859 -45.978  1.00  0.00     0.007 A 
ENDBRANCH  16  17
ENDBRANCH  15  16
ENDBRANCH  11  15
ENDBRANCH   8   9
ENDBRANCH   6   8
BRANCH   3  23
HETATM   23  C   UNL     1     -41.490  54.182 -52.672  1.00  0.00     0.039 A 
HETATM   24  C   UNL     1     -41.676  53.383 -53.805  1.00  0.00     0.033 A 
HETATM   25  C   UNL     1     -40.915  52.223 -53.973  1.00  0.00     0.039 A 
HETATM   26  C   UNL     1     -39.963  51.849 -53.022  1.00  0.00     0.068 A 
HETATM   27  C   UNL     1     -39.779  52.646 -51.893  1.00  0.00     0.039 A 
HETATM   28  C   UNL     1     -40.540  53.808 -51.716  1.00  0.00     0.033 A 
BRANCH  26  29
HETATM   29  O   UNL     1     -39.290  50.695 -53.314  1.00  0.00    -0.356 OA
HETATM   30  C   UNL     1     -39.654  50.024 -54.514  1.00  0.00     0.210 C 
ENDBRANCH  26  29
ENDBRANCH   3  23
TORSDOF 7
ENDMDL
MODEL 6
REMARK VINA RESULT:      -7.9      2.722      7.917
REMARK  7 active torsions:
REMARK  status: ('A' for Active; 'I' for Inactive)
REMARK    1  A    between atoms: N_3  and  C_4 
REMARK    2  A    between atoms: C_7  and  O_8 
REMARK    3  A    between atoms: C_14  and  C_15 
REMARK    4  A    between atoms: C_15  and  N_16 
REMARK       I    between atoms: N_16  and  C_17 
REMARK       I    between atoms: C_17  and  N_18 
REMARK    5  A    between atoms: N_18  and  C_19 
REMARK    6  A    between atoms: C_19  and  C_20 
REMARK    7  A    between atoms: C_20  and  C_21 
ROOT
HETATM    1  C   UNL     1     -40.617  57.772 -51.690  1.00  0.00     0.068 C 
HETATM    2  C   UNL     1     -41.262  58.085 -52.998  1.00  0.00     0.014 A 
HETATM    3  N   UNL     1     -41.561  57.150 -53.985  1.00  0.00    -0.319 N 
HETATM    4  C   UNL     1     -42.221  57.816 -55.020  1.00  0.00     0.021 A 
HETATM    5  C   UNL     1     -42.587  57.178 -56.322  1.00  0.00     0.069 C 
HETATM    6  C   UNL     1     -42.390  59.148 -54.656  1.00  0.00    -0.016 A 
HETATM    7  C   UNL     1     -41.759  59.310 -53.400  1.00  0.00     0.035 A 
ENDROOT
BRANCH   6   8
HETATM    8  C   UNL     1     -43.072  60.222 -55.434  1.00  0.00     0.165 C 
BRANCH   8   9
HETATM    9  N   UNL     1     -42.083  60.944 -56.199  1.00  0.00    -0.339 N 
HETATM   10  C   UNL     1     -41.772  60.758 -57.507  1.00  0.00     0.316 C 
HETATM   11  N   UNL     1     -42.651  59.997 -58.220  1.00  0.00    -0.343 N 
HETATM   12  O   UNL     1     -40.746  61.239 -57.974  1.00  0.00    -0.248 OA
HETATM   13  H   UNL     1     -43.614  60.105 -57.936  1.00  0.00     0.164 HD
HETATM   14  H   UNL     1     -41.370  61.448 -55.688  1.00  0.00     0.164 HD
BRANCH  11  15
HETATM   15  C   UNL     1     -42.452  59.805 -59.646  1.00  0.00     0.129 C 
BRANCH  15  16
HETATM   16  C   UNL     1     -42.010  58.380 -59.988  1.00  0.00     0.058 C 
BRANCH  16  17
HETATM   17  C   UNL     1     -43.147  57.381 -60.013  1.00  0.00    -0.057 A 
HETATM   18  C   UNL     1     -44.465  57.799 -60.238  1.00  0.00     0.007 A 
HETATM   19  C   UNL     1     -45.511  56.874 -60.242  1.00  0.00     0.001 A 
HETATM   20  C   UNL     1     -45.248  55.521 -60.029  1.00  0.00     0.000 A 
HETATM   21  C   UNL     1     -43.940  55.093 -59.816  1.00  0.00     0.001 A 
HETATM   22  C   UNL     1     -42.894  56.017 -59.808  1.00  0.00     0.007 A 
ENDBRANCH  16  17
ENDBRANCH  15  16
ENDBRANCH  11  15
ENDBRANCH   8   9
ENDBRANCH   6   8
BRANCH   3  23
HETATM   23  C   UNL     1     -41.265  55.756 -53.939  1.00  0.00     0.039 A 
HETATM   24  C   UNL     1     -41.930  54.928 -53.028  1.00  0.00     0.033 A 
HETATM   25  C   UNL     1     -41.635  53.563 -52.981  1.00  0.00     0.039 A 
HETATM   26  C   UNL     1     -40.683  53.007 -53.838  1.00  0.00     0.068 A 
HETATM   27  C   UNL     1     -40.020  53.833 -54.746  1.00  0.00     0.039 A 
HETATM   28  C   UNL     1     -40.308  55.203 -54.796  1.00  0.00     0.033 A 
BRANCH  26  29
HETATM   29  O   UNL     1     -40.496  51.662 -53.685  1.00  0.00    -0.356 OA
HETATM   30  C   UNL     1     -39.566  51.249 -52.692  1.00  0.00     0.210 C 
ENDBRANCH  26  29
ENDBRANCH   3  23
TORSDOF 7
ENDMDL
MODEL 7
REMARK VINA RESULT:      -7.9      1.663      2.662
REMARK  7 active torsions:
REMARK  status: ('A' for Active; 'I' for Inactive)
REMARK    1  A    between atoms: N_3  and  C_4 
REMARK    2  A    between atoms: C_7  and  O_8 
REMARK    3  A    between atoms: C_14  and  C_15 
REMARK    4  A    between atoms: C_15  and  N_16 
REMARK       I    between atoms: N_16  and  C_17 
REMARK       I    between atoms: C_17  and  N_18 
REMARK    5  A    between atoms: N_18  and  C_19 
REMARK    6  A    between atoms: C_19  and  C_20 
REMARK    7  A    between atoms: C_20  and  C_21 
ROOT
HETATM    1  C   UNL     1     -43.145  55.406 -57.695  1.00  0.00     0.068 C 
HETATM    2  C   UNL     1     -42.693  56.331 -56.616  1.00  0.00     0.014 A 
HETATM    3  N   UNL     1     -42.666  57.720 -56.715  1.00  0.00    -0.319 N 
HETATM    4  C   UNL     1     -42.254  58.228 -55.481  1.00  0.00     0.021 A 
HETATM    5  C   UNL     1     -41.972  59.676 -55.228  1.00  0.00     0.069 C 
HETATM    6  C   UNL     1     -42.085  57.169 -54.597  1.00  0.00    -0.016 A 
HETATM    7  C   UNL     1     -42.335  55.985 -55.328  1.00  0.00     0.035 A 
ENDROOT
BRANCH   6   8
HETATM    8  C   UNL     1     -41.687  57.240 -53.161  1.00  0.00     0.165 C 
BRANCH   8   9
HETATM    9  N   UNL     1     -42.710  56.609 -52.362  1.00  0.00    -0.339 N 
HETATM   10  C   UNL     1     -42.612  55.426 -51.704  1.00  0.00     0.316 C 
HETATM   11  N   UNL     1     -41.350  54.921 -51.582  1.00  0.00    -0.343 N 
HETATM   12  O   UNL     1     -43.617  54.866 -51.282  1.00  0.00    -0.248 OA
HETATM   13  H   UNL     1     -40.634  55.624 -51.475  1.00  0.00     0.164 HD
HETATM   14  H   UNL     1     -43.666  56.910 -52.497  1.00  0.00     0.164 HD
BRANCH  11  15
HETATM   15  C   UNL     1     -41.128  53.701 -50.826  1.00  0.00     0.129 C 
BRANCH  15  16
HETATM   16  C   UNL     1     -39.755  53.082 -51.103  1.00  0.00     0.058 C 
BRANCH  16  17
HETATM   17  C   UNL     1     -39.795  51.930 -52.083  1.00  0.00    -0.057 A 
HETATM   18  C   UNL     1     -39.560  50.616 -51.656  1.00  0.00     0.007 A 
HETATM   19  C   UNL     1     -39.580  49.560 -52.568  1.00  0.00     0.001 A 
HETATM   20  C   UNL     1     -39.842  49.805 -53.915  1.00  0.00     0.000 A 
HETATM   21  C   UNL     1     -40.088  51.106 -54.350  1.00  0.00     0.001 A 
HETATM   22  C   UNL     1     -40.064  52.164 -53.439  1.00  0.00     0.007 A 
ENDBRANCH  16  17
ENDBRANCH  15  16
ENDBRANCH  11  15
ENDBRANCH   8   9
ENDBRANCH   6   8
BRANCH   3  23
HETATM   23  C   UNL     1     -43.016  58.488 -57.865  1.00  0.00     0.039 A 
HETATM   24  C   UNL     1     -42.037  58.828 -58.805  1.00  0.00     0.033 A 
HETATM   25  C   UNL     1     -42.382  59.584 -59.928  1.00  0.00     0.039 A 
HETATM   26  C   UNL     1     -43.698  60.005 -60.131  1.00  0.00     0.068 A 
HETATM   27  C   UNL     1     -44.673  59.665 -59.193  1.00  0.00     0.039 A 
HETATM   28  C   UNL     1     -44.335  58.911 -58.063  1.00  0.00     0.033 A 
BRANCH  26  29
HETATM   29  O   UNL     1     -43.894  60.735 -61.270  1.00  0.00    -0.356 OA
HETATM   30  C   UNL     1     -42.757  60.957 -62.095  1.00  0.00     0.210 C 
ENDBRANCH  26  29
ENDBRANCH   3  23
TORSDOF 7
ENDMDL
MODEL 8
REMARK VINA RESULT:      -7.8      4.959      8.932
REMARK  7 active torsions:
REMARK  status: ('A' for Active; 'I' for Inactive)
REMARK    1  A    between atoms: N_3  and  C_4 
REMARK    2  A    between atoms: C_7  and  O_8 
REMARK    3  A    between atoms: C_14  and  C_15 
REMARK    4  A    between atoms: C_15  and  N_16 
REMARK       I    between atoms: N_16  and  C_17 
REMARK       I    between atoms: C_17  and  N_18 
REMARK    5  A    between atoms: N_18  and  C_19 
REMARK    6  A    between atoms: C_19  and  C_20 
REMARK    7  A    between atoms: C_20  and  C_21 
ROOT
HETATM    1  C   UNL     1     -44.030  54.291 -50.597  1.00  0.00     0.068 C 
HETATM    2  C   UNL     1     -43.463  55.468 -51.316  1.00  0.00     0.014 A 
HETATM    3  N   UNL     1     -42.361  55.429 -52.167  1.00  0.00    -0.319 N 
HETATM    4  C   UNL     1     -42.187  56.708 -52.700  1.00  0.00     0.021 A 
HETATM    5  C   UNL     1     -41.026  57.103 -53.556  1.00  0.00     0.069 C 
HETATM    6  C   UNL     1     -43.209  57.528 -52.234  1.00  0.00    -0.016 A 
HETATM    7  C   UNL     1     -43.984  56.746 -51.346  1.00  0.00     0.035 A 
ENDROOT
BRANCH   6   8
HETATM    8  C   UNL     1     -43.445  58.962 -52.567  1.00  0.00     0.165 C 
BRANCH   8   9
HETATM    9  N   UNL     1     -44.858  59.239 -52.462  1.00  0.00    -0.339 N 
HETATM   10  C   UNL     1     -45.435  60.285 -51.817  1.00  0.00     0.316 C 
HETATM   11  N   UNL     1     -44.591  61.295 -51.458  1.00  0.00    -0.343 N 
HETATM   12  O   UNL     1     -46.635  60.275 -51.570  1.00  0.00    -0.248 OA
HETATM   13  H   UNL     1     -43.836  61.453 -52.109  1.00  0.00     0.164 HD
HETATM   14  H   UNL     1     -45.501  58.480 -52.643  1.00  0.00     0.164 HD
BRANCH  11  15
HETATM   15  C   UNL     1     -45.121  62.495 -50.834  1.00  0.00     0.129 C 
BRANCH  15  16
HETATM   16  C   UNL     1     -44.181  63.065 -49.769  1.00  0.00     0.058 C 
BRANCH  16  17
HETATM   17  C   UNL     1     -44.592  62.730 -48.353  1.00  0.00    -0.057 A 
HETATM   18  C   UNL     1     -44.641  61.399 -47.915  1.00  0.00     0.007 A 
HETATM   19  C   UNL     1     -45.038  61.096 -46.612  1.00  0.00     0.001 A 
HETATM   20  C   UNL     1     -45.383  62.120 -45.730  1.00  0.00     0.000 A 
HETATM   21  C   UNL     1     -45.328  63.447 -46.151  1.00  0.00     0.001 A 
HETATM   22  C   UNL     1     -44.934  63.751 -47.455  1.00  0.00     0.007 A 
ENDBRANCH  16  17
ENDBRANCH  15  16
ENDBRANCH  11  15
ENDBRANCH   8   9
ENDBRANCH   6   8
BRANCH   3  23
HETATM   23  C   UNL     1     -41.566  54.282 -52.460  1.00  0.00     0.039 A 
HETATM   24  C   UNL     1     -41.743  53.596 -53.666  1.00  0.00     0.033 A 
HETATM   25  C   UNL     1     -40.966  52.470 -53.949  1.00  0.00     0.039 A 
HETATM   26  C   UNL     1     -40.006  52.017 -53.042  1.00  0.00     0.068 A 
HETATM   27  C   UNL     1     -39.830  52.702 -51.840  1.00  0.00     0.039 A 
HETATM   28  C   UNL     1     -40.607  53.830 -51.547  1.00  0.00     0.033 A 
BRANCH  26  29
HETATM   29  O   UNL     1     -39.317  50.908 -53.447  1.00  0.00    -0.356 OA
HETATM   30  C   UNL     1     -39.948  50.077 -54.415  1.00  0.00     0.210 C 
ENDBRANCH  26  29
ENDBRANCH   3  23
TORSDOF 7
ENDMDL
MODEL 9
REMARK VINA RESULT:      -7.6     14.585     16.107
REMARK  7 active torsions:
REMARK  status: ('A' for Active; 'I' for Inactive)
REMARK    1  A    between atoms: N_3  and  C_4 
REMARK    2  A    between atoms: C_7  and  O_8 
REMARK    3  A    between atoms: C_14  and  C_15 
REMARK    4  A    between atoms: C_15  and  N_16 
REMARK       I    between atoms: N_16  and  C_17 
REMARK       I    between atoms: C_17  and  N_18 
REMARK    5  A    between atoms: N_18  and  C_19 
REMARK    6  A    between atoms: C_19  and  C_20 
REMARK    7  A    between atoms: C_20  and  C_21 
ROOT
HETATM    1  C   UNL     1     -33.967  40.904 -56.112  1.00  0.00     0.068 C 
HETATM    2  C   UNL     1     -35.258  41.119 -55.398  1.00  0.00     0.014 A 
HETATM    3  N   UNL     1     -36.519  41.040 -55.985  1.00  0.00    -0.319 N 
HETATM    4  C   UNL     1     -37.471  41.229 -54.980  1.00  0.00     0.021 A 
HETATM    5  C   UNL     1     -38.940  41.348 -55.236  1.00  0.00     0.069 C 
HETATM    6  C   UNL     1     -36.813  41.365 -53.763  1.00  0.00    -0.016 A 
HETATM    7  C   UNL     1     -35.427  41.323 -54.042  1.00  0.00     0.035 A 
ENDROOT
BRANCH   6   8
HETATM    8  C   UNL     1     -37.426  41.549 -52.416  1.00  0.00     0.165 C 
BRANCH   8   9
HETATM    9  N   UNL     1     -38.097  40.329 -52.037  1.00  0.00    -0.339 N 
HETATM   10  C   UNL     1     -37.585  39.319 -51.289  1.00  0.00     0.316 C 
HETATM   11  N   UNL     1     -36.426  39.602 -50.628  1.00  0.00    -0.343 N 
HETATM   12  O   UNL     1     -38.145  38.229 -51.254  1.00  0.00    -0.248 OA
HETATM   13  H   UNL     1     -36.357  40.558 -50.309  1.00  0.00     0.164 HD
HETATM   14  H   UNL     1     -38.913  40.056 -52.569  1.00  0.00     0.164 HD
BRANCH  11  15
HETATM   15  C   UNL     1     -35.840  38.616 -49.738  1.00  0.00     0.129 C 
BRANCH  15  16
HETATM   16  C   UNL     1     -34.351  38.869 -49.483  1.00  0.00     0.058 C 
BRANCH  16  17
HETATM   17  C   UNL     1     -33.574  39.227 -50.730  1.00  0.00    -0.057 A 
HETATM   18  C   UNL     1     -33.509  38.342 -51.815  1.00  0.00     0.007 A 
HETATM   19  C   UNL     1     -32.774  38.672 -52.955  1.00  0.00     0.001 A 
HETATM   20  C   UNL     1     -32.103  39.892 -53.026  1.00  0.00     0.000 A 
HETATM   21  C   UNL     1     -32.170  40.784 -51.958  1.00  0.00     0.001 A 
HETATM   22  C   UNL     1     -32.901  40.454 -50.816  1.00  0.00     0.007 A 
ENDBRANCH  16  17
ENDBRANCH  15  16
ENDBRANCH  11  15
ENDBRANCH   8   9
ENDBRANCH   6   8
BRANCH   3  23
HETATM   23  C   UNL     1     -36.790  40.789 -57.362  1.00  0.00     0.039 A 
HETATM   24  C   UNL     1     -36.940  39.474 -57.818  1.00  0.00     0.033 A 
HETATM   25  C   UNL     1     -37.201  39.230 -59.168  1.00  0.00     0.039 A 
HETATM   26  C   UNL     1     -37.320  40.285 -60.076  1.00  0.00     0.068 A 
HETATM   27  C   UNL     1     -37.170  41.595 -59.621  1.00  0.00     0.039 A 
HETATM   28  C   UNL     1     -36.905  41.847 -58.269  1.00  0.00     0.033 A 
BRANCH  26  29
HETATM   29  O   UNL     1     -37.578  39.902 -61.363  1.00  0.00    -0.356 OA
HETATM   30  C   UNL     1     -37.754  38.511 -61.597  1.00  0.00     0.210 C 
ENDBRANCH  26  29
ENDBRANCH   3  23
TORSDOF 7
ENDMDL
MODEL 10
REMARK VINA RESULT:      -7.6      4.572      6.853
REMARK  7 active torsions:
REMARK  status: ('A' for Active; 'I' for Inactive)
REMARK    1  A    between atoms: N_3  and  C_4 
REMARK    2  A    between atoms: C_7  and  O_8 
REMARK    3  A    between atoms: C_14  and  C_15 
REMARK    4  A    between atoms: C_15  and  N_16 
REMARK       I    between atoms: N_16  and  C_17 
REMARK       I    between atoms: C_17  and  N_18 
REMARK    5  A    between atoms: N_18  and  C_19 
REMARK    6  A    between atoms: C_19  and  C_20 
REMARK    7  A    between atoms: C_20  and  C_21 
ROOT
HETATM    1  C   UNL     1     -40.893  59.562 -49.838  1.00  0.00     0.068 C 
HETATM    2  C   UNL     1     -41.732  59.423 -51.063  1.00  0.00     0.014 A 
HETATM    3  N   UNL     1     -42.849  60.201 -51.358  1.00  0.00    -0.319 N 
HETATM    4  C   UNL     1     -43.314  59.819 -52.618  1.00  0.00     0.021 A 
HETATM    5  C   UNL     1     -44.580  60.332 -53.229  1.00  0.00     0.069 C 
HETATM    6  C   UNL     1     -42.459  58.853 -53.136  1.00  0.00    -0.016 A 
HETATM    7  C   UNL     1     -41.489  58.593 -52.140  1.00  0.00     0.035 A 
ENDROOT
BRANCH   6   8
HETATM    8  C   UNL     1     -42.544  58.184 -54.466  1.00  0.00     0.165 C 
BRANCH   8   9
HETATM    9  N   UNL     1     -43.515  57.119 -54.391  1.00  0.00    -0.339 N 
HETATM   10  C   UNL     1     -43.274  55.819 -54.082  1.00  0.00     0.316 C 
HETATM   11  N   UNL     1     -42.046  55.558 -53.548  1.00  0.00    -0.343 N 
HETATM   12  O   UNL     1     -44.120  54.962 -54.306  1.00  0.00    -0.248 OA
HETATM   13  H   UNL     1     -41.687  56.296 -52.960  1.00  0.00     0.164 HD
HETATM   14  H   UNL     1     -44.404  57.259 -54.853  1.00  0.00     0.164 HD
BRANCH  11  15
HETATM   15  C   UNL     1     -41.719  54.213 -53.110  1.00  0.00     0.129 C 
BRANCH  15  16
HETATM   16  C   UNL     1     -40.532  53.621 -53.875  1.00  0.00     0.058 C 
BRANCH  16  17
HETATM   17  C   UNL     1     -40.180  52.211 -53.454  1.00  0.00    -0.057 A 
HETATM   18  C   UNL     1     -40.235  51.152 -54.371  1.00  0.00     0.007 A 
HETATM   19  C   UNL     1     -39.926  49.852 -53.971  1.00  0.00     0.001 A 
HETATM   20  C   UNL     1     -39.552  49.596 -52.653  1.00  0.00     0.000 A 
HETATM   21  C   UNL     1     -39.483  50.642 -51.735  1.00  0.00     0.001 A 
HETATM   22  C   UNL     1     -39.795  51.943 -52.133  1.00  0.00     0.007 A 
ENDBRANCH  16  17
ENDBRANCH  15  16
ENDBRANCH  11  15
ENDBRANCH   8   9
ENDBRANCH   6   8
BRANCH   3  23
HETATM   23  C   UNL     1     -43.406  61.220 -50.530  1.00  0.00     0.039 A 
HETATM   24  C   UNL     1     -44.411  60.904 -49.610  1.00  0.00     0.033 A 
HETATM   25  C   UNL     1     -44.958  61.905 -48.803  1.00  0.00     0.039 A 
HETATM   26  C   UNL     1     -44.512  63.225 -48.899  1.00  0.00     0.068 A 
HETATM   27  C   UNL     1     -43.510  63.539 -49.817  1.00  0.00     0.039 A 
HETATM   28  C   UNL     1     -42.959  62.542 -50.632  1.00  0.00     0.033 A 
BRANCH  26  29
HETATM   29  O   UNL     1     -45.132  64.099 -48.051  1.00  0.00    -0.356 OA
HETATM   30  C   UNL     1     -45.026  63.828 -46.658  1.00  0.00     0.210 C 
ENDBRANCH  26  29
ENDBRANCH   3  23
TORSDOF 7
ENDMDL
