MODEL 1
REMARK VINA RESULT:      -8.2      0.000      0.000
REMARK  6 active torsions:
REMARK  status: ('A' for Active; 'I' for Inactive)
REMARK    1  A    between atoms: N_4  and  C_5 
REMARK    2  A    between atoms: C_14  and  C_15 
REMARK       I    between atoms: C_15  and  N_16 
REMARK    3  A    between atoms: N_16  and  C_17 
REMARK    4  A    between atoms: C_17  and  C_18 
REMARK    5  A    between atoms: C_18  and  O_19 
REMARK    6  A    between atoms: C_18  and  C_20 
ROOT
HETATM    1  C   UNL     1     -42.586  57.316 -56.148  1.00  0.00     0.255 C 
HETATM    2  N   UNL     1     -41.960  57.273 -57.374  1.00  0.00    -0.354 N 
HETATM    3  O   UNL     1     -43.589  57.995 -55.950  1.00  0.00    -0.268 OA
HETATM    4  H   UNL     1     -41.008  56.935 -57.417  1.00  0.00     0.162 HD
ENDROOT
BRANCH   1   5
HETATM    5  C   UNL     1     -41.962  56.536 -55.085  1.00  0.00     0.082 C 
HETATM    6  C   UNL     1     -41.250  57.074 -53.984  1.00  0.00     0.069 C 
HETATM    7  C   UNL     1     -40.957  58.501 -53.689  1.00  0.00     0.073 C 
HETATM    8  N   UNL     1     -40.841  56.128 -53.141  1.00  0.00    -0.171 NA
HETATM    9  N   UNL     1     -41.206  54.952 -53.707  1.00  0.00    -0.237 N 
HETATM   10  C   UNL     1     -41.991  55.163 -54.841  1.00  0.00     0.050 C 
HETATM   11  C   UNL     1     -42.787  54.103 -55.517  1.00  0.00     0.071 C 
BRANCH   9  12
HETATM   12  C   UNL     1     -40.768  53.740 -53.083  1.00  0.00     0.058 A 
HETATM   13  C   UNL     1     -40.859  53.631 -51.683  1.00  0.00     0.033 A 
HETATM   14  C   UNL     1     -40.449  52.466 -51.028  1.00  0.00     0.021 A 
HETATM   15  C   UNL     1     -39.927  51.410 -51.765  1.00  0.00     0.011 A 
HETATM   16 BR   UNL     1     -39.368  49.833 -50.886  1.00  0.00    -0.051 Br
HETATM   17  C   UNL     1     -39.804  51.511 -53.150  1.00  0.00     0.021 A 
HETATM   18  C   UNL     1     -40.220  52.676 -53.810  1.00  0.00     0.033 A 
ENDBRANCH   9  12
ENDBRANCH   1   5
BRANCH   2  19
HETATM   19  C   UNL     1     -42.391  58.142 -58.459  1.00  0.00     0.159 C 
BRANCH  19  20
HETATM   20  C   UNL     1     -42.513  57.379 -59.789  1.00  0.00     0.169 C 
BRANCH  20  21
HETATM   21  O   UNL     1     -41.916  58.152 -60.839  1.00  0.00    -0.389 OA
HETATM   22  H   UNL     1     -41.484  57.522 -61.443  1.00  0.00     0.210 HD
ENDBRANCH  20  21
BRANCH  20  23
HETATM   23  C   UNL     1     -43.956  57.063 -60.129  1.00  0.00    -0.028 A 
HETATM   24  C   UNL     1     -44.325  55.755 -60.488  1.00  0.00     0.013 A 
HETATM   25  C   UNL     1     -45.657  55.448 -60.771  1.00  0.00     0.043 A 
HETATM   26  C   UNL     1     -46.623  56.444 -60.694  1.00  0.00     0.116 A 
HETATM   27  F   UNL     1     -47.901  56.145 -60.959  1.00  0.00    -0.206 F 
HETATM   28  C   UNL     1     -46.281  57.744 -60.344  1.00  0.00     0.043 A 
HETATM   29  C   UNL     1     -44.950  58.056 -60.064  1.00  0.00     0.013 A 
ENDBRANCH  20  23
ENDBRANCH  19  20
ENDBRANCH   2  19
TORSDOF 6
ENDMDL
MODEL 2
REMARK VINA RESULT:      -8.2      1.552      2.156
REMARK  6 active torsions:
REMARK  status: ('A' for Active; 'I' for Inactive)
REMARK    1  A    between atoms: N_4  and  C_5 
REMARK    2  A    between atoms: C_14  and  C_15 
REMARK       I    between atoms: C_15  and  N_16 
REMARK    3  A    between atoms: N_16  and  C_17 
REMARK    4  A    between atoms: C_17  and  C_18 
REMARK    5  A    between atoms: C_18  and  O_19 
REMARK    6  A    between atoms: C_18  and  C_20 
ROOT
HETATM    1  C   UNL     1     -42.714  58.293 -56.086  1.00  0.00     0.255 C 
HETATM    2  N   UNL     1     -44.085  58.399 -56.021  1.00  0.00    -0.354 N 
HETATM    3  O   UNL     1     -42.054  58.873 -56.943  1.00  0.00    -0.268 OA
HETATM    4  H   UNL     1     -44.598  57.706 -55.493  1.00  0.00     0.162 HD
ENDROOT
BRANCH   1   5
HETATM    5  C   UNL     1     -42.095  57.416 -55.099  1.00  0.00     0.082 C 
HETATM    6  C   UNL     1     -41.402  57.846 -53.940  1.00  0.00     0.069 C 
HETATM    7  C   UNL     1     -41.128  59.239 -53.498  1.00  0.00     0.073 C 
HETATM    8  N   UNL     1     -40.993  56.823 -53.191  1.00  0.00    -0.171 NA
HETATM    9  N   UNL     1     -41.338  55.707 -53.878  1.00  0.00    -0.237 N 
HETATM   10  C   UNL     1     -42.112  56.025 -54.995  1.00  0.00     0.050 C 
HETATM   11  C   UNL     1     -42.888  55.031 -55.786  1.00  0.00     0.071 C 
BRANCH   9  12
HETATM   12  C   UNL     1     -40.896  54.442 -53.375  1.00  0.00     0.058 A 
HETATM   13  C   UNL     1     -40.952  54.211 -51.987  1.00  0.00     0.033 A 
HETATM   14  C   UNL     1     -40.536  52.991 -51.448  1.00  0.00     0.021 A 
HETATM   15  C   UNL     1     -40.041  52.001 -52.288  1.00  0.00     0.011 A 
HETATM   16 BR   UNL     1     -39.473  50.349 -51.565  1.00  0.00    -0.051 Br
HETATM   17  C   UNL     1     -39.952  52.223 -53.661  1.00  0.00     0.021 A 
HETATM   18  C   UNL     1     -40.374  53.443 -54.205  1.00  0.00     0.033 A 
ENDBRANCH   9  12
ENDBRANCH   1   5
BRANCH   2  19
HETATM   19  C   UNL     1     -44.826  59.107 -57.055  1.00  0.00     0.159 C 
BRANCH  19  20
HETATM   20  C   UNL     1     -46.083  58.335 -57.490  1.00  0.00     0.169 C 
BRANCH  20  21
HETATM   21  O   UNL     1     -46.584  57.577 -56.382  1.00  0.00    -0.389 OA
HETATM   22  H   UNL     1     -47.158  58.173 -55.867  1.00  0.00     0.210 HD
ENDBRANCH  20  21
BRANCH  20  23
HETATM   23  C   UNL     1     -45.806  57.420 -58.666  1.00  0.00    -0.028 A 
HETATM   24  C   UNL     1     -44.495  56.992 -58.933  1.00  0.00     0.013 A 
HETATM   25  C   UNL     1     -44.236  56.123 -59.995  1.00  0.00     0.043 A 
HETATM   26  C   UNL     1     -45.285  55.677 -60.789  1.00  0.00     0.116 A 
HETATM   27  F   UNL     1     -45.035  54.838 -61.802  1.00  0.00    -0.206 F 
HETATM   28  C   UNL     1     -46.589  56.089 -60.546  1.00  0.00     0.043 A 
HETATM   29  C   UNL     1     -46.851  56.961 -59.488  1.00  0.00     0.013 A 
ENDBRANCH  20  23
ENDBRANCH  19  20
ENDBRANCH   2  19
TORSDOF 6
ENDMDL
MODEL 3
REMARK VINA RESULT:      -7.9      6.211      8.908
REMARK  6 active torsions:
REMARK  status: ('A' for Active; 'I' for Inactive)
REMARK    1  A    between atoms: N_4  and  C_5 
REMARK    2  A    between atoms: C_14  and  C_15 
REMARK       I    between atoms: C_15  and  N_16 
REMARK    3  A    between atoms: N_16  and  C_17 
REMARK    4  A    between atoms: C_17  and  C_18 
REMARK    5  A    between atoms: C_18  and  O_19 
REMARK    6  A    between atoms: C_18  and  C_20 
ROOT
HETATM    1  C   UNL     1     -41.960  56.250 -52.242  1.00  0.00     0.255 C 
HETATM    2  N   UNL     1     -42.199  55.795 -53.519  1.00  0.00    -0.354 N 
HETATM    3  O   UNL     1     -41.510  55.523 -51.362  1.00  0.00    -0.268 OA
HETATM    4  H   UNL     1     -42.812  56.333 -54.116  1.00  0.00     0.162 HD
ENDROOT
BRANCH   1   5
HETATM    5  C   UNL     1     -42.314  57.642 -51.984  1.00  0.00     0.082 C 
HETATM    6  C   UNL     1     -41.519  58.766 -52.321  1.00  0.00     0.069 C 
HETATM    7  C   UNL     1     -40.176  58.783 -52.958  1.00  0.00     0.073 C 
HETATM    8  N   UNL     1     -42.121  59.915 -52.019  1.00  0.00    -0.171 NA
HETATM    9  N   UNL     1     -43.282  59.570 -51.411  1.00  0.00    -0.237 N 
HETATM   10  C   UNL     1     -43.489  58.191 -51.470  1.00  0.00     0.050 C 
HETATM   11  C   UNL     1     -44.784  57.525 -51.163  1.00  0.00     0.071 C 
BRANCH   9  12
HETATM   12  C   UNL     1     -44.083  60.613 -50.846  1.00  0.00     0.058 A 
HETATM   13  C   UNL     1     -45.220  61.049 -51.552  1.00  0.00     0.033 A 
HETATM   14  C   UNL     1     -46.036  62.061 -51.040  1.00  0.00     0.021 A 
HETATM   15  C   UNL     1     -45.710  62.660 -49.828  1.00  0.00     0.011 A 
HETATM   16 BR   UNL     1     -46.808  64.031 -49.131  1.00  0.00    -0.051 Br
HETATM   17  C   UNL     1     -44.573  62.260 -49.129  1.00  0.00     0.021 A 
HETATM   18  C   UNL     1     -43.756  61.241 -49.638  1.00  0.00     0.033 A 
ENDBRANCH   9  12
ENDBRANCH   1   5
BRANCH   2  19
HETATM   19  C   UNL     1     -42.046  54.385 -53.846  1.00  0.00     0.159 C 
BRANCH  19  20
HETATM   20  C   UNL     1     -40.576  54.011 -54.100  1.00  0.00     0.169 C 
BRANCH  20  21
HETATM   21  O   UNL     1     -40.284  54.149 -55.496  1.00  0.00    -0.389 OA
HETATM   22  H   UNL     1     -40.100  55.092 -55.655  1.00  0.00     0.210 HD
ENDBRANCH  20  21
BRANCH  20  23
HETATM   23  C   UNL     1     -40.262  52.602 -53.637  1.00  0.00    -0.028 A 
HETATM   24  C   UNL     1     -40.332  51.531 -54.544  1.00  0.00     0.013 A 
HETATM   25  C   UNL     1     -40.012  50.235 -54.134  1.00  0.00     0.043 A 
HETATM   26  C   UNL     1     -39.620  50.007 -52.820  1.00  0.00     0.116 A 
HETATM   27  F   UNL     1     -39.307  48.764 -52.432  1.00  0.00    -0.206 F 
HETATM   28  C   UNL     1     -39.546  51.050 -51.906  1.00  0.00     0.043 A 
HETATM   29  C   UNL     1     -39.868  52.347 -52.312  1.00  0.00     0.013 A 
ENDBRANCH  20  23
ENDBRANCH  19  20
ENDBRANCH   2  19
TORSDOF 6
ENDMDL
MODEL 4
REMARK VINA RESULT:      -7.8      2.484      3.202
REMARK  6 active torsions:
REMARK  status: ('A' for Active; 'I' for Inactive)
REMARK    1  A    between atoms: N_4  and  C_5 
REMARK    2  A    between atoms: C_14  and  C_15 
REMARK       I    between atoms: C_15  and  N_16 
REMARK    3  A    between atoms: N_16  and  C_17 
REMARK    4  A    between atoms: C_17  and  C_18 
REMARK    5  A    between atoms: C_18  and  O_19 
REMARK    6  A    between atoms: C_18  and  C_20 
ROOT
HETATM    1  C   UNL     1     -41.856  58.769 -53.926  1.00  0.00     0.255 C 
HETATM    2  N   UNL     1     -43.175  58.959 -54.271  1.00  0.00    -0.354 N 
HETATM    3  O   UNL     1     -41.000  59.627 -54.117  1.00  0.00    -0.268 OA
HETATM    4  H   UNL     1     -43.775  58.149 -54.353  1.00  0.00     0.162 HD
ENDROOT
BRANCH   1   5
HETATM    5  C   UNL     1     -41.527  57.466 -53.357  1.00  0.00     0.082 C 
HETATM    6  C   UNL     1     -41.357  57.194 -51.977  1.00  0.00     0.069 C 
HETATM    7  C   UNL     1     -41.437  58.145 -50.837  1.00  0.00     0.073 C 
HETATM    8  N   UNL     1     -41.119  55.904 -51.746  1.00  0.00    -0.171 NA
HETATM    9  N   UNL     1     -41.052  55.320 -52.967  1.00  0.00    -0.237 N 
HETATM   10  C   UNL     1     -41.406  56.220 -53.973  1.00  0.00     0.050 C 
HETATM   11  C   UNL     1     -41.716  55.828 -55.375  1.00  0.00     0.071 C 
BRANCH   9  12
HETATM   12  C   UNL     1     -40.665  53.944 -53.035  1.00  0.00     0.058 A 
HETATM   13  C   UNL     1     -40.249  53.300 -51.854  1.00  0.00     0.033 A 
HETATM   14  C   UNL     1     -39.866  51.957 -51.868  1.00  0.00     0.021 A 
HETATM   15  C   UNL     1     -39.875  51.252 -53.067  1.00  0.00     0.011 A 
HETATM   16 BR   UNL     1     -39.355  49.435 -53.094  1.00  0.00    -0.051 Br
HETATM   17  C   UNL     1     -40.256  51.881 -54.250  1.00  0.00     0.021 A 
HETATM   18  C   UNL     1     -40.647  53.227 -54.238  1.00  0.00     0.033 A 
ENDBRANCH   9  12
ENDBRANCH   1   5
BRANCH   2  19
HETATM   19  C   UNL     1     -43.588  60.149 -55.001  1.00  0.00     0.159 C 
BRANCH  19  20
HETATM   20  C   UNL     1     -44.490  59.804 -56.198  1.00  0.00     0.169 C 
BRANCH  20  21
HETATM   21  O   UNL     1     -45.720  59.242 -55.721  1.00  0.00    -0.389 OA
HETATM   22  H   UNL     1     -45.527  58.325 -55.453  1.00  0.00     0.210 HD
ENDBRANCH  20  21
BRANCH  20  23
HETATM   23  C   UNL     1     -43.814  58.844 -57.157  1.00  0.00    -0.028 A 
HETATM   24  C   UNL     1     -44.450  57.643 -57.515  1.00  0.00     0.013 A 
HETATM   25  C   UNL     1     -43.849  56.768 -58.424  1.00  0.00     0.043 A 
HETATM   26  C   UNL     1     -42.617  57.093 -58.977  1.00  0.00     0.116 A 
HETATM   27  F   UNL     1     -42.047  56.255 -59.853  1.00  0.00    -0.206 F 
HETATM   28  C   UNL     1     -41.969  58.273 -58.636  1.00  0.00     0.043 A 
HETATM   29  C   UNL     1     -42.565  59.148 -57.725  1.00  0.00     0.013 A 
ENDBRANCH  20  23
ENDBRANCH  19  20
ENDBRANCH   2  19
TORSDOF 6
ENDMDL
MODEL 5
REMARK VINA RESULT:      -7.8      4.752      9.156
REMARK  6 active torsions:
REMARK  status: ('A' for Active; 'I' for Inactive)
REMARK    1  A    between atoms: N_4  and  C_5 
REMARK    2  A    between atoms: C_14  and  C_15 
REMARK       I    between atoms: C_15  and  N_16 
REMARK    3  A    between atoms: N_16  and  C_17 
REMARK    4  A    between atoms: C_17  and  C_18 
REMARK    5  A    between atoms: C_18  and  O_19 
REMARK    6  A    between atoms: C_18  and  C_20 
ROOT
HETATM    1  C   UNL     1     -42.049  56.542 -55.353  1.00  0.00     0.255 C 
HETATM    2  N   UNL     1     -41.679  55.266 -55.716  1.00  0.00    -0.354 N 
HETATM    3  O   UNL     1     -41.430  57.188 -54.513  1.00  0.00    -0.268 OA
HETATM    4  H   UNL     1     -42.356  54.683 -56.189  1.00  0.00     0.162 HD
ENDROOT
BRANCH   1   5
HETATM    5  C   UNL     1     -43.248  57.066 -55.998  1.00  0.00     0.082 C 
HETATM    6  C   UNL     1     -44.421  57.491 -55.327  1.00  0.00     0.069 C 
HETATM    7  C   UNL     1     -44.702  57.468 -53.867  1.00  0.00     0.073 C 
HETATM    8  N   UNL     1     -45.332  57.977 -56.167  1.00  0.00    -0.171 NA
HETATM    9  N   UNL     1     -44.811  57.811 -57.407  1.00  0.00    -0.237 N 
HETATM   10  C   UNL     1     -43.492  57.359 -57.340  1.00  0.00     0.050 C 
HETATM   11  C   UNL     1     -42.550  57.355 -58.492  1.00  0.00     0.071 C 
BRANCH   9  12
HETATM   12  C   UNL     1     -45.639  58.120 -58.533  1.00  0.00     0.058 A 
HETATM   13  C   UNL     1     -46.141  57.061 -59.312  1.00  0.00     0.033 A 
HETATM   14  C   UNL     1     -46.957  57.311 -60.418  1.00  0.00     0.021 A 
HETATM   15  C   UNL     1     -47.261  58.622 -60.767  1.00  0.00     0.011 A 
HETATM   16 BR   UNL     1     -48.362  58.967 -62.264  1.00  0.00    -0.051 Br
HETATM   17  C   UNL     1     -46.749  59.684 -60.024  1.00  0.00     0.021 A 
HETATM   18  C   UNL     1     -45.935  59.436 -58.910  1.00  0.00     0.033 A 
ENDBRANCH   9  12
ENDBRANCH   1   5
BRANCH   2  19
HETATM   19  C   UNL     1     -40.604  54.577 -55.017  1.00  0.00     0.159 C 
BRANCH  19  20
HETATM   20  C   UNL     1     -41.072  54.004 -53.668  1.00  0.00     0.169 C 
BRANCH  20  21
HETATM   21  O   UNL     1     -40.674  54.887 -52.612  1.00  0.00    -0.389 OA
HETATM   22  H   UNL     1     -40.465  54.330 -51.840  1.00  0.00     0.210 HD
ENDBRANCH  20  21
BRANCH  20  23
HETATM   23  C   UNL     1     -40.522  52.614 -53.422  1.00  0.00    -0.028 A 
HETATM   24  C   UNL     1     -39.990  52.279 -52.165  1.00  0.00     0.013 A 
HETATM   25  C   UNL     1     -39.512  50.991 -51.920  1.00  0.00     0.043 A 
HETATM   26  C   UNL     1     -39.565  50.034 -52.926  1.00  0.00     0.116 A 
HETATM   27  F   UNL     1     -39.112  48.798 -52.685  1.00  0.00    -0.206 F 
HETATM   28  C   UNL     1     -40.085  50.343 -54.177  1.00  0.00     0.043 A 
HETATM   29  C   UNL     1     -40.561  51.631 -54.427  1.00  0.00     0.013 A 
ENDBRANCH  20  23
ENDBRANCH  19  20
ENDBRANCH   2  19
TORSDOF 6
ENDMDL
MODEL 6
REMARK VINA RESULT:      -7.8      4.946      9.741
REMARK  6 active torsions:
REMARK  status: ('A' for Active; 'I' for Inactive)
REMARK    1  A    between atoms: N_4  and  C_5 
REMARK    2  A    between atoms: C_14  and  C_15 
REMARK       I    between atoms: C_15  and  N_16 
REMARK    3  A    between atoms: N_16  and  C_17 
REMARK    4  A    between atoms: C_17  and  C_18 
REMARK    5  A    between atoms: C_18  and  O_19 
REMARK    6  A    between atoms: C_18  and  C_20 
ROOT
HETATM    1  C   UNL     1     -43.502  57.220 -56.959  1.00  0.00     0.255 C 
HETATM    2  N   UNL     1     -43.341  56.002 -56.337  1.00  0.00    -0.354 N 
HETATM    3  O   UNL     1     -43.068  58.262 -56.478  1.00  0.00    -0.268 OA
HETATM    4  H   UNL     1     -43.937  55.235 -56.617  1.00  0.00     0.162 HD
ENDROOT
BRANCH   1   5
HETATM    5  C   UNL     1     -44.258  57.204 -58.207  1.00  0.00     0.082 C 
HETATM    6  C   UNL     1     -43.812  56.642 -59.429  1.00  0.00     0.069 C 
HETATM    7  C   UNL     1     -42.505  55.994 -59.718  1.00  0.00     0.073 C 
HETATM    8  N   UNL     1     -44.735  56.721 -60.385  1.00  0.00    -0.171 NA
HETATM    9  N   UNL     1     -45.771  57.402 -59.836  1.00  0.00    -0.237 N 
HETATM   10  C   UNL     1     -45.563  57.618 -58.473  1.00  0.00     0.050 C 
HETATM   11  C   UNL     1     -46.620  58.069 -57.527  1.00  0.00     0.071 C 
BRANCH   9  12
HETATM   12  C   UNL     1     -46.865  57.763 -60.685  1.00  0.00     0.058 A 
HETATM   13  C   UNL     1     -47.603  56.738 -61.307  1.00  0.00     0.033 A 
HETATM   14  C   UNL     1     -48.683  57.039 -62.141  1.00  0.00     0.021 A 
HETATM   15  C   UNL     1     -49.020  58.367 -62.377  1.00  0.00     0.011 A 
HETATM   16 BR   UNL     1     -50.478  58.781 -63.507  1.00  0.00    -0.051 Br
HETATM   17  C   UNL     1     -48.283  59.395 -61.792  1.00  0.00     0.021 A 
HETATM   18  C   UNL     1     -47.203  59.095 -60.951  1.00  0.00     0.033 A 
ENDBRANCH   9  12
ENDBRANCH   1   5
BRANCH   2  19
HETATM   19  C   UNL     1     -42.756  55.918 -55.007  1.00  0.00     0.159 C 
BRANCH  19  20
HETATM   20  C   UNL     1     -43.277  54.700 -54.227  1.00  0.00     0.169 C 
BRANCH  20  21
HETATM   21  O   UNL     1     -44.135  55.145 -53.167  1.00  0.00    -0.389 OA
HETATM   22  H   UNL     1     -43.828  54.707 -52.353  1.00  0.00     0.210 HD
ENDBRANCH  20  21
BRANCH  20  23
HETATM   23  C   UNL     1     -42.148  53.860 -53.667  1.00  0.00    -0.028 A 
HETATM   24  C   UNL     1     -41.441  52.981 -54.505  1.00  0.00     0.013 A 
HETATM   25  C   UNL     1     -40.377  52.228 -54.004  1.00  0.00     0.043 A 
HETATM   26  C   UNL     1     -40.016  52.353 -52.668  1.00  0.00     0.116 A 
HETATM   27  F   UNL     1     -38.990  51.634 -52.192  1.00  0.00    -0.206 F 
HETATM   28  C   UNL     1     -40.701  53.214 -51.820  1.00  0.00     0.043 A 
HETATM   29  C   UNL     1     -41.767  53.966 -52.317  1.00  0.00     0.013 A 
ENDBRANCH  20  23
ENDBRANCH  19  20
ENDBRANCH   2  19
TORSDOF 6
ENDMDL
MODEL 7
REMARK VINA RESULT:      -7.8      5.217      8.450
REMARK  6 active torsions:
REMARK  status: ('A' for Active; 'I' for Inactive)
REMARK    1  A    between atoms: N_4  and  C_5 
REMARK    2  A    between atoms: C_14  and  C_15 
REMARK       I    between atoms: C_15  and  N_16 
REMARK    3  A    between atoms: N_16  and  C_17 
REMARK    4  A    between atoms: C_17  and  C_18 
REMARK    5  A    between atoms: C_18  and  O_19 
REMARK    6  A    between atoms: C_18  and  C_20 
ROOT
HETATM    1  C   UNL     1     -42.908  56.397 -54.666  1.00  0.00     0.255 C 
HETATM    2  N   UNL     1     -43.084  55.115 -54.196  1.00  0.00    -0.354 N 
HETATM    3  O   UNL     1     -42.211  56.644 -55.645  1.00  0.00    -0.268 OA
HETATM    4  H   UNL     1     -43.426  54.990 -53.253  1.00  0.00     0.162 HD
ENDROOT
BRANCH   1   5
HETATM    5  C   UNL     1     -43.567  57.452 -53.904  1.00  0.00     0.082 C 
HETATM    6  C   UNL     1     -44.698  58.190 -54.334  1.00  0.00     0.069 C 
HETATM    7  C   UNL     1     -45.424  58.086 -55.628  1.00  0.00     0.073 C 
HETATM    8  N   UNL     1     -45.120  59.049 -53.408  1.00  0.00    -0.171 NA
HETATM    9  N   UNL     1     -44.234  58.948 -52.387  1.00  0.00    -0.237 N 
HETATM   10  C   UNL     1     -43.334  57.904 -52.605  1.00  0.00     0.050 C 
HETATM   11  C   UNL     1     -42.433  57.344 -51.561  1.00  0.00     0.071 C 
BRANCH   9  12
HETATM   12  C   UNL     1     -44.357  59.866 -51.295  1.00  0.00     0.058 A 
HETATM   13  C   UNL     1     -45.425  59.702 -50.394  1.00  0.00     0.033 A 
HETATM   14  C   UNL     1     -45.586  60.568 -49.309  1.00  0.00     0.021 A 
HETATM   15  C   UNL     1     -44.692  61.618 -49.130  1.00  0.00     0.011 A 
HETATM   16 BR   UNL     1     -44.905  62.796 -47.667  1.00  0.00    -0.051 Br
HETATM   17  C   UNL     1     -43.645  61.812 -50.028  1.00  0.00     0.021 A 
HETATM   18  C   UNL     1     -43.478  60.940 -51.113  1.00  0.00     0.033 A 
ENDBRANCH   9  12
ENDBRANCH   1   5
BRANCH   2  19
HETATM   19  C   UNL     1     -42.339  54.004 -54.770  1.00  0.00     0.159 C 
BRANCH  19  20
HETATM   20  C   UNL     1     -40.858  54.033 -54.358  1.00  0.00     0.169 C 
BRANCH  20  21
HETATM   21  O   UNL     1     -40.045  54.267 -55.516  1.00  0.00    -0.389 OA
HETATM   22  H   UNL     1     -39.318  54.853 -55.237  1.00  0.00     0.210 HD
ENDBRANCH  20  21
BRANCH  20  23
HETATM   23  C   UNL     1     -40.436  52.748 -53.675  1.00  0.00    -0.028 A 
HETATM   24  C   UNL     1     -40.333  51.558 -54.414  1.00  0.00     0.013 A 
HETATM   25  C   UNL     1     -39.913  50.377 -53.799  1.00  0.00     0.043 A 
HETATM   26  C   UNL     1     -39.592  50.382 -52.448  1.00  0.00     0.116 A 
HETATM   27  F   UNL     1     -39.182  49.250 -51.863  1.00  0.00    -0.206 F 
HETATM   28  C   UNL     1     -39.687  51.547 -51.696  1.00  0.00     0.043 A 
HETATM   29  C   UNL     1     -40.111  52.728 -52.307  1.00  0.00     0.013 A 
ENDBRANCH  20  23
ENDBRANCH  19  20
ENDBRANCH   2  19
TORSDOF 6
ENDMDL
MODEL 8
REMARK VINA RESULT:      -7.7      1.484      2.695
REMARK  6 active torsions:
REMARK  status: ('A' for Active; 'I' for Inactive)
REMARK    1  A    between atoms: N_4  and  C_5 
REMARK    2  A    between atoms: C_14  and  C_15 
REMARK       I    between atoms: C_15  and  N_16 
REMARK    3  A    between atoms: N_16  and  C_17 
REMARK    4  A    between atoms: C_17  and  C_18 
REMARK    5  A    between atoms: C_18  and  O_19 
REMARK    6  A    between atoms: C_18  and  C_20 
ROOT
HETATM    1  C   UNL     1     -42.836  56.980 -56.364  1.00  0.00     0.255 C 
HETATM    2  N   UNL     1     -41.880  57.003 -57.354  1.00  0.00    -0.354 N 
HETATM    3  O   UNL     1     -43.844  57.678 -56.413  1.00  0.00    -0.268 OA
HETATM    4  H   UNL     1     -40.961  56.636 -57.145  1.00  0.00     0.162 HD
ENDROOT
BRANCH   1   5
HETATM    5  C   UNL     1     -42.559  56.106 -55.229  1.00  0.00     0.082 C 
HETATM    6  C   UNL     1     -42.863  54.724 -55.165  1.00  0.00     0.069 C 
HETATM    7  C   UNL     1     -43.542  53.886 -56.189  1.00  0.00     0.073 C 
HETATM    8  N   UNL     1     -42.444  54.169 -54.030  1.00  0.00    -0.171 NA
HETATM    9  N   UNL     1     -41.927  55.185 -53.297  1.00  0.00    -0.237 N 
HETATM   10  C   UNL     1     -41.878  56.365 -54.039  1.00  0.00     0.050 C 
HETATM   11  C   UNL     1     -41.109  57.575 -53.638  1.00  0.00     0.071 C 
BRANCH   9  12
HETATM   12  C   UNL     1     -41.519  54.906 -51.953  1.00  0.00     0.058 A 
HETATM   13  C   UNL     1     -40.750  53.753 -51.707  1.00  0.00     0.033 A 
HETATM   14  C   UNL     1     -40.323  53.440 -50.414  1.00  0.00     0.021 A 
HETATM   15  C   UNL     1     -40.680  54.266 -49.353  1.00  0.00     0.011 A 
HETATM   16 BR   UNL     1     -40.109  53.847 -47.601  1.00  0.00    -0.051 Br
HETATM   17  C   UNL     1     -41.464  55.396 -49.575  1.00  0.00     0.021 A 
HETATM   18  C   UNL     1     -41.889  55.715 -50.872  1.00  0.00     0.033 A 
ENDBRANCH   9  12
ENDBRANCH   1   5
BRANCH   2  19
HETATM   19  C   UNL     1     -41.964  57.961 -58.447  1.00  0.00     0.159 C 
BRANCH  19  20
HETATM   20  C   UNL     1     -42.224  57.269 -59.795  1.00  0.00     0.169 C 
BRANCH  20  21
HETATM   21  O   UNL     1     -41.790  58.125 -60.861  1.00  0.00    -0.389 OA
HETATM   22  H   UNL     1     -40.935  58.505 -60.588  1.00  0.00     0.210 HD
ENDBRANCH  20  21
BRANCH  20  23
HETATM   23  C   UNL     1     -43.686  56.911 -59.976  1.00  0.00    -0.028 A 
HETATM   24  C   UNL     1     -44.658  57.925 -60.024  1.00  0.00     0.013 A 
HETATM   25  C   UNL     1     -46.003  57.605 -60.223  1.00  0.00     0.043 A 
HETATM   26  C   UNL     1     -46.378  56.276 -60.377  1.00  0.00     0.116 A 
HETATM   27  F   UNL     1     -47.668  55.974 -60.575  1.00  0.00    -0.206 F 
HETATM   28  C   UNL     1     -45.435  55.258 -60.331  1.00  0.00     0.043 A 
HETATM   29  C   UNL     1     -44.090  55.574 -60.129  1.00  0.00     0.013 A 
ENDBRANCH  20  23
ENDBRANCH  19  20
ENDBRANCH   2  19
TORSDOF 6
ENDMDL
MODEL 9
REMARK VINA RESULT:      -7.7     15.383     17.582
REMARK  6 active torsions:
REMARK  status: ('A' for Active; 'I' for Inactive)
REMARK    1  A    between atoms: N_4  and  C_5 
REMARK    2  A    between atoms: C_14  and  C_15 
REMARK       I    between atoms: C_15  and  N_16 
REMARK    3  A    between atoms: N_16  and  C_17 
REMARK    4  A    between atoms: C_17  and  C_18 
REMARK    5  A    between atoms: C_18  and  O_19 
REMARK    6  A    between atoms: C_18  and  C_20 
ROOT
HETATM    1  C   UNL     1     -34.582  40.532 -54.143  1.00  0.00     0.255 C 
HETATM    2  N   UNL     1     -34.736  41.874 -54.413  1.00  0.00    -0.354 N 
HETATM    3  O   UNL     1     -34.567  39.685 -55.031  1.00  0.00    -0.268 OA
HETATM    4  H   UNL     1     -35.015  42.488 -53.660  1.00  0.00     0.162 HD
ENDROOT
BRANCH   1   5
HETATM    5  C   UNL     1     -34.479  40.173 -52.733  1.00  0.00     0.082 C 
HETATM    6  C   UNL     1     -35.568  40.056 -51.835  1.00  0.00     0.069 C 
HETATM    7  C   UNL     1     -37.010  40.299 -52.105  1.00  0.00     0.073 C 
HETATM    8  N   UNL     1     -35.181  39.657 -50.625  1.00  0.00    -0.171 NA
HETATM    9  N   UNL     1     -33.829  39.578 -50.682  1.00  0.00    -0.237 N 
HETATM   10  C   UNL     1     -33.370  39.778 -51.984  1.00  0.00     0.050 C 
HETATM   11  C   UNL     1     -31.986  39.472 -52.439  1.00  0.00     0.071 C 
BRANCH   9  12
HETATM   12  C   UNL     1     -33.119  39.303 -49.470  1.00  0.00     0.058 A 
HETATM   13  C   UNL     1     -33.601  38.289 -48.620  1.00  0.00     0.033 A 
HETATM   14  C   UNL     1     -32.941  37.980 -47.429  1.00  0.00     0.021 A 
HETATM   15  C   UNL     1     -31.804  38.695 -47.067  1.00  0.00     0.011 A 
HETATM   16 BR   UNL     1     -30.908  38.284 -45.455  1.00  0.00    -0.051 Br
HETATM   17  C   UNL     1     -31.329  39.720 -47.882  1.00  0.00     0.021 A 
HETATM   18  C   UNL     1     -31.987  40.029 -49.080  1.00  0.00     0.033 A 
ENDBRANCH   9  12
ENDBRANCH   1   5
BRANCH   2  19
HETATM   19  C   UNL     1     -35.019  42.332 -55.765  1.00  0.00     0.159 C 
BRANCH  19  20
HETATM   20  C   UNL     1     -36.522  42.566 -55.987  1.00  0.00     0.169 C 
BRANCH  20  21
HETATM   21  O   UNL     1     -37.234  42.278 -54.777  1.00  0.00    -0.389 OA
HETATM   22  H   UNL     1     -38.061  42.792 -54.805  1.00  0.00     0.210 HD
ENDBRANCH  20  21
BRANCH  20  23
HETATM   23  C   UNL     1     -37.064  41.724 -57.125  1.00  0.00    -0.028 A 
HETATM   24  C   UNL     1     -36.854  42.120 -58.457  1.00  0.00     0.013 A 
HETATM   25  C   UNL     1     -37.322  41.332 -59.511  1.00  0.00     0.043 A 
HETATM   26  C   UNL     1     -37.996  40.148 -59.238  1.00  0.00     0.116 A 
HETATM   27  F   UNL     1     -38.436  39.392 -60.251  1.00  0.00    -0.206 F 
HETATM   28  C   UNL     1     -38.217  39.738 -57.929  1.00  0.00     0.043 A 
HETATM   29  C   UNL     1     -37.754  40.525 -56.873  1.00  0.00     0.013 A 
ENDBRANCH  20  23
ENDBRANCH  19  20
ENDBRANCH   2  19
TORSDOF 6
ENDMDL
MODEL 10
REMARK VINA RESULT:      -7.6      5.895      9.232
REMARK  6 active torsions:
REMARK  status: ('A' for Active; 'I' for Inactive)
REMARK    1  A    between atoms: N_4  and  C_5 
REMARK    2  A    between atoms: C_14  and  C_15 
REMARK       I    between atoms: C_15  and  N_16 
REMARK    3  A    between atoms: N_16  and  C_17 
REMARK    4  A    between atoms: C_17  and  C_18 
REMARK    5  A    between atoms: C_18  and  O_19 
REMARK    6  A    between atoms: C_18  and  C_20 
ROOT
HETATM    1  C   UNL     1     -41.589  58.508 -53.238  1.00  0.00     0.255 C 
HETATM    2  N   UNL     1     -41.842  57.155 -53.225  1.00  0.00    -0.354 N 
HETATM    3  O   UNL     1     -40.618  58.986 -53.817  1.00  0.00    -0.268 OA
HETATM    4  H   UNL     1     -42.474  56.789 -52.525  1.00  0.00     0.162 HD
ENDROOT
BRANCH   1   5
HETATM    5  C   UNL     1     -42.522  59.339 -52.486  1.00  0.00     0.082 C 
HETATM    6  C   UNL     1     -43.877  59.569 -52.831  1.00  0.00     0.069 C 
HETATM    7  C   UNL     1     -44.621  59.063 -54.014  1.00  0.00     0.073 C 
HETATM    8  N   UNL     1     -44.504  60.322 -51.929  1.00  0.00    -0.171 NA
HETATM    9  N   UNL     1     -43.560  60.664 -51.019  1.00  0.00    -0.237 N 
HETATM   10  C   UNL     1     -42.361  59.993 -51.263  1.00  0.00     0.050 C 
HETATM   11  C   UNL     1     -41.232  59.917 -50.297  1.00  0.00     0.071 C 
BRANCH   9  12
HETATM   12  C   UNL     1     -43.918  61.598 -49.995  1.00  0.00     0.058 A 
HETATM   13  C   UNL     1     -43.449  62.922 -50.095  1.00  0.00     0.033 A 
HETATM   14  C   UNL     1     -43.775  63.872 -49.124  1.00  0.00     0.021 A 
HETATM   15  C   UNL     1     -44.554  63.501 -48.034  1.00  0.00     0.011 A 
HETATM   16 BR   UNL     1     -44.996  64.780 -46.714  1.00  0.00    -0.051 Br
HETATM   17  C   UNL     1     -45.003  62.188 -47.904  1.00  0.00     0.021 A 
HETATM   18  C   UNL     1     -44.683  61.235 -48.880  1.00  0.00     0.033 A 
ENDBRANCH   9  12
ENDBRANCH   1   5
BRANCH   2  19
HETATM   19  C   UNL     1     -40.889  56.215 -53.795  1.00  0.00     0.159 C 
BRANCH  19  20
HETATM   20  C   UNL     1     -41.539  54.857 -54.108  1.00  0.00     0.169 C 
BRANCH  20  21
HETATM   21  O   UNL     1     -42.923  54.894 -53.734  1.00  0.00    -0.389 OA
HETATM   22  H   UNL     1     -42.970  55.340 -52.869  1.00  0.00     0.210 HD
ENDBRANCH  20  21
BRANCH  20  23
HETATM   23  C   UNL     1     -40.838  53.716 -53.400  1.00  0.00    -0.028 A 
HETATM   24  C   UNL     1     -40.602  53.784 -52.016  1.00  0.00     0.013 A 
HETATM   25  C   UNL     1     -39.986  52.723 -51.350  1.00  0.00     0.043 A 
HETATM   26  C   UNL     1     -39.606  51.592 -52.062  1.00  0.00     0.116 A 
HETATM   27  F   UNL     1     -39.021  50.574 -51.419  1.00  0.00    -0.206 F 
HETATM   28  C   UNL     1     -39.826  51.504 -53.431  1.00  0.00     0.043 A 
HETATM   29  C   UNL     1     -40.439  52.564 -54.101  1.00  0.00     0.013 A 
ENDBRANCH  20  23
ENDBRANCH  19  20
ENDBRANCH   2  19
TORSDOF 6
ENDMDL
