MODEL 1
REMARK VINA RESULT:      -7.5      0.000      0.000
REMARK  6 active torsions:
REMARK  status: ('A' for Active; 'I' for Inactive)
REMARK    1  A    between atoms: C_2  and  N_3 
REMARK    2  A    between atoms: C_2  and  C_18 
REMARK    3  A    between atoms: N_3  and  C_6 
REMARK    4  A    between atoms: C_6  and  C_7 
REMARK    5  A    between atoms: C_10  and  N_11 
REMARK       I    between atoms: N_11  and  C_12 
REMARK    6  A    between atoms: C_12  and  O_13 
ROOT
HETATM    1  N   UNL     1     -41.065  56.089 -54.281  1.00  0.00    -0.063 N 
HETATM    2  H   UNL     1     -40.104  56.455 -54.286  1.00  0.00     0.278 HD
HETATM    3  H   UNL     1     -41.033  55.266 -54.893  1.00  0.00     0.278 HD
ENDROOT
BRANCH   1   4
HETATM    4  C   UNL     1     -41.403  55.672 -52.879  1.00  0.00     0.216 C 
HETATM    5  C   UNL     1     -42.911  55.771 -52.648  1.00  0.00     0.045 C 
BRANCH   4   6
HETATM    6  C   UNL     1     -40.888  54.280 -52.606  1.00  0.00    -0.009 A 
HETATM    7  C   UNL     1     -40.453  53.931 -51.331  1.00  0.00     0.126 A 
HETATM    8  N   UNL     1     -39.965  52.731 -50.970  1.00  0.00    -0.259 NA
HETATM    9  C   UNL     1     -39.918  51.784 -51.942  1.00  0.00     0.074 A 
HETATM   10  C   UNL     1     -40.334  52.031 -53.249  1.00  0.00     0.034 A 
HETATM   11  C   UNL     1     -39.456  50.447 -51.773  1.00  0.00     0.040 A 
HETATM   12  S   UNL     1     -40.149  50.636 -54.235  1.00  0.00    -0.100 SA
HETATM   13  C   UNL     1     -40.826  53.297 -53.604  1.00  0.00     0.032 A 
HETATM   14  C   UNL     1     -39.529  49.714 -52.936  1.00  0.00     0.053 A 
ENDBRANCH   4   6
ENDBRANCH   1   4
BRANCH   1  15
HETATM   15  C   UNL     1     -41.940  57.122 -54.907  1.00  0.00     0.271 C 
BRANCH  15  16
HETATM   16  C   UNL     1     -42.379  56.702 -56.282  1.00  0.00    -0.033 A 
HETATM   17  C   UNL     1     -42.402  57.621 -57.339  1.00  0.00     0.011 A 
HETATM   18  C   UNL     1     -42.829  57.235 -58.618  1.00  0.00     0.030 A 
HETATM   19  C   UNL     1     -43.233  55.925 -58.869  1.00  0.00     0.036 A 
HETATM   20  C   UNL     1     -43.197  55.005 -57.814  1.00  0.00     0.030 A 
HETATM   21  C   UNL     1     -42.781  55.386 -56.532  1.00  0.00     0.011 A 
BRANCH  19  22
HETATM   22  N   UNL     1     -43.666  55.439 -60.113  1.00  0.00    -0.303 N 
HETATM   23  C   UNL     1     -44.907  55.318 -60.680  1.00  0.00     0.364 C 
HETATM   24  O   UNL     1     -45.020  54.879 -61.820  1.00  0.00    -0.238 OA
HETATM   25  H   UNL     1     -42.958  55.094 -60.751  1.00  0.00     0.171 HD
BRANCH  23  26
HETATM   26  O   UNL     1     -45.952  55.682 -59.896  1.00  0.00    -0.309 OA
HETATM   27  C   UNL     1     -47.017  56.319 -60.605  1.00  0.00     0.215 C 
ENDBRANCH  23  26
ENDBRANCH  19  22
ENDBRANCH  15  16
ENDBRANCH   1  15
TORSDOF 6
ENDMDL
MODEL 2
REMARK VINA RESULT:      -7.3      1.539      2.279
REMARK  6 active torsions:
REMARK  status: ('A' for Active; 'I' for Inactive)
REMARK    1  A    between atoms: C_2  and  N_3 
REMARK    2  A    between atoms: C_2  and  C_18 
REMARK    3  A    between atoms: N_3  and  C_6 
REMARK    4  A    between atoms: C_6  and  C_7 
REMARK    5  A    between atoms: C_10  and  N_11 
REMARK       I    between atoms: N_11  and  C_12 
REMARK    6  A    between atoms: C_12  and  O_13 
ROOT
HETATM    1  N   UNL     1     -42.972  55.613 -51.603  1.00  0.00    -0.063 N 
HETATM    2  H   UNL     1     -43.269  54.712 -52.001  1.00  0.00     0.278 HD
HETATM    3  H   UNL     1     -43.400  55.639 -50.671  1.00  0.00     0.278 HD
ENDROOT
BRANCH   1   4
HETATM    4  C   UNL     1     -41.476  55.603 -51.479  1.00  0.00     0.216 C 
HETATM    5  C   UNL     1     -41.046  56.360 -50.223  1.00  0.00     0.045 C 
BRANCH   4   6
HETATM    6  C   UNL     1     -40.957  54.186 -51.480  1.00  0.00    -0.009 A 
HETATM    7  C   UNL     1     -40.702  53.532 -50.278  1.00  0.00     0.126 A 
HETATM    8  N   UNL     1     -40.230  52.279 -50.152  1.00  0.00    -0.259 NA
HETATM    9  C   UNL     1     -40.008  51.601 -51.308  1.00  0.00     0.074 A 
HETATM   10  C   UNL     1     -40.236  52.164 -52.563  1.00  0.00     0.034 A 
HETATM   11  C   UNL     1     -39.529  50.263 -51.404  1.00  0.00     0.040 A 
HETATM   12  S   UNL     1     -39.860  51.056 -53.820  1.00  0.00    -0.100 SA
HETATM   13  C   UNL     1     -40.716  53.480 -52.667  1.00  0.00     0.032 A 
HETATM   14  C   UNL     1     -39.404  49.841 -52.708  1.00  0.00     0.053 A 
ENDBRANCH   4   6
ENDBRANCH   1   4
BRANCH   1  15
HETATM   15  C   UNL     1     -43.573  56.691 -52.442  1.00  0.00     0.271 C 
BRANCH  15  16
HETATM   16  C   UNL     1     -43.264  56.482 -53.897  1.00  0.00    -0.033 A 
HETATM   17  C   UNL     1     -43.445  55.228 -54.496  1.00  0.00     0.011 A 
HETATM   18  C   UNL     1     -43.140  55.027 -55.850  1.00  0.00     0.030 A 
HETATM   19  C   UNL     1     -42.656  56.072 -56.635  1.00  0.00     0.036 A 
HETATM   20  C   UNL     1     -42.488  57.328 -56.037  1.00  0.00     0.030 A 
HETATM   21  C   UNL     1     -42.781  57.533 -54.684  1.00  0.00     0.011 A 
BRANCH  19  22
HETATM   22  N   UNL     1     -42.333  55.975 -57.997  1.00  0.00    -0.303 N 
HETATM   23  C   UNL     1     -43.073  56.133 -59.139  1.00  0.00     0.364 C 
HETATM   24  O   UNL     1     -42.537  56.020 -60.237  1.00  0.00    -0.238 OA
HETATM   25  H   UNL     1     -41.377  55.738 -58.234  1.00  0.00     0.171 HD
BRANCH  23  26
HETATM   26  O   UNL     1     -44.393  56.384 -58.957  1.00  0.00    -0.309 OA
HETATM   27  C   UNL     1     -45.229  55.899 -60.010  1.00  0.00     0.215 C 
ENDBRANCH  23  26
ENDBRANCH  19  22
ENDBRANCH  15  16
ENDBRANCH   1  15
TORSDOF 6
ENDMDL
MODEL 3
REMARK VINA RESULT:      -7.3      4.031      7.770
REMARK  6 active torsions:
REMARK  status: ('A' for Active; 'I' for Inactive)
REMARK    1  A    between atoms: C_2  and  N_3 
REMARK    2  A    between atoms: C_2  and  C_18 
REMARK    3  A    between atoms: N_3  and  C_6 
REMARK    4  A    between atoms: C_6  and  C_7 
REMARK    5  A    between atoms: C_10  and  N_11 
REMARK       I    between atoms: N_11  and  C_12 
REMARK    6  A    between atoms: C_12  and  O_13 
ROOT
HETATM    1  N   UNL     1     -42.685  57.564 -53.573  1.00  0.00    -0.063 N 
HETATM    2  H   UNL     1     -43.273  57.631 -52.732  1.00  0.00     0.278 HD
HETATM    3  H   UNL     1     -43.110  56.813 -54.128  1.00  0.00     0.278 HD
ENDROOT
BRANCH   1   4
HETATM    4  C   UNL     1     -42.774  58.864 -54.316  1.00  0.00     0.216 C 
HETATM    5  C   UNL     1     -41.759  59.862 -53.759  1.00  0.00     0.045 C 
BRANCH   4   6
HETATM    6  C   UNL     1     -42.577  58.638 -55.796  1.00  0.00    -0.009 A 
HETATM    7  C   UNL     1     -42.014  59.634 -56.588  1.00  0.00     0.126 A 
HETATM    8  N   UNL     1     -41.800  59.555 -57.913  1.00  0.00    -0.259 NA
HETATM    9  C   UNL     1     -42.153  58.386 -58.510  1.00  0.00     0.074 A 
HETATM   10  C   UNL     1     -42.720  57.326 -57.805  1.00  0.00     0.034 A 
HETATM   11  C   UNL     1     -41.997  58.084 -59.894  1.00  0.00     0.040 A 
HETATM   12  S   UNL     1     -43.051  55.996 -58.841  1.00  0.00    -0.100 SA
HETATM   13  C   UNL     1     -42.946  57.440 -56.424  1.00  0.00     0.032 A 
HETATM   14  C   UNL     1     -42.442  56.820 -60.209  1.00  0.00     0.053 A 
ENDBRANCH   4   6
ENDBRANCH   1   4
BRANCH   1  15
HETATM   15  C   UNL     1     -41.327  57.129 -53.133  1.00  0.00     0.271 C 
BRANCH  15  16
HETATM   16  C   UNL     1     -41.098  55.674 -53.433  1.00  0.00    -0.033 A 
HETATM   17  C   UNL     1     -41.517  54.683 -52.535  1.00  0.00     0.011 A 
HETATM   18  C   UNL     1     -41.288  53.326 -52.805  1.00  0.00     0.030 A 
HETATM   19  C   UNL     1     -40.644  52.930 -53.976  1.00  0.00     0.036 A 
HETATM   20  C   UNL     1     -40.238  53.923 -54.877  1.00  0.00     0.030 A 
HETATM   21  C   UNL     1     -40.454  55.279 -54.610  1.00  0.00     0.011 A 
BRANCH  19  22
HETATM   22  N   UNL     1     -40.379  51.601 -54.341  1.00  0.00    -0.303 N 
HETATM   23  C   UNL     1     -39.716  50.582 -53.710  1.00  0.00     0.364 C 
HETATM   24  O   UNL     1     -39.645  49.477 -54.239  1.00  0.00    -0.238 OA
HETATM   25  H   UNL     1     -40.719  51.288 -55.243  1.00  0.00     0.171 HD
BRANCH  23  26
HETATM   26  O   UNL     1     -39.150  50.894 -52.519  1.00  0.00    -0.309 OA
HETATM   27  C   UNL     1     -39.538  50.034 -51.445  1.00  0.00     0.215 C 
ENDBRANCH  23  26
ENDBRANCH  19  22
ENDBRANCH  15  16
ENDBRANCH   1  15
TORSDOF 6
ENDMDL
MODEL 4
REMARK VINA RESULT:      -7.1      3.996      7.892
REMARK  6 active torsions:
REMARK  status: ('A' for Active; 'I' for Inactive)
REMARK    1  A    between atoms: C_2  and  N_3 
REMARK    2  A    between atoms: C_2  and  C_18 
REMARK    3  A    between atoms: N_3  and  C_6 
REMARK    4  A    between atoms: C_6  and  C_7 
REMARK    5  A    between atoms: C_10  and  N_11 
REMARK       I    between atoms: N_11  and  C_12 
REMARK    6  A    between atoms: C_12  and  O_13 
ROOT
HETATM    1  N   UNL     1     -42.928  57.276 -53.852  1.00  0.00    -0.063 N 
HETATM    2  H   UNL     1     -43.496  57.401 -53.003  1.00  0.00     0.278 HD
HETATM    3  H   UNL     1     -43.323  56.446 -54.308  1.00  0.00     0.278 HD
ENDROOT
BRANCH   1   4
HETATM    4  C   UNL     1     -43.117  58.481 -54.727  1.00  0.00     0.216 C 
HETATM    5  C   UNL     1     -41.802  59.247 -54.860  1.00  0.00     0.045 C 
BRANCH   4   6
HETATM    6  C   UNL     1     -43.663  58.072 -56.073  1.00  0.00    -0.009 A 
HETATM    7  C   UNL     1     -44.942  58.462 -56.459  1.00  0.00     0.126 A 
HETATM    8  N   UNL     1     -45.539  58.152 -57.623  1.00  0.00    -0.259 NA
HETATM    9  C   UNL     1     -44.807  57.409 -58.494  1.00  0.00     0.074 A 
HETATM   10  C   UNL     1     -43.516  56.972 -58.206  1.00  0.00     0.034 A 
HETATM   11  C   UNL     1     -45.238  56.986 -59.785  1.00  0.00     0.040 A 
HETATM   12  S   UNL     1     -42.863  56.058 -59.506  1.00  0.00    -0.100 SA
HETATM   13  C   UNL     1     -42.920  57.298 -56.977  1.00  0.00     0.032 A 
HETATM   14  C   UNL     1     -44.280  56.248 -60.442  1.00  0.00     0.053 A 
ENDBRANCH   4   6
ENDBRANCH   1   4
BRANCH   1  15
HETATM   15  C   UNL     1     -41.535  56.970 -53.415  1.00  0.00     0.271 C 
BRANCH  15  16
HETATM   16  C   UNL     1     -41.188  55.531 -53.675  1.00  0.00    -0.033 A 
HETATM   17  C   UNL     1     -40.417  55.170 -54.787  1.00  0.00     0.011 A 
HETATM   18  C   UNL     1     -40.107  53.825 -55.041  1.00  0.00     0.030 A 
HETATM   19  C   UNL     1     -40.554  52.817 -54.188  1.00  0.00     0.036 A 
HETATM   20  C   UNL     1     -41.314  53.183 -53.070  1.00  0.00     0.030 A 
HETATM   21  C   UNL     1     -41.635  54.522 -52.816  1.00  0.00     0.011 A 
BRANCH  19  22
HETATM   22  N   UNL     1     -40.290  51.448 -54.350  1.00  0.00    -0.303 N 
HETATM   23  C   UNL     1     -39.703  50.515 -53.536  1.00  0.00     0.364 C 
HETATM   24  O   UNL     1     -39.614  49.349 -53.906  1.00  0.00    -0.238 OA
HETATM   25  H   UNL     1     -40.563  51.021 -55.227  1.00  0.00     0.171 HD
BRANCH  23  26
HETATM   26  O   UNL     1     -39.227  50.979 -52.354  1.00  0.00    -0.309 OA
HETATM   27  C   UNL     1     -39.481  50.114 -51.245  1.00  0.00     0.215 C 
ENDBRANCH  23  26
ENDBRANCH  19  22
ENDBRANCH  15  16
ENDBRANCH   1  15
TORSDOF 6
ENDMDL
MODEL 5
REMARK VINA RESULT:      -7.0      3.123      5.466
REMARK  6 active torsions:
REMARK  status: ('A' for Active; 'I' for Inactive)
REMARK    1  A    between atoms: C_2  and  N_3 
REMARK    2  A    between atoms: C_2  and  C_18 
REMARK    3  A    between atoms: N_3  and  C_6 
REMARK    4  A    between atoms: C_6  and  C_7 
REMARK    5  A    between atoms: C_10  and  N_11 
REMARK       I    between atoms: N_11  and  C_12 
REMARK    6  A    between atoms: C_12  and  O_13 
ROOT
HETATM    1  N   UNL     1     -39.848  53.429 -51.343  1.00  0.00    -0.063 N 
HETATM    2  H   UNL     1     -39.599  54.323 -51.786  1.00  0.00     0.278 HD
HETATM    3  H   UNL     1     -38.953  53.031 -51.037  1.00  0.00     0.278 HD
ENDROOT
BRANCH   1   4
HETATM    4  C   UNL     1     -40.715  53.718 -50.152  1.00  0.00     0.216 C 
HETATM    5  C   UNL     1     -39.852  54.131 -48.960  1.00  0.00     0.045 C 
BRANCH   4   6
HETATM    6  C   UNL     1     -41.739  54.774 -50.491  1.00  0.00    -0.009 A 
HETATM    7  C   UNL     1     -43.097  54.496 -50.377  1.00  0.00     0.126 A 
HETATM    8  N   UNL     1     -44.099  55.347 -50.659  1.00  0.00    -0.259 NA
HETATM    9  C   UNL     1     -43.733  56.589 -51.071  1.00  0.00     0.074 A 
HETATM   10  C   UNL     1     -42.400  56.969 -51.214  1.00  0.00     0.034 A 
HETATM   11  C   UNL     1     -44.628  57.647 -51.404  1.00  0.00     0.040 A 
HETATM   12  S   UNL     1     -42.271  58.597 -51.749  1.00  0.00    -0.100 SA
HETATM   13  C   UNL     1     -41.373  56.056 -50.926  1.00  0.00     0.032 A 
HETATM   14  C   UNL     1     -43.968  58.793 -51.786  1.00  0.00     0.053 A 
ENDBRANCH   4   6
ENDBRANCH   1   4
BRANCH   1  15
HETATM   15  C   UNL     1     -40.428  52.553 -52.403  1.00  0.00     0.271 C 
BRANCH  15  16
HETATM   16  C   UNL     1     -40.960  53.366 -53.549  1.00  0.00    -0.033 A 
HETATM   17  C   UNL     1     -42.336  53.428 -53.806  1.00  0.00     0.011 A 
HETATM   18  C   UNL     1     -42.832  54.172 -54.887  1.00  0.00     0.030 A 
HETATM   19  C   UNL     1     -41.969  54.874 -55.726  1.00  0.00     0.036 A 
HETATM   20  C   UNL     1     -40.595  54.821 -55.459  1.00  0.00     0.030 A 
HETATM   21  C   UNL     1     -40.092  54.073 -54.388  1.00  0.00     0.011 A 
BRANCH  19  22
HETATM   22  N   UNL     1     -42.368  55.653 -56.824  1.00  0.00    -0.303 N 
HETATM   23  C   UNL     1     -42.843  56.933 -56.927  1.00  0.00     0.364 C 
HETATM   24  O   UNL     1     -43.098  57.405 -58.031  1.00  0.00    -0.238 OA
HETATM   25  H   UNL     1     -42.317  55.226 -57.741  1.00  0.00     0.171 HD
BRANCH  23  26
HETATM   26  O   UNL     1     -43.024  57.592 -55.756  1.00  0.00    -0.309 OA
HETATM   27  C   UNL     1     -42.295  58.817 -55.658  1.00  0.00     0.215 C 
ENDBRANCH  23  26
ENDBRANCH  19  22
ENDBRANCH  15  16
ENDBRANCH   1  15
TORSDOF 6
ENDMDL
MODEL 6
REMARK VINA RESULT:      -6.9     14.392     15.887
REMARK  6 active torsions:
REMARK  status: ('A' for Active; 'I' for Inactive)
REMARK    1  A    between atoms: C_2  and  N_3 
REMARK    2  A    between atoms: C_2  and  C_18 
REMARK    3  A    between atoms: N_3  and  C_6 
REMARK    4  A    between atoms: C_6  and  C_7 
REMARK    5  A    between atoms: C_10  and  N_11 
REMARK       I    between atoms: N_11  and  C_12 
REMARK    6  A    between atoms: C_12  and  O_13 
ROOT
HETATM    1  N   UNL     1     -36.850  42.374 -55.358  1.00  0.00    -0.063 N 
HETATM    2  H   UNL     1     -37.238  43.326 -55.402  1.00  0.00     0.278 HD
HETATM    3  H   UNL     1     -36.102  42.366 -56.060  1.00  0.00     0.278 HD
ENDROOT
BRANCH   1   4
HETATM    4  C   UNL     1     -36.270  42.164 -53.990  1.00  0.00     0.216 C 
HETATM    5  C   UNL     1     -37.300  41.499 -53.076  1.00  0.00     0.045 C 
BRANCH   4   6
HETATM    6  C   UNL     1     -34.998  41.357 -54.076  1.00  0.00    -0.009 A 
HETATM    7  C   UNL     1     -34.491  40.724 -52.945  1.00  0.00     0.126 A 
HETATM    8  N   UNL     1     -33.366  39.990 -52.895  1.00  0.00    -0.259 NA
HETATM    9  C   UNL     1     -32.688  39.848 -54.064  1.00  0.00     0.074 A 
HETATM   10  C   UNL     1     -33.114  40.438 -55.253  1.00  0.00     0.034 A 
HETATM   11  C   UNL     1     -31.488  39.101 -54.239  1.00  0.00     0.040 A 
HETATM   12  S   UNL     1     -32.045  40.071 -56.547  1.00  0.00    -0.100 SA
HETATM   13  C   UNL     1     -34.286  41.211 -55.275  1.00  0.00     0.032 A 
HETATM   14  C   UNL     1     -31.032  39.136 -55.537  1.00  0.00     0.053 A 
ENDBRANCH   4   6
ENDBRANCH   1   4
BRANCH   1  15
HETATM   15  C   UNL     1     -37.926  41.434 -55.787  1.00  0.00     0.271 C 
BRANCH  15  16
HETATM   16  C   UNL     1     -37.716  40.977 -57.203  1.00  0.00    -0.033 A 
HETATM   17  C   UNL     1     -37.884  39.631 -57.553  1.00  0.00     0.011 A 
HETATM   18  C   UNL     1     -37.670  39.200 -58.871  1.00  0.00     0.030 A 
HETATM   19  C   UNL     1     -37.291  40.101 -59.864  1.00  0.00     0.036 A 
HETATM   20  C   UNL     1     -37.136  41.448 -59.513  1.00  0.00     0.030 A 
HETATM   21  C   UNL     1     -37.339  41.884 -58.199  1.00  0.00     0.011 A 
BRANCH  19  22
HETATM   22  N   UNL     1     -37.064  39.771 -61.209  1.00  0.00    -0.303 N 
HETATM   23  C   UNL     1     -37.771  39.020 -62.111  1.00  0.00     0.364 C 
HETATM   24  O   UNL     1     -37.365  38.904 -63.263  1.00  0.00    -0.238 OA
HETATM   25  H   UNL     1     -36.221  40.131 -61.642  1.00  0.00     0.171 HD
BRANCH  23  26
HETATM   26  O   UNL     1     -38.889  38.422 -61.633  1.00  0.00    -0.309 OA
HETATM   27  C   UNL     1     -39.746  37.893 -62.648  1.00  0.00     0.215 C 
ENDBRANCH  23  26
ENDBRANCH  19  22
ENDBRANCH  15  16
ENDBRANCH   1  15
TORSDOF 6
ENDMDL
MODEL 7
REMARK VINA RESULT:      -6.8      3.247      5.716
REMARK  6 active torsions:
REMARK  status: ('A' for Active; 'I' for Inactive)
REMARK    1  A    between atoms: C_2  and  N_3 
REMARK    2  A    between atoms: C_2  and  C_18 
REMARK    3  A    between atoms: N_3  and  C_6 
REMARK    4  A    between atoms: C_6  and  C_7 
REMARK    5  A    between atoms: C_10  and  N_11 
REMARK       I    between atoms: N_11  and  C_12 
REMARK    6  A    between atoms: C_12  and  O_13 
ROOT
HETATM    1  N   UNL     1     -40.397  54.098 -50.994  1.00  0.00    -0.063 N 
HETATM    2  H   UNL     1     -39.994  54.876 -51.533  1.00  0.00     0.278 HD
HETATM    3  H   UNL     1     -39.612  53.722 -50.452  1.00  0.00     0.278 HD
ENDROOT
BRANCH   1   4
HETATM    4  C   UNL     1     -41.439  54.655 -50.069  1.00  0.00     0.216 C 
HETATM    5  C   UNL     1     -40.921  54.658 -48.631  1.00  0.00     0.045 C 
BRANCH   4   6
HETATM    6  C   UNL     1     -41.854  56.037 -50.515  1.00  0.00    -0.009 A 
HETATM    7  C   UNL     1     -40.926  57.074 -50.537  1.00  0.00     0.126 A 
HETATM    8  N   UNL     1     -41.177  58.343 -50.902  1.00  0.00    -0.259 NA
HETATM    9  C   UNL     1     -42.448  58.614 -51.300  1.00  0.00     0.074 A 
HETATM   10  C   UNL     1     -43.449  57.645 -51.318  1.00  0.00     0.034 A 
HETATM   11  C   UNL     1     -42.924  59.882 -51.742  1.00  0.00     0.040 A 
HETATM   12  S   UNL     1     -44.939  58.300 -51.869  1.00  0.00    -0.100 SA
HETATM   13  C   UNL     1     -43.164  56.329 -50.919  1.00  0.00     0.032 A 
HETATM   14  C   UNL     1     -44.257  59.852 -52.084  1.00  0.00     0.053 A 
ENDBRANCH   4   6
ENDBRANCH   1   4
BRANCH   1  15
HETATM   15  C   UNL     1     -40.846  53.064 -51.972  1.00  0.00     0.271 C 
BRANCH  15  16
HETATM   16  C   UNL     1     -41.280  53.693 -53.266  1.00  0.00    -0.033 A 
HETATM   17  C   UNL     1     -42.636  53.921 -53.532  1.00  0.00     0.011 A 
HETATM   18  C   UNL     1     -43.044  54.491 -54.747  1.00  0.00     0.030 A 
HETATM   19  C   UNL     1     -42.109  54.850 -55.717  1.00  0.00     0.036 A 
HETATM   20  C   UNL     1     -40.753  54.632 -55.443  1.00  0.00     0.030 A 
HETATM   21  C   UNL     1     -40.339  54.055 -54.236  1.00  0.00     0.011 A 
BRANCH  19  22
HETATM   22  N   UNL     1     -42.415  55.434 -56.956  1.00  0.00    -0.303 N 
HETATM   23  C   UNL     1     -42.838  56.688 -57.310  1.00  0.00     0.364 C 
HETATM   24  O   UNL     1     -43.011  56.964 -58.493  1.00  0.00    -0.238 OA
HETATM   25  H   UNL     1     -42.327  54.851 -57.780  1.00  0.00     0.171 HD
BRANCH  23  26
HETATM   26  O   UNL     1     -43.063  57.546 -56.285  1.00  0.00    -0.309 OA
HETATM   27  C   UNL     1     -42.370  58.791 -56.406  1.00  0.00     0.215 C 
ENDBRANCH  23  26
ENDBRANCH  19  22
ENDBRANCH  15  16
ENDBRANCH   1  15
TORSDOF 6
ENDMDL
MODEL 8
REMARK VINA RESULT:      -6.7      4.030      8.014
REMARK  6 active torsions:
REMARK  status: ('A' for Active; 'I' for Inactive)
REMARK    1  A    between atoms: C_2  and  N_3 
REMARK    2  A    between atoms: C_2  and  C_18 
REMARK    3  A    between atoms: N_3  and  C_6 
REMARK    4  A    between atoms: C_6  and  C_7 
REMARK    5  A    between atoms: C_10  and  N_11 
REMARK       I    between atoms: N_11  and  C_12 
REMARK    6  A    between atoms: C_12  and  O_13 
ROOT
HETATM    1  N   UNL     1     -42.303  57.694 -51.669  1.00  0.00    -0.063 N 
HETATM    2  H   UNL     1     -43.175  58.091 -51.294  1.00  0.00     0.278 HD
HETATM    3  H   UNL     1     -42.599  56.858 -52.185  1.00  0.00     0.278 HD
ENDROOT
BRANCH   1   4
HETATM    4  C   UNL     1     -41.698  58.692 -52.612  1.00  0.00     0.216 C 
HETATM    5  C   UNL     1     -40.196  58.818 -52.356  1.00  0.00     0.045 C 
BRANCH   4   6
HETATM    6  C   UNL     1     -41.988  58.307 -54.042  1.00  0.00    -0.009 A 
HETATM    7  C   UNL     1     -42.013  59.278 -55.039  1.00  0.00     0.126 A 
HETATM    8  N   UNL     1     -42.270  59.059 -56.341  1.00  0.00    -0.259 NA
HETATM    9  C   UNL     1     -42.504  57.770 -56.699  1.00  0.00     0.074 A 
HETATM   10  C   UNL     1     -42.498  56.723 -55.778  1.00  0.00     0.034 A 
HETATM   11  C   UNL     1     -42.778  57.315 -58.021  1.00  0.00     0.040 A 
HETATM   12  S   UNL     1     -42.827  55.220 -56.542  1.00  0.00    -0.100 SA
HETATM   13  C   UNL     1     -42.240  56.980 -54.422  1.00  0.00     0.032 A 
HETATM   14  C   UNL     1     -42.971  55.953 -58.079  1.00  0.00     0.053 A 
ENDBRANCH   4   6
ENDBRANCH   1   4
BRANCH   1  15
HETATM   15  C   UNL     1     -41.470  57.274 -50.505  1.00  0.00     0.271 C 
BRANCH  15  16
HETATM   16  C   UNL     1     -41.176  55.801 -50.552  1.00  0.00    -0.033 A 
HETATM   17  C   UNL     1     -41.963  54.937 -51.325  1.00  0.00     0.011 A 
HETATM   18  C   UNL     1     -41.702  53.559 -51.355  1.00  0.00     0.030 A 
HETATM   19  C   UNL     1     -40.647  53.017 -50.622  1.00  0.00     0.036 A 
HETATM   20  C   UNL     1     -39.854  53.885 -49.860  1.00  0.00     0.030 A 
HETATM   21  C   UNL     1     -40.115  55.259 -49.818  1.00  0.00     0.011 A 
BRANCH  19  22
HETATM   22  N   UNL     1     -40.299  51.658 -50.594  1.00  0.00    -0.303 N 
HETATM   23  C   UNL     1     -39.562  50.873 -51.441  1.00  0.00     0.364 C 
HETATM   24  O   UNL     1     -39.374  49.691 -51.172  1.00  0.00    -0.238 OA
HETATM   25  H   UNL     1     -40.641  51.105 -49.817  1.00  0.00     0.171 HD
BRANCH  23  26
HETATM   26  O   UNL     1     -39.103  51.482 -52.562  1.00  0.00    -0.309 OA
HETATM   27  C   UNL     1     -39.792  51.102 -53.755  1.00  0.00     0.215 C 
ENDBRANCH  23  26
ENDBRANCH  19  22
ENDBRANCH  15  16
ENDBRANCH   1  15
TORSDOF 6
ENDMDL
MODEL 9
REMARK VINA RESULT:      -6.7      4.246      7.111
REMARK  6 active torsions:
REMARK  status: ('A' for Active; 'I' for Inactive)
REMARK    1  A    between atoms: C_2  and  N_3 
REMARK    2  A    between atoms: C_2  and  C_18 
REMARK    3  A    between atoms: N_3  and  C_6 
REMARK    4  A    between atoms: C_6  and  C_7 
REMARK    5  A    between atoms: C_10  and  N_11 
REMARK       I    between atoms: N_11  and  C_12 
REMARK    6  A    between atoms: C_12  and  O_13 
ROOT
HETATM    1  N   UNL     1     -44.132  56.705 -56.019  1.00  0.00    -0.063 N 
HETATM    2  H   UNL     1     -44.226  56.261 -55.096  1.00  0.00     0.278 HD
HETATM    3  H   UNL     1     -45.041  56.559 -56.471  1.00  0.00     0.278 HD
ENDROOT
BRANCH   1   4
HETATM    4  C   UNL     1     -43.890  58.172 -55.815  1.00  0.00     0.216 C 
HETATM    5  C   UNL     1     -45.214  58.896 -55.572  1.00  0.00     0.045 C 
BRANCH   4   6
HETATM    6  C   UNL     1     -42.919  58.392 -54.680  1.00  0.00    -0.009 A 
HETATM    7  C   UNL     1     -41.943  59.380 -54.775  1.00  0.00     0.126 A 
HETATM    8  N   UNL     1     -41.019  59.661 -53.840  1.00  0.00    -0.259 NA
HETATM    9  C   UNL     1     -41.070  58.920 -52.702  1.00  0.00     0.074 A 
HETATM   10  C   UNL     1     -42.011  57.911 -52.507  1.00  0.00     0.034 A 
HETATM   11  C   UNL     1     -40.202  59.064 -51.582  1.00  0.00     0.040 A 
HETATM   12  S   UNL     1     -41.813  57.164 -50.973  1.00  0.00    -0.100 SA
HETATM   13  C   UNL     1     -42.957  57.628 -53.506  1.00  0.00     0.032 A 
HETATM   14  C   UNL     1     -40.495  58.175 -50.572  1.00  0.00     0.053 A 
ENDBRANCH   4   6
ENDBRANCH   1   4
BRANCH   1  15
HETATM   15  C   UNL     1     -43.091  55.948 -56.773  1.00  0.00     0.271 C 
BRANCH  15  16
HETATM   16  C   UNL     1     -42.303  55.051 -55.860  1.00  0.00    -0.033 A 
HETATM   17  C   UNL     1     -40.951  55.305 -55.596  1.00  0.00     0.011 A 
HETATM   18  C   UNL     1     -40.210  54.458 -54.759  1.00  0.00     0.030 A 
HETATM   19  C   UNL     1     -40.803  53.346 -54.164  1.00  0.00     0.036 A 
HETATM   20  C   UNL     1     -42.159  53.101 -54.420  1.00  0.00     0.030 A 
HETATM   21  C   UNL     1     -42.902  53.937 -55.262  1.00  0.00     0.011 A 
BRANCH  19  22
HETATM   22  N   UNL     1     -40.152  52.447 -53.306  1.00  0.00    -0.303 N 
HETATM   23  C   UNL     1     -40.059  52.370 -51.941  1.00  0.00     0.364 C 
HETATM   24  O   UNL     1     -39.439  51.449 -51.420  1.00  0.00    -0.238 OA
HETATM   25  H   UNL     1     -39.629  51.691 -53.732  1.00  0.00     0.171 HD
BRANCH  23  26
HETATM   26  O   UNL     1     -40.661  53.370 -51.252  1.00  0.00    -0.309 OA
HETATM   27  C   UNL     1     -39.977  53.745 -50.054  1.00  0.00     0.215 C 
ENDBRANCH  23  26
ENDBRANCH  19  22
ENDBRANCH  15  16
ENDBRANCH   1  15
TORSDOF 6
ENDMDL
MODEL 10
REMARK VINA RESULT:      -6.7     14.432     16.386
REMARK  6 active torsions:
REMARK  status: ('A' for Active; 'I' for Inactive)
REMARK    1  A    between atoms: C_2  and  N_3 
REMARK    2  A    between atoms: C_2  and  C_18 
REMARK    3  A    between atoms: N_3  and  C_6 
REMARK    4  A    between atoms: C_6  and  C_7 
REMARK    5  A    between atoms: C_10  and  N_11 
REMARK       I    between atoms: N_11  and  C_12 
REMARK    6  A    between atoms: C_12  and  O_13 
ROOT
HETATM    1  N   UNL     1     -34.275  41.932 -52.289  1.00  0.00    -0.063 N 
HETATM    2  H   UNL     1     -34.176  42.870 -51.877  1.00  0.00     0.278 HD
HETATM    3  H   UNL     1     -33.842  42.009 -53.216  1.00  0.00     0.278 HD
ENDROOT
BRANCH   1   4
HETATM    4  C   UNL     1     -33.506  40.961 -51.443  1.00  0.00     0.216 C 
HETATM    5  C   UNL     1     -34.450  40.225 -50.492  1.00  0.00     0.045 C 
BRANCH   4   6
HETATM    6  C   UNL     1     -32.733  40.001 -52.314  1.00  0.00    -0.009 A 
HETATM    7  C   UNL     1     -32.348  38.759 -51.818  1.00  0.00     0.126 A 
HETATM    8  N   UNL     1     -31.650  37.827 -52.492  1.00  0.00    -0.259 NA
HETATM    9  C   UNL     1     -31.319  38.135 -53.773  1.00  0.00     0.074 A 
HETATM   10  C   UNL     1     -31.661  39.350 -54.365  1.00  0.00     0.034 A 
HETATM   11  C   UNL     1     -30.601  37.290 -54.668  1.00  0.00     0.040 A 
HETATM   12  S   UNL     1     -31.099  39.432 -55.986  1.00  0.00    -0.100 SA
HETATM   13  C   UNL     1     -32.378  40.311 -53.635  1.00  0.00     0.032 A 
HETATM   14  C   UNL     1     -30.414  37.869 -55.902  1.00  0.00     0.053 A 
ENDBRANCH   4   6
ENDBRANCH   1   4
BRANCH   1  15
HETATM   15  C   UNL     1     -35.734  41.672 -52.458  1.00  0.00     0.271 C 
BRANCH  15  16
HETATM   16  C   UNL     1     -36.141  41.776 -53.901  1.00  0.00    -0.033 A 
HETATM   17  C   UNL     1     -37.384  41.292 -54.332  1.00  0.00     0.011 A 
HETATM   18  C   UNL     1     -37.757  41.371 -55.681  1.00  0.00     0.030 A 
HETATM   19  C   UNL     1     -36.904  41.940 -56.625  1.00  0.00     0.036 A 
HETATM   20  C   UNL     1     -35.668  42.434 -56.190  1.00  0.00     0.030 A 
HETATM   21  C   UNL     1     -35.284  42.350 -54.846  1.00  0.00     0.011 A 
BRANCH  19  22
HETATM   22  N   UNL     1     -37.189  42.075 -57.993  1.00  0.00    -0.303 N 
HETATM   23  C   UNL     1     -36.963  41.261 -59.072  1.00  0.00     0.364 C 
HETATM   24  O   UNL     1     -37.344  41.603 -60.187  1.00  0.00    -0.238 OA
HETATM   25  H   UNL     1     -37.648  42.928 -58.292  1.00  0.00     0.171 HD
BRANCH  23  26
HETATM   26  O   UNL     1     -36.290  40.113 -58.814  1.00  0.00    -0.309 OA
HETATM   27  C   UNL     1     -37.106  38.940 -58.848  1.00  0.00     0.215 C 
ENDBRANCH  23  26
ENDBRANCH  19  22
ENDBRANCH  15  16
ENDBRANCH   1  15
TORSDOF 6
ENDMDL
