MODEL 1
REMARK VINA RESULT:      -8.0      0.000      0.000
REMARK  9 active torsions:
REMARK  status: ('A' for Active; 'I' for Inactive)
REMARK    1  A    between atoms: C_2  and  C_3 
REMARK    2  A    between atoms: C_6  and  N_7 
REMARK    3  A    between atoms: C_8  and  O_9 
REMARK    4  A    between atoms: C_8  and  C_10 
REMARK       I    between atoms: C_10  and  N_11 
REMARK    5  A    between atoms: N_11  and  C_12 
REMARK    6  A    between atoms: C_12  and  C_13 
REMARK    7  A    between atoms: C_13  and  N_14 
REMARK    8  A    between atoms: N_14  and  C_16 
REMARK    9  A    between atoms: N_14  and  C_18 
ROOT
HETATM    1  N   UNL     1     -42.450  56.044 -53.695  1.00  0.00    -0.254 N 
HETATM    2  C   UNL     1     -41.893  57.401 -53.687  1.00  0.00     0.256 C 
HETATM    3  C   UNL     1     -42.579  58.266 -52.664  1.00  0.00     0.034 A 
HETATM    4  C   UNL     1     -43.939  58.024 -52.455  1.00  0.00     0.048 A 
HETATM    5  N   UNL     1     -44.536  56.975 -53.157  1.00  0.00    -0.308 N 
HETATM    6  C   UNL     1     -43.840  55.955 -53.773  1.00  0.00     0.330 C 
HETATM    7  O   UNL     1     -44.485  55.052 -54.301  1.00  0.00    -0.246 OA
HETATM    8  C   UNL     1     -41.963  59.326 -51.989  1.00  0.00     0.015 A 
HETATM    9  C   UNL     1     -42.706  60.125 -51.121  1.00  0.00     0.001 A 
HETATM   10  C   UNL     1     -44.066  59.880 -50.932  1.00  0.00     0.002 A 
HETATM   11  C   UNL     1     -44.691  58.830 -51.606  1.00  0.00     0.030 A 
HETATM   12  H   UNL     1     -45.527  56.795 -53.043  1.00  0.00     0.170 HD
ENDROOT
BRANCH   2  13
HETATM   13  O   UNL     1     -40.483  57.433 -53.487  1.00  0.00    -0.359 OA
HETATM   14  H   UNL     1     -40.098  56.997 -54.270  1.00  0.00     0.213 HD
ENDBRANCH   2  13
BRANCH   2  15
HETATM   15  C   UNL     1     -42.084  57.909 -55.186  1.00  0.00     0.279 C 
HETATM   16  N   UNL     1     -42.514  57.022 -56.152  1.00  0.00    -0.355 N 
HETATM   17  H   UNL     1     -42.942  56.163 -55.815  1.00  0.00     0.162 HD
HETATM   18  O   UNL     1     -41.708  59.038 -55.529  1.00  0.00    -0.268 OA
BRANCH  16  19
HETATM   19  C   UNL     1     -42.866  57.385 -57.524  1.00  0.00     0.150 C 
BRANCH  19  20
HETATM   20  C   UNL     1     -44.353  57.598 -57.886  1.00  0.00     0.254 C 
BRANCH  20  21
HETATM   21  N   UNL     1     -44.893  56.611 -58.906  1.00  0.00    -0.070 N 
HETATM   22  H   UNL     1     -45.537  56.026 -58.342  1.00  0.00     0.279 HD
BRANCH  21  23
HETATM   23  C   UNL     1     -45.733  57.196 -60.018  1.00  0.00     0.230 C 
HETATM   24  C   UNL     1     -47.064  56.479 -60.165  1.00  0.00     0.034 C 
ENDBRANCH  21  23
BRANCH  21  25
HETATM   25  C   UNL     1     -43.835  55.653 -59.417  1.00  0.00     0.230 C 
HETATM   26  C   UNL     1     -44.377  54.238 -59.513  1.00  0.00     0.034 C 
ENDBRANCH  21  25
ENDBRANCH  20  21
ENDBRANCH  19  20
ENDBRANCH  16  19
ENDBRANCH   2  15
BRANCH   1  27
HETATM   27  C   UNL     1     -41.632  54.872 -53.692  1.00  0.00     0.043 A 
HETATM   28  C   UNL     1     -41.082  54.349 -54.867  1.00  0.00     0.030 A 
HETATM   29  C   UNL     1     -40.309  53.179 -54.844  1.00  0.00     0.009 A 
HETATM   30  C   UNL     1     -40.087  52.492 -53.647  1.00  0.00    -0.058 A 
HETATM   31  C   UNL     1     -40.661  52.990 -52.475  1.00  0.00     0.009 A 
HETATM   32  C   UNL     1     -41.425  54.162 -52.501  1.00  0.00     0.030 A 
BRANCH  30  33
HETATM   33  C   UNL     1     -39.272  51.223 -53.620  1.00  0.00     0.034 C 
HETATM   34  C   UNL     1     -39.921  50.102 -54.420  1.00  0.00     0.010 C 
ENDBRANCH  30  33
ENDBRANCH   1  27
TORSDOF 9
ENDMDL
MODEL 2
REMARK VINA RESULT:      -7.9      1.698      2.471
REMARK  9 active torsions:
REMARK  status: ('A' for Active; 'I' for Inactive)
REMARK    1  A    between atoms: C_2  and  C_3 
REMARK    2  A    between atoms: C_6  and  N_7 
REMARK    3  A    between atoms: C_8  and  O_9 
REMARK    4  A    between atoms: C_8  and  C_10 
REMARK       I    between atoms: C_10  and  N_11 
REMARK    5  A    between atoms: N_11  and  C_12 
REMARK    6  A    between atoms: C_12  and  C_13 
REMARK    7  A    between atoms: C_13  and  N_14 
REMARK    8  A    between atoms: N_14  and  C_16 
REMARK    9  A    between atoms: N_14  and  C_18 
ROOT
HETATM    1  N   UNL     1     -41.870  54.870 -53.163  1.00  0.00    -0.254 N 
HETATM    2  C   UNL     1     -41.435  56.054 -53.913  1.00  0.00     0.256 C 
HETATM    3  C   UNL     1     -41.387  57.271 -53.030  1.00  0.00     0.034 A 
HETATM    4  C   UNL     1     -42.350  57.348 -52.021  1.00  0.00     0.048 A 
HETATM    5  N   UNL     1     -43.234  56.277 -51.873  1.00  0.00    -0.308 N 
HETATM    6  C   UNL     1     -43.030  55.020 -52.404  1.00  0.00     0.330 C 
HETATM    7  O   UNL     1     -43.851  54.143 -52.145  1.00  0.00    -0.246 OA
HETATM    8  C   UNL     1     -40.503  58.341 -53.213  1.00  0.00     0.015 A 
HETATM    9  C   UNL     1     -40.592  59.465 -52.393  1.00  0.00     0.001 A 
HETATM   10  C   UNL     1     -41.567  59.534 -51.398  1.00  0.00     0.002 A 
HETATM   11  C   UNL     1     -42.457  58.475 -51.213  1.00  0.00     0.030 A 
HETATM   12  H   UNL     1     -43.960  56.319 -51.166  1.00  0.00     0.170 HD
ENDROOT
BRANCH   2  13
HETATM   13  O   UNL     1     -40.184  55.878 -54.573  1.00  0.00    -0.359 OA
HETATM   14  H   UNL     1     -40.255  55.028 -55.046  1.00  0.00     0.213 HD
ENDBRANCH   2  13
BRANCH   2  15
HETATM   15  C   UNL     1     -42.489  56.168 -55.104  1.00  0.00     0.279 C 
HETATM   16  N   UNL     1     -42.147  55.701 -56.358  1.00  0.00    -0.355 N 
HETATM   17  H   UNL     1     -41.351  55.071 -56.400  1.00  0.00     0.162 HD
HETATM   18  O   UNL     1     -43.542  56.804 -54.965  1.00  0.00    -0.268 OA
BRANCH  16  19
HETATM   19  C   UNL     1     -43.061  55.614 -57.495  1.00  0.00     0.150 C 
BRANCH  19  20
HETATM   20  C   UNL     1     -43.285  56.864 -58.375  1.00  0.00     0.254 C 
BRANCH  20  21
HETATM   21  N   UNL     1     -44.255  57.874 -57.785  1.00  0.00    -0.070 N 
HETATM   22  H   UNL     1     -44.458  57.479 -56.849  1.00  0.00     0.279 HD
BRANCH  21  23
HETATM   23  C   UNL     1     -43.703  59.260 -57.538  1.00  0.00     0.230 C 
HETATM   24  C   UNL     1     -42.199  59.245 -57.330  1.00  0.00     0.034 C 
ENDBRANCH  21  23
BRANCH  21  25
HETATM   25  C   UNL     1     -45.591  57.898 -58.502  1.00  0.00     0.230 C 
HETATM   26  C   UNL     1     -46.730  58.152 -57.532  1.00  0.00     0.034 C 
ENDBRANCH  21  25
ENDBRANCH  20  21
ENDBRANCH  19  20
ENDBRANCH  16  19
ENDBRANCH   2  15
BRANCH   1  27
HETATM   27  C   UNL     1     -41.196  53.612 -53.246  1.00  0.00     0.043 A 
HETATM   28  C   UNL     1     -41.379  52.742 -54.326  1.00  0.00     0.030 A 
HETATM   29  C   UNL     1     -40.732  51.499 -54.370  1.00  0.00     0.009 A 
HETATM   30  C   UNL     1     -39.905  51.086 -53.321  1.00  0.00    -0.058 A 
HETATM   31  C   UNL     1     -39.745  51.934 -52.224  1.00  0.00     0.009 A 
HETATM   32  C   UNL     1     -40.385  53.177 -52.188  1.00  0.00     0.030 A 
BRANCH  30  33
HETATM   33  C   UNL     1     -39.223  49.741 -53.354  1.00  0.00     0.034 C 
HETATM   34  C   UNL     1     -39.381  48.979 -52.046  1.00  0.00     0.010 C 
ENDBRANCH  30  33
ENDBRANCH   1  27
TORSDOF 9
ENDMDL
MODEL 3
REMARK VINA RESULT:      -7.7      2.420      6.092
REMARK  9 active torsions:
REMARK  status: ('A' for Active; 'I' for Inactive)
REMARK    1  A    between atoms: C_2  and  C_3 
REMARK    2  A    between atoms: C_6  and  N_7 
REMARK    3  A    between atoms: C_8  and  O_9 
REMARK    4  A    between atoms: C_8  and  C_10 
REMARK       I    between atoms: C_10  and  N_11 
REMARK    5  A    between atoms: N_11  and  C_12 
REMARK    6  A    between atoms: C_12  and  C_13 
REMARK    7  A    between atoms: C_13  and  N_14 
REMARK    8  A    between atoms: N_14  and  C_16 
REMARK    9  A    between atoms: N_14  and  C_18 
ROOT
HETATM    1  N   UNL     1     -42.196  56.531 -53.597  1.00  0.00    -0.254 N 
HETATM    2  C   UNL     1     -43.652  56.691 -53.679  1.00  0.00     0.256 C 
HETATM    3  C   UNL     1     -44.030  57.717 -54.713  1.00  0.00     0.034 A 
HETATM    4  C   UNL     1     -43.158  58.797 -54.866  1.00  0.00     0.048 A 
HETATM    5  N   UNL     1     -41.989  58.813 -54.102  1.00  0.00    -0.308 N 
HETATM    6  C   UNL     1     -41.459  57.709 -53.469  1.00  0.00     0.330 C 
HETATM    7  O   UNL     1     -40.386  57.838 -52.882  1.00  0.00    -0.246 OA
HETATM    8  C   UNL     1     -45.219  57.688 -55.452  1.00  0.00     0.015 A 
HETATM    9  C   UNL     1     -45.520  58.732 -56.326  1.00  0.00     0.001 A 
HETATM   10  C   UNL     1     -44.646  59.811 -56.459  1.00  0.00     0.002 A 
HETATM   11  C   UNL     1     -43.462  59.851 -55.723  1.00  0.00     0.030 A 
HETATM   12  H   UNL     1     -41.353  59.599 -54.176  1.00  0.00     0.170 HD
ENDROOT
BRANCH   2  13
HETATM   13  O   UNL     1     -44.342  55.469 -53.927  1.00  0.00    -0.359 OA
HETATM   14  H   UNL     1     -44.139  55.237 -54.853  1.00  0.00     0.213 HD
ENDBRANCH   2  13
BRANCH   2  15
HETATM   15  C   UNL     1     -44.085  57.087 -52.197  1.00  0.00     0.279 C 
HETATM   16  N   UNL     1     -44.799  58.250 -51.988  1.00  0.00    -0.355 N 
HETATM   17  H   UNL     1     -45.241  58.659 -52.807  1.00  0.00     0.162 HD
HETATM   18  O   UNL     1     -43.664  56.455 -51.219  1.00  0.00    -0.268 OA
BRANCH  16  19
HETATM   19  C   UNL     1     -45.379  58.657 -50.710  1.00  0.00     0.150 C 
BRANCH  19  20
HETATM   20  C   UNL     1     -45.487  60.163 -50.379  1.00  0.00     0.254 C 
BRANCH  20  21
HETATM   21  N   UNL     1     -44.292  60.722 -49.626  1.00  0.00    -0.070 N 
HETATM   22  H   UNL     1     -43.963  59.907 -49.078  1.00  0.00     0.279 HD
BRANCH  21  23
HETATM   23  C   UNL     1     -43.115  61.153 -50.472  1.00  0.00     0.230 C 
HETATM   24  C   UNL     1     -41.936  60.208 -50.331  1.00  0.00     0.034 C 
ENDBRANCH  21  23
BRANCH  21  25
HETATM   25  C   UNL     1     -44.680  61.762 -48.593  1.00  0.00     0.230 C 
HETATM   26  C   UNL     1     -44.724  61.162 -47.200  1.00  0.00     0.034 C 
ENDBRANCH  21  25
ENDBRANCH  20  21
ENDBRANCH  19  20
ENDBRANCH  16  19
ENDBRANCH   2  15
BRANCH   1  27
HETATM   27  C   UNL     1     -41.558  55.252 -53.578  1.00  0.00     0.043 A 
HETATM   28  C   UNL     1     -41.379  54.529 -52.394  1.00  0.00     0.030 A 
HETATM   29  C   UNL     1     -40.722  53.291 -52.396  1.00  0.00     0.009 A 
HETATM   30  C   UNL     1     -40.206  52.757 -53.581  1.00  0.00    -0.058 A 
HETATM   31  C   UNL     1     -40.351  53.489 -54.761  1.00  0.00     0.009 A 
HETATM   32  C   UNL     1     -41.015  54.720 -54.756  1.00  0.00     0.030 A 
BRANCH  30  33
HETATM   33  C   UNL     1     -39.481  51.435 -53.585  1.00  0.00     0.034 C 
HETATM   34  C   UNL     1     -40.215  50.374 -54.394  1.00  0.00     0.010 C 
ENDBRANCH  30  33
ENDBRANCH   1  27
TORSDOF 9
ENDMDL
MODEL 4
REMARK VINA RESULT:      -7.6      2.040      6.123
REMARK  9 active torsions:
REMARK  status: ('A' for Active; 'I' for Inactive)
REMARK    1  A    between atoms: C_2  and  C_3 
REMARK    2  A    between atoms: C_6  and  N_7 
REMARK    3  A    between atoms: C_8  and  O_9 
REMARK    4  A    between atoms: C_8  and  C_10 
REMARK       I    between atoms: C_10  and  N_11 
REMARK    5  A    between atoms: N_11  and  C_12 
REMARK    6  A    between atoms: C_12  and  C_13 
REMARK    7  A    between atoms: C_13  and  N_14 
REMARK    8  A    between atoms: N_14  and  C_16 
REMARK    9  A    between atoms: N_14  and  C_18 
ROOT
HETATM    1  N   UNL     1     -42.688  57.872 -53.541  1.00  0.00    -0.254 N 
HETATM    2  C   UNL     1     -43.506  57.438 -52.403  1.00  0.00     0.256 C 
HETATM    3  C   UNL     1     -44.001  58.615 -51.608  1.00  0.00     0.034 A 
HETATM    4  C   UNL     1     -43.146  59.716 -51.526  1.00  0.00     0.048 A 
HETATM    5  N   UNL     1     -41.939  59.665 -52.227  1.00  0.00    -0.308 N 
HETATM    6  C   UNL     1     -41.670  58.780 -53.250  1.00  0.00     0.330 C 
HETATM    7  O   UNL     1     -40.594  58.882 -53.835  1.00  0.00    -0.246 OA
HETATM    8  C   UNL     1     -45.207  58.633 -50.898  1.00  0.00     0.015 A 
HETATM    9  C   UNL     1     -45.540  59.741 -50.119  1.00  0.00     0.001 A 
HETATM   10  C   UNL     1     -44.670  60.828 -50.036  1.00  0.00     0.002 A 
HETATM   11  C   UNL     1     -43.463  60.817 -50.735  1.00  0.00     0.030 A 
HETATM   12  H   UNL     1     -41.288  60.440 -52.163  1.00  0.00     0.170 HD
ENDROOT
BRANCH   2  13
HETATM   13  O   UNL     1     -44.600  56.605 -52.777  1.00  0.00    -0.359 OA
HETATM   14  H   UNL     1     -45.121  56.476 -51.962  1.00  0.00     0.213 HD
ENDBRANCH   2  13
BRANCH   2  15
HETATM   15  C   UNL     1     -42.545  56.469 -51.580  1.00  0.00     0.279 C 
HETATM   16  N   UNL     1     -42.559  55.114 -51.847  1.00  0.00    -0.355 N 
HETATM   17  H   UNL     1     -42.981  54.834 -52.729  1.00  0.00     0.162 HD
HETATM   18  O   UNL     1     -41.903  56.883 -50.606  1.00  0.00    -0.268 OA
BRANCH  16  19
HETATM   19  C   UNL     1     -41.635  54.138 -51.273  1.00  0.00     0.150 C 
BRANCH  19  20
HETATM   20  C   UNL     1     -40.462  53.618 -52.135  1.00  0.00     0.254 C 
BRANCH  20  21
HETATM   21  N   UNL     1     -40.315  52.106 -52.138  1.00  0.00    -0.070 N 
HETATM   22  H   UNL     1     -41.270  51.782 -52.379  1.00  0.00     0.279 HD
BRANCH  21  23
HETATM   23  C   UNL     1     -39.403  51.528 -53.196  1.00  0.00     0.230 C 
HETATM   24  C   UNL     1     -40.174  50.766 -54.259  1.00  0.00     0.034 C 
ENDBRANCH  21  23
BRANCH  21  25
HETATM   25  C   UNL     1     -40.042  51.537 -50.759  1.00  0.00     0.230 C 
HETATM   26  C   UNL     1     -39.697  50.060 -50.833  1.00  0.00     0.034 C 
ENDBRANCH  21  25
ENDBRANCH  20  21
ENDBRANCH  19  20
ENDBRANCH  16  19
ENDBRANCH   2  15
BRANCH   1  27
HETATM   27  C   UNL     1     -42.864  57.354 -54.862  1.00  0.00     0.043 A 
HETATM   28  C   UNL     1     -43.649  58.009 -55.817  1.00  0.00     0.030 A 
HETATM   29  C   UNL     1     -43.833  57.464 -57.096  1.00  0.00     0.009 A 
HETATM   30  C   UNL     1     -43.255  56.239 -57.442  1.00  0.00    -0.058 A 
HETATM   31  C   UNL     1     -42.498  55.564 -56.483  1.00  0.00     0.009 A 
HETATM   32  C   UNL     1     -42.310  56.114 -55.211  1.00  0.00     0.030 A 
BRANCH  30  33
HETATM   33  C   UNL     1     -43.466  55.640 -58.810  1.00  0.00     0.034 C 
HETATM   34  C   UNL     1     -42.537  56.242 -59.855  1.00  0.00     0.010 C 
ENDBRANCH  30  33
ENDBRANCH   1  27
TORSDOF 9
ENDMDL
MODEL 5
REMARK VINA RESULT:      -7.6      2.271      5.465
REMARK  9 active torsions:
REMARK  status: ('A' for Active; 'I' for Inactive)
REMARK    1  A    between atoms: C_2  and  C_3 
REMARK    2  A    between atoms: C_6  and  N_7 
REMARK    3  A    between atoms: C_8  and  O_9 
REMARK    4  A    between atoms: C_8  and  C_10 
REMARK       I    between atoms: C_10  and  N_11 
REMARK    5  A    between atoms: N_11  and  C_12 
REMARK    6  A    between atoms: C_12  and  C_13 
REMARK    7  A    between atoms: C_13  and  N_14 
REMARK    8  A    between atoms: N_14  and  C_16 
REMARK    9  A    between atoms: N_14  and  C_18 
ROOT
HETATM    1  N   UNL     1     -42.093  56.446 -53.802  1.00  0.00    -0.254 N 
HETATM    2  C   UNL     1     -43.546  56.637 -53.857  1.00  0.00     0.256 C 
HETATM    3  C   UNL     1     -43.928  57.610 -54.940  1.00  0.00     0.034 A 
HETATM    4  C   UNL     1     -43.036  58.657 -55.179  1.00  0.00     0.048 A 
HETATM    5  N   UNL     1     -41.847  58.688 -54.447  1.00  0.00    -0.308 N 
HETATM    6  C   UNL     1     -41.326  57.610 -53.762  1.00  0.00     0.330 C 
HETATM    7  O   UNL     1     -40.235  57.747 -53.212  1.00  0.00    -0.246 OA
HETATM    8  C   UNL     1     -45.136  57.567 -55.645  1.00  0.00     0.015 A 
HETATM    9  C   UNL     1     -45.437  58.565 -56.572  1.00  0.00     0.001 A 
HETATM   10  C   UNL     1     -44.542  59.612 -56.791  1.00  0.00     0.002 A 
HETATM   11  C   UNL     1     -43.338  59.666 -56.088  1.00  0.00     0.030 A 
HETATM   12  H   UNL     1     -41.194  59.453 -54.582  1.00  0.00     0.170 HD
ENDROOT
BRANCH   2  13
HETATM   13  O   UNL     1     -44.272  55.420 -54.015  1.00  0.00    -0.359 OA
HETATM   14  H   UNL     1     -44.130  54.922 -53.188  1.00  0.00     0.213 HD
ENDBRANCH   2  13
BRANCH   2  15
HETATM   15  C   UNL     1     -43.931  57.129 -52.391  1.00  0.00     0.279 C 
HETATM   16  N   UNL     1     -44.799  58.192 -52.239  1.00  0.00    -0.355 N 
HETATM   17  H   UNL     1     -45.355  58.438 -53.053  1.00  0.00     0.162 HD
HETATM   18  O   UNL     1     -43.350  56.679 -51.394  1.00  0.00    -0.268 OA
BRANCH  16  19
HETATM   19  C   UNL     1     -45.344  58.651 -50.963  1.00  0.00     0.150 C 
BRANCH  19  20
HETATM   20  C   UNL     1     -44.934  60.041 -50.427  1.00  0.00     0.254 C 
BRANCH  20  21
HETATM   21  N   UNL     1     -43.748  60.660 -51.147  1.00  0.00    -0.070 N 
HETATM   22  H   UNL     1     -43.508  59.942 -51.856  1.00  0.00     0.279 HD
BRANCH  21  23
HETATM   23  C   UNL     1     -44.028  61.928 -51.922  1.00  0.00     0.230 C 
HETATM   24  C   UNL     1     -43.234  61.992 -53.215  1.00  0.00     0.034 C 
ENDBRANCH  21  23
BRANCH  21  25
HETATM   25  C   UNL     1     -42.518  60.775 -50.268  1.00  0.00     0.230 C 
HETATM   26  C   UNL     1     -41.512  59.683 -50.588  1.00  0.00     0.034 C 
ENDBRANCH  21  25
ENDBRANCH  20  21
ENDBRANCH  19  20
ENDBRANCH  16  19
ENDBRANCH   2  15
BRANCH   1  27
HETATM   27  C   UNL     1     -41.485  55.155 -53.724  1.00  0.00     0.043 A 
HETATM   28  C   UNL     1     -41.353  54.469 -52.512  1.00  0.00     0.030 A 
HETATM   29  C   UNL     1     -40.724  53.217 -52.456  1.00  0.00     0.009 A 
HETATM   30  C   UNL     1     -40.190  52.633 -53.608  1.00  0.00    -0.058 A 
HETATM   31  C   UNL     1     -40.288  53.327 -54.816  1.00  0.00     0.009 A 
HETATM   32  C   UNL     1     -40.923  54.572 -54.869  1.00  0.00     0.030 A 
BRANCH  30  33
HETATM   33  C   UNL     1     -39.495  51.295 -53.550  1.00  0.00     0.034 C 
HETATM   34  C   UNL     1     -40.235  50.223 -54.338  1.00  0.00     0.010 C 
ENDBRANCH  30  33
ENDBRANCH   1  27
TORSDOF 9
ENDMDL
MODEL 6
REMARK VINA RESULT:      -7.1      2.381      3.197
REMARK  9 active torsions:
REMARK  status: ('A' for Active; 'I' for Inactive)
REMARK    1  A    between atoms: C_2  and  C_3 
REMARK    2  A    between atoms: C_6  and  N_7 
REMARK    3  A    between atoms: C_8  and  O_9 
REMARK    4  A    between atoms: C_8  and  C_10 
REMARK       I    between atoms: C_10  and  N_11 
REMARK    5  A    between atoms: N_11  and  C_12 
REMARK    6  A    between atoms: C_12  and  C_13 
REMARK    7  A    between atoms: C_13  and  N_14 
REMARK    8  A    between atoms: N_14  and  C_16 
REMARK    9  A    between atoms: N_14  and  C_18 
ROOT
HETATM    1  N   UNL     1     -42.517  55.798 -53.807  1.00  0.00    -0.254 N 
HETATM    2  C   UNL     1     -41.913  57.122 -53.991  1.00  0.00     0.256 C 
HETATM    3  C   UNL     1     -42.569  58.148 -53.106  1.00  0.00     0.034 A 
HETATM    4  C   UNL     1     -43.936  57.985 -52.871  1.00  0.00     0.048 A 
HETATM    5  N   UNL     1     -44.569  56.867 -53.418  1.00  0.00    -0.308 N 
HETATM    6  C   UNL     1     -43.910  55.747 -53.878  1.00  0.00     0.330 C 
HETATM    7  O   UNL     1     -44.586  54.800 -54.274  1.00  0.00    -0.246 OA
HETATM    8  C   UNL     1     -41.915  59.272 -52.587  1.00  0.00     0.015 A 
HETATM    9  C   UNL     1     -42.630  60.212 -51.846  1.00  0.00     0.001 A 
HETATM   10  C   UNL     1     -43.998  60.044 -51.631  1.00  0.00     0.002 A 
HETATM   11  C   UNL     1     -44.659  58.930 -52.150  1.00  0.00     0.030 A 
HETATM   12  H   UNL     1     -45.566  56.740 -53.284  1.00  0.00     0.170 HD
ENDROOT
BRANCH   2  13
HETATM   13  O   UNL     1     -40.502  57.134 -53.791  1.00  0.00    -0.359 OA
HETATM   14  H   UNL     1     -40.182  57.941 -54.235  1.00  0.00     0.213 HD
ENDBRANCH   2  13
BRANCH   2  15
HETATM   15  C   UNL     1     -42.086  57.416 -55.548  1.00  0.00     0.279 C 
HETATM   16  N   UNL     1     -42.220  58.721 -55.980  1.00  0.00    -0.355 N 
HETATM   17  H   UNL     1     -41.937  59.443 -55.323  1.00  0.00     0.162 HD
HETATM   18  O   UNL     1     -42.256  56.494 -56.357  1.00  0.00    -0.268 OA
BRANCH  16  19
HETATM   19  C   UNL     1     -42.241  59.141 -57.380  1.00  0.00     0.150 C 
BRANCH  19  20
HETATM   20  C   UNL     1     -42.414  60.640 -57.712  1.00  0.00     0.254 C 
BRANCH  20  21
HETATM   21  N   UNL     1     -41.481  61.149 -58.797  1.00  0.00    -0.070 N 
HETATM   22  H   UNL     1     -40.790  60.382 -58.886  1.00  0.00     0.279 HD
BRANCH  21  23
HETATM   23  C   UNL     1     -42.089  61.319 -60.171  1.00  0.00     0.230 C 
HETATM   24  C   UNL     1     -41.952  60.063 -61.013  1.00  0.00     0.034 C 
ENDBRANCH  21  23
BRANCH  21  25
HETATM   25  C   UNL     1     -40.676  62.359 -58.363  1.00  0.00     0.230 C 
HETATM   26  C   UNL     1     -39.615  62.709 -59.391  1.00  0.00     0.034 C 
ENDBRANCH  21  25
ENDBRANCH  20  21
ENDBRANCH  19  20
ENDBRANCH  16  19
ENDBRANCH   2  15
BRANCH   1  27
HETATM   27  C   UNL     1     -41.740  54.611 -53.633  1.00  0.00     0.043 A 
HETATM   28  C   UNL     1     -41.354  54.156 -52.368  1.00  0.00     0.030 A 
HETATM   29  C   UNL     1     -40.564  53.006 -52.224  1.00  0.00     0.009 A 
HETATM   30  C   UNL     1     -40.121  52.298 -53.346  1.00  0.00    -0.058 A 
HETATM   31  C   UNL     1     -40.474  52.766 -54.613  1.00  0.00     0.009 A 
HETATM   32  C   UNL     1     -41.269  53.908 -54.751  1.00  0.00     0.030 A 
BRANCH  30  33
HETATM   33  C   UNL     1     -39.255  51.072 -53.197  1.00  0.00     0.034 C 
HETATM   34  C   UNL     1     -39.503  50.051 -54.298  1.00  0.00     0.010 C 
ENDBRANCH  30  33
ENDBRANCH   1  27
TORSDOF 9
ENDMDL
MODEL 7
REMARK VINA RESULT:      -7.0      2.616      5.822
REMARK  9 active torsions:
REMARK  status: ('A' for Active; 'I' for Inactive)
REMARK    1  A    between atoms: C_2  and  C_3 
REMARK    2  A    between atoms: C_6  and  N_7 
REMARK    3  A    between atoms: C_8  and  O_9 
REMARK    4  A    between atoms: C_8  and  C_10 
REMARK       I    between atoms: C_10  and  N_11 
REMARK    5  A    between atoms: N_11  and  C_12 
REMARK    6  A    between atoms: C_12  and  C_13 
REMARK    7  A    between atoms: C_13  and  N_14 
REMARK    8  A    between atoms: N_14  and  C_16 
REMARK    9  A    between atoms: N_14  and  C_18 
ROOT
HETATM    1  N   UNL     1     -42.947  58.278 -53.439  1.00  0.00    -0.254 N 
HETATM    2  C   UNL     1     -43.250  56.851 -53.282  1.00  0.00     0.256 C 
HETATM    3  C   UNL     1     -42.704  56.317 -51.986  1.00  0.00     0.034 A 
HETATM    4  C   UNL     1     -41.501  56.871 -51.541  1.00  0.00     0.048 A 
HETATM    5  N   UNL     1     -40.935  57.903 -52.291  1.00  0.00    -0.308 N 
HETATM    6  C   UNL     1     -41.618  58.647 -53.232  1.00  0.00     0.330 C 
HETATM    7  O   UNL     1     -41.024  59.575 -53.777  1.00  0.00    -0.246 OA
HETATM    8  C   UNL     1     -43.281  55.266 -51.263  1.00  0.00     0.015 A 
HETATM    9  C   UNL     1     -42.653  54.784 -50.115  1.00  0.00     0.001 A 
HETATM   10  C   UNL     1     -41.445  55.337 -49.690  1.00  0.00     0.002 A 
HETATM   11  C   UNL     1     -40.860  56.381 -50.408  1.00  0.00     0.030 A 
HETATM   12  H   UNL     1     -40.049  58.304 -52.005  1.00  0.00     0.170 HD
ENDROOT
BRANCH   2  13
HETATM   13  O   UNL     1     -44.639  56.552 -53.388  1.00  0.00    -0.359 OA
HETATM   14  H   UNL     1     -44.838  56.568 -54.343  1.00  0.00     0.213 HD
ENDBRANCH   2  13
BRANCH   2  15
HETATM   15  C   UNL     1     -42.608  56.173 -54.574  1.00  0.00     0.279 C 
HETATM   16  N   UNL     1     -43.409  55.901 -55.666  1.00  0.00    -0.355 N 
HETATM   17  H   UNL     1     -44.304  56.384 -55.697  1.00  0.00     0.162 HD
HETATM   18  O   UNL     1     -41.445  55.747 -54.561  1.00  0.00    -0.268 OA
BRANCH  16  19
HETATM   19  C   UNL     1     -42.927  55.418 -56.958  1.00  0.00     0.150 C 
BRANCH  19  20
HETATM   20  C   UNL     1     -43.199  56.262 -58.224  1.00  0.00     0.254 C 
BRANCH  20  21
HETATM   21  N   UNL     1     -44.671  56.415 -58.565  1.00  0.00    -0.070 N 
HETATM   22  H   UNL     1     -45.131  55.769 -57.899  1.00  0.00     0.279 HD
BRANCH  21  23
HETATM   23  C   UNL     1     -45.275  57.776 -58.305  1.00  0.00     0.230 C 
HETATM   24  C   UNL     1     -46.762  57.808 -58.614  1.00  0.00     0.034 C 
ENDBRANCH  21  23
BRANCH  21  25
HETATM   25  C   UNL     1     -45.017  55.877 -59.940  1.00  0.00     0.230 C 
HETATM   26  C   UNL     1     -44.910  54.363 -59.979  1.00  0.00     0.034 C 
ENDBRANCH  21  25
ENDBRANCH  20  21
ENDBRANCH  19  20
ENDBRANCH  16  19
ENDBRANCH   2  15
BRANCH   1  27
HETATM   27  C   UNL     1     -43.927  59.237 -53.844  1.00  0.00     0.043 A 
HETATM   28  C   UNL     1     -44.215  59.479 -55.192  1.00  0.00     0.030 A 
HETATM   29  C   UNL     1     -45.157  60.447 -55.566  1.00  0.00     0.009 A 
HETATM   30  C   UNL     1     -45.817  61.213 -54.601  1.00  0.00    -0.058 A 
HETATM   31  C   UNL     1     -45.510  61.001 -53.255  1.00  0.00     0.009 A 
HETATM   32  C   UNL     1     -44.576  60.028 -52.886  1.00  0.00     0.030 A 
BRANCH  30  33
HETATM   33  C   UNL     1     -46.817  62.270 -54.999  1.00  0.00     0.034 C 
HETATM   34  C   UNL     1     -47.335  63.058 -53.804  1.00  0.00     0.010 C 
ENDBRANCH  30  33
ENDBRANCH   1  27
TORSDOF 9
ENDMDL
MODEL 8
REMARK VINA RESULT:      -6.9      2.567      5.228
REMARK  9 active torsions:
REMARK  status: ('A' for Active; 'I' for Inactive)
REMARK    1  A    between atoms: C_2  and  C_3 
REMARK    2  A    between atoms: C_6  and  N_7 
REMARK    3  A    between atoms: C_8  and  O_9 
REMARK    4  A    between atoms: C_8  and  C_10 
REMARK       I    between atoms: C_10  and  N_11 
REMARK    5  A    between atoms: N_11  and  C_12 
REMARK    6  A    between atoms: C_12  and  C_13 
REMARK    7  A    between atoms: C_13  and  N_14 
REMARK    8  A    between atoms: N_14  and  C_16 
REMARK    9  A    between atoms: N_14  and  C_18 
ROOT
HETATM    1  N   UNL     1     -42.173  56.900 -54.363  1.00  0.00    -0.254 N 
HETATM    2  C   UNL     1     -43.561  57.098 -54.793  1.00  0.00     0.256 C 
HETATM    3  C   UNL     1     -43.639  58.029 -55.973  1.00  0.00     0.034 A 
HETATM    4  C   UNL     1     -42.697  59.059 -56.017  1.00  0.00     0.048 A 
HETATM    5  N   UNL     1     -41.733  59.112 -55.009  1.00  0.00    -0.308 N 
HETATM    6  C   UNL     1     -41.421  58.060 -54.174  1.00  0.00     0.330 C 
HETATM    7  O   UNL     1     -40.503  58.211 -53.371  1.00  0.00    -0.246 OA
HETATM    8  C   UNL     1     -44.629  57.966 -56.960  1.00  0.00     0.015 A 
HETATM    9  C   UNL     1     -44.668  58.926 -57.970  1.00  0.00     0.001 A 
HETATM   10  C   UNL     1     -43.729  59.958 -57.994  1.00  0.00     0.002 A 
HETATM   11  C   UNL     1     -42.742  60.032 -57.011  1.00  0.00     0.030 A 
HETATM   12  H   UNL     1     -41.054  59.866 -55.003  1.00  0.00     0.170 HD
ENDROOT
BRANCH   2  13
HETATM   13  O   UNL     1     -44.244  55.882 -55.084  1.00  0.00    -0.359 OA
HETATM   14  H   UNL     1     -44.076  55.707 -56.029  1.00  0.00     0.213 HD
ENDBRANCH   2  13
BRANCH   2  15
HETATM   15  C   UNL     1     -44.296  57.653 -53.492  1.00  0.00     0.279 C 
HETATM   16  N   UNL     1     -44.817  58.932 -53.502  1.00  0.00    -0.355 N 
HETATM   17  H   UNL     1     -44.942  59.360 -54.416  1.00  0.00     0.162 HD
HETATM   18  O   UNL     1     -44.275  57.020 -52.428  1.00  0.00    -0.268 OA
BRANCH  16  19
HETATM   19  C   UNL     1     -45.635  59.511 -52.437  1.00  0.00     0.150 C 
BRANCH  19  20
HETATM   20  C   UNL     1     -45.846  61.041 -52.400  1.00  0.00     0.254 C 
BRANCH  20  21
HETATM   21  N   UNL     1     -47.025  61.527 -53.225  1.00  0.00    -0.070 N 
HETATM   22  H   UNL     1     -47.418  60.647 -53.607  1.00  0.00     0.279 HD
BRANCH  21  23
HETATM   23  C   UNL     1     -48.150  62.182 -52.455  1.00  0.00     0.230 C 
HETATM   24  C   UNL     1     -49.458  62.156 -53.227  1.00  0.00     0.034 C 
ENDBRANCH  21  23
BRANCH  21  25
HETATM   25  C   UNL     1     -46.604  62.332 -54.439  1.00  0.00     0.230 C 
HETATM   26  C   UNL     1     -46.226  61.423 -55.595  1.00  0.00     0.034 C 
ENDBRANCH  21  25
ENDBRANCH  20  21
ENDBRANCH  19  20
ENDBRANCH  16  19
ENDBRANCH   2  15
BRANCH   1  27
HETATM   27  C   UNL     1     -41.627  55.609 -54.084  1.00  0.00     0.043 A 
HETATM   28  C   UNL     1     -41.771  54.996 -52.835  1.00  0.00     0.030 A 
HETATM   29  C   UNL     1     -41.199  53.743 -52.575  1.00  0.00     0.009 A 
HETATM   30  C   UNL     1     -40.447  53.083 -53.552  1.00  0.00    -0.058 A 
HETATM   31  C   UNL     1     -40.271  53.704 -54.790  1.00  0.00     0.009 A 
HETATM   32  C   UNL     1     -40.850  54.951 -55.048  1.00  0.00     0.030 A 
BRANCH  30  33
HETATM   33  C   UNL     1     -39.813  51.744 -53.271  1.00  0.00     0.034 C 
HETATM   34  C   UNL     1     -39.477  51.561 -51.797  1.00  0.00     0.010 C 
ENDBRANCH  30  33
ENDBRANCH   1  27
TORSDOF 9
ENDMDL
MODEL 9
REMARK VINA RESULT:      -6.9      2.037      2.934
REMARK  9 active torsions:
REMARK  status: ('A' for Active; 'I' for Inactive)
REMARK    1  A    between atoms: C_2  and  C_3 
REMARK    2  A    between atoms: C_6  and  N_7 
REMARK    3  A    between atoms: C_8  and  O_9 
REMARK    4  A    between atoms: C_8  and  C_10 
REMARK       I    between atoms: C_10  and  N_11 
REMARK    5  A    between atoms: N_11  and  C_12 
REMARK    6  A    between atoms: C_12  and  C_13 
REMARK    7  A    between atoms: C_13  and  N_14 
REMARK    8  A    between atoms: N_14  and  C_16 
REMARK    9  A    between atoms: N_14  and  C_18 
ROOT
HETATM    1  N   UNL     1     -43.288  57.664 -51.411  1.00  0.00    -0.254 N 
HETATM    2  C   UNL     1     -42.952  58.912 -52.106  1.00  0.00     0.256 C 
HETATM    3  C   UNL     1     -43.240  60.111 -51.243  1.00  0.00     0.034 A 
HETATM    4  C   UNL     1     -44.341  60.014 -50.390  1.00  0.00     0.048 A 
HETATM    5  N   UNL     1     -45.046  58.808 -50.359  1.00  0.00    -0.308 N 
HETATM    6  C   UNL     1     -44.557  57.609 -50.835  1.00  0.00     0.330 C 
HETATM    7  O   UNL     1     -45.249  56.604 -50.688  1.00  0.00    -0.246 OA
HETATM    8  C   UNL     1     -42.530  61.316 -51.308  1.00  0.00     0.015 A 
HETATM    9  C   UNL     1     -42.927  62.400 -50.527  1.00  0.00     0.001 A 
HETATM   10  C   UNL     1     -44.037  62.294 -49.690  1.00  0.00     0.002 A 
HETATM   11  C   UNL     1     -44.755  61.099 -49.623  1.00  0.00     0.030 A 
HETATM   12  H   UNL     1     -45.865  58.721 -49.768  1.00  0.00     0.170 HD
ENDROOT
BRANCH   2  13
HETATM   13  O   UNL     1     -41.605  58.956 -52.570  1.00  0.00    -0.359 OA
HETATM   14  H   UNL     1     -41.307  58.028 -52.598  1.00  0.00     0.213 HD
ENDBRANCH   2  13
BRANCH   2  15
HETATM   15  C   UNL     1     -43.820  58.861 -53.441  1.00  0.00     0.279 C 
HETATM   16  N   UNL     1     -43.289  58.275 -54.573  1.00  0.00    -0.355 N 
HETATM   17  H   UNL     1     -42.482  57.672 -54.431  1.00  0.00     0.162 HD
HETATM   18  O   UNL     1     -44.895  59.469 -53.527  1.00  0.00    -0.268 OA
BRANCH  16  19
HETATM   19  C   UNL     1     -44.023  58.034 -55.813  1.00  0.00     0.150 C 
BRANCH  19  20
HETATM   20  C   UNL     1     -43.497  56.969 -56.802  1.00  0.00     0.254 C 
BRANCH  20  21
HETATM   21  N   UNL     1     -43.770  57.287 -58.263  1.00  0.00    -0.070 N 
HETATM   22  H   UNL     1     -43.238  58.164 -58.411  1.00  0.00     0.279 HD
BRANCH  21  23
HETATM   23  C   UNL     1     -43.227  56.299 -59.271  1.00  0.00     0.230 C 
HETATM   24  C   UNL     1     -42.054  56.868 -60.050  1.00  0.00     0.034 C 
ENDBRANCH  21  23
BRANCH  21  25
HETATM   25  C   UNL     1     -45.218  57.652 -58.526  1.00  0.00     0.230 C 
HETATM   26  C   UNL     1     -45.794  56.827 -59.662  1.00  0.00     0.034 C 
ENDBRANCH  21  25
ENDBRANCH  20  21
ENDBRANCH  19  20
ENDBRANCH  16  19
ENDBRANCH   2  15
BRANCH   1  27
HETATM   27  C   UNL     1     -42.409  56.538 -51.375  1.00  0.00     0.043 A 
HETATM   28  C   UNL     1     -42.397  55.573 -52.388  1.00  0.00     0.030 A 
HETATM   29  C   UNL     1     -41.548  54.459 -52.315  1.00  0.00     0.009 A 
HETATM   30  C   UNL     1     -40.707  54.273 -51.213  1.00  0.00    -0.058 A 
HETATM   31  C   UNL     1     -40.738  55.215 -50.183  1.00  0.00     0.009 A 
HETATM   32  C   UNL     1     -41.580  56.328 -50.264  1.00  0.00     0.030 A 
BRANCH  30  33
HETATM   33  C   UNL     1     -39.806  53.067 -51.120  1.00  0.00     0.034 C 
HETATM   34  C   UNL     1     -39.916  52.167 -52.344  1.00  0.00     0.010 C 
ENDBRANCH  30  33
ENDBRANCH   1  27
TORSDOF 9
ENDMDL
MODEL 10
REMARK VINA RESULT:      -6.8     16.495     18.965
REMARK  9 active torsions:
REMARK  status: ('A' for Active; 'I' for Inactive)
REMARK    1  A    between atoms: C_2  and  C_3 
REMARK    2  A    between atoms: C_6  and  N_7 
REMARK    3  A    between atoms: C_8  and  O_9 
REMARK    4  A    between atoms: C_8  and  C_10 
REMARK       I    between atoms: C_10  and  N_11 
REMARK    5  A    between atoms: N_11  and  C_12 
REMARK    6  A    between atoms: C_12  and  C_13 
REMARK    7  A    between atoms: C_13  and  N_14 
REMARK    8  A    between atoms: N_14  and  C_16 
REMARK    9  A    between atoms: N_14  and  C_18 
ROOT
HETATM    1  N   UNL     1     -34.493  39.563 -53.830  1.00  0.00    -0.254 N 
HETATM    2  C   UNL     1     -34.030  40.195 -55.070  1.00  0.00     0.256 C 
HETATM    3  C   UNL     1     -35.150  40.926 -55.761  1.00  0.00     0.034 A 
HETATM    4  C   UNL     1     -36.423  40.362 -55.650  1.00  0.00     0.048 A 
HETATM    5  N   UNL     1     -36.568  39.214 -54.868  1.00  0.00    -0.308 N 
HETATM    6  C   UNL     1     -35.647  38.786 -53.935  1.00  0.00     0.330 C 
HETATM    7  O   UNL     1     -35.924  37.796 -53.262  1.00  0.00    -0.246 OA
HETATM    8  C   UNL     1     -34.974  42.064 -56.556  1.00  0.00     0.015 A 
HETATM    9  C   UNL     1     -36.063  42.621 -57.225  1.00  0.00     0.001 A 
HETATM   10  C   UNL     1     -37.326  42.040 -57.116  1.00  0.00     0.002 A 
HETATM   11  C   UNL     1     -37.510  40.901 -56.331  1.00  0.00     0.030 A 
HETATM   12  H   UNL     1     -37.477  38.771 -54.793  1.00  0.00     0.170 HD
ENDROOT
BRANCH   2  13
HETATM   13  O   UNL     1     -32.920  41.069 -54.880  1.00  0.00    -0.359 OA
HETATM   14  H   UNL     1     -32.830  41.171 -53.914  1.00  0.00     0.213 HD
ENDBRANCH   2  13
BRANCH   2  15
HETATM   15  C   UNL     1     -33.432  38.989 -55.923  1.00  0.00     0.279 C 
HETATM   16  N   UNL     1     -33.960  38.712 -57.168  1.00  0.00    -0.355 N 
HETATM   17  H   UNL     1     -34.519  39.447 -57.593  1.00  0.00     0.162 HD
HETATM   18  O   UNL     1     -32.611  38.204 -55.429  1.00  0.00    -0.268 OA
BRANCH  16  19
HETATM   19  C   UNL     1     -33.416  37.734 -58.109  1.00  0.00     0.150 C 
BRANCH  19  20
HETATM   20  C   UNL     1     -34.260  37.324 -59.337  1.00  0.00     0.254 C 
BRANCH  20  21
HETATM   21  N   UNL     1     -35.676  37.874 -59.330  1.00  0.00    -0.070 N 
HETATM   22  H   UNL     1     -35.662  38.540 -58.536  1.00  0.00     0.279 HD
BRANCH  21  23
HETATM   23  C   UNL     1     -36.080  38.684 -60.541  1.00  0.00     0.230 C 
HETATM   24  C   UNL     1     -36.893  39.909 -60.161  1.00  0.00     0.034 C 
ENDBRANCH  21  23
BRANCH  21  25
HETATM   25  C   UNL     1     -36.712  36.832 -58.954  1.00  0.00     0.230 C 
HETATM   26  C   UNL     1     -37.519  37.273 -57.746  1.00  0.00     0.034 C 
ENDBRANCH  21  25
ENDBRANCH  20  21
ENDBRANCH  19  20
ENDBRANCH  16  19
ENDBRANCH   2  15
BRANCH   1  27
HETATM   27  C   UNL     1     -33.782  39.669 -52.595  1.00  0.00     0.043 A 
HETATM   28  C   UNL     1     -32.684  38.853 -52.299  1.00  0.00     0.030 A 
HETATM   29  C   UNL     1     -32.022  38.954 -51.067  1.00  0.00     0.009 A 
HETATM   30  C   UNL     1     -32.457  39.858 -50.093  1.00  0.00    -0.058 A 
HETATM   31  C   UNL     1     -33.572  40.651 -50.369  1.00  0.00     0.009 A 
HETATM   32  C   UNL     1     -34.225  40.554 -51.602  1.00  0.00     0.030 A 
BRANCH  30  33
HETATM   33  C   UNL     1     -31.760  39.956 -48.759  1.00  0.00     0.034 C 
HETATM   34  C   UNL     1     -32.074  38.773 -47.853  1.00  0.00     0.010 C 
ENDBRANCH  30  33
ENDBRANCH   1  27
TORSDOF 9
ENDMDL
