MODEL 1
REMARK VINA RESULT:      -7.5      0.000      0.000
REMARK  6 active torsions:
REMARK  status: ('A' for Active; 'I' for Inactive)
REMARK    1  A    between atoms: C_2  and  O_3 
REMARK    2  A    between atoms: O_3  and  C_4 
REMARK    3  A    between atoms: C_4  and  C_5 
REMARK    4  A    between atoms: C_6  and  O_7 
REMARK    5  A    between atoms: C_12  and  O_13 
REMARK    6  A    between atoms: C_17  and  C_18 
ROOT
HETATM    1  C   UNL     1     -41.091  57.505 -53.121  1.00  0.00     0.133 C 
HETATM    2  C   UNL     1     -42.269  58.308 -53.763  1.00  0.00     0.073 C 
HETATM    3  C   UNL     1     -42.853  57.561 -54.976  1.00  0.00     0.047 C 
HETATM    4  C   UNL     1     -43.406  58.641 -52.759  1.00  0.00     0.097 C 
HETATM    5  C   UNL     1     -43.711  57.450 -51.936  1.00  0.00     0.042 A 
HETATM    6  C   UNL     1     -42.861  56.399 -51.657  1.00  0.00     0.030 A 
HETATM    7  C   UNL     1     -43.634  55.583 -50.814  1.00  0.00     0.190 A 
HETATM    8  N   UNL     1     -44.859  56.046 -50.599  1.00  0.00    -0.149 NA
HETATM    9  N   UNL     1     -44.885  57.198 -51.290  1.00  0.00    -0.279 N 
HETATM   10  H   UNL     1     -45.732  57.757 -51.265  1.00  0.00     0.189 HD
HETATM   11  C   UNL     1     -41.453  56.340 -52.146  1.00  0.00     0.074 C 
ENDROOT
BRANCH  11  12
HETATM   12  C   UNL     1     -41.188  54.960 -52.735  1.00  0.00    -0.048 A 
HETATM   13  C   UNL     1     -41.570  54.567 -54.028  1.00  0.00     0.009 A 
HETATM   14  C   UNL     1     -41.281  53.284 -54.504  1.00  0.00     0.024 A 
HETATM   15  C   UNL     1     -40.600  52.379 -53.696  1.00  0.00     0.034 A 
HETATM   16 CL   UNL     1     -40.250  50.800 -54.281  1.00  0.00    -0.084 Cl
HETATM   17  C   UNL     1     -40.202  52.745 -52.416  1.00  0.00     0.024 A 
HETATM   18  C   UNL     1     -40.489  54.028 -51.942  1.00  0.00     0.009 A 
ENDBRANCH  11  12
BRANCH   1  19
HETATM   19  C   UNL     1     -40.133  58.452 -52.422  1.00  0.00     0.267 C 
HETATM   20  O   UNL     1     -39.353  59.170 -53.037  1.00  0.00    -0.265 OA
BRANCH  19  21
HETATM   21  O   UNL     1     -40.250  58.406 -51.070  1.00  0.00    -0.321 OA
BRANCH  21  22
HETATM   22  C   UNL     1     -40.200  59.669 -50.389  1.00  0.00     0.174 C 
HETATM   23  C   UNL     1     -41.598  60.240 -50.265  1.00  0.00     0.034 C 
ENDBRANCH  21  22
ENDBRANCH  19  21
ENDBRANCH   1  19
BRANCH   2  24
HETATM   24  O   UNL     1     -41.793  59.559 -54.293  1.00  0.00    -0.389 OA
HETATM   25  H   UNL     1     -41.994  60.269 -53.655  1.00  0.00     0.210 HD
ENDBRANCH   2  24
BRANCH   7  26
HETATM   26  O   UNL     1     -43.325  54.427 -50.223  1.00  0.00    -0.343 OA
HETATM   27  H   UNL     1     -43.434  54.511 -49.264  1.00  0.00     0.219 HD
ENDBRANCH   7  26
TORSDOF 6
ENDMDL
MODEL 2
REMARK VINA RESULT:      -6.8      2.718      4.161
REMARK  6 active torsions:
REMARK  status: ('A' for Active; 'I' for Inactive)
REMARK    1  A    between atoms: C_2  and  O_3 
REMARK    2  A    between atoms: O_3  and  C_4 
REMARK    3  A    between atoms: C_4  and  C_5 
REMARK    4  A    between atoms: C_6  and  O_7 
REMARK    5  A    between atoms: C_12  and  O_13 
REMARK    6  A    between atoms: C_17  and  C_18 
ROOT
HETATM    1  C   UNL     1     -42.611  57.429 -53.077  1.00  0.00     0.133 C 
HETATM    2  C   UNL     1     -41.800  58.767 -53.123  1.00  0.00     0.073 C 
HETATM    3  C   UNL     1     -40.285  58.498 -53.088  1.00  0.00     0.047 C 
HETATM    4  C   UNL     1     -42.145  59.651 -54.352  1.00  0.00     0.097 C 
HETATM    5  C   UNL     1     -42.219  58.812 -55.568  1.00  0.00     0.042 A 
HETATM    6  C   UNL     1     -42.490  57.460 -55.623  1.00  0.00     0.030 A 
HETATM    7  C   UNL     1     -42.479  57.193 -57.002  1.00  0.00     0.190 A 
HETATM    8  N   UNL     1     -42.202  58.253 -57.751  1.00  0.00    -0.149 NA
HETATM    9  N   UNL     1     -42.054  59.241 -56.852  1.00  0.00    -0.279 N 
HETATM   10  H   UNL     1     -41.850  60.176 -57.191  1.00  0.00     0.189 HD
HETATM   11  C   UNL     1     -42.785  56.640 -54.413  1.00  0.00     0.074 C 
ENDROOT
BRANCH  11  12
HETATM   12  C   UNL     1     -41.961  55.359 -54.466  1.00  0.00    -0.048 A 
HETATM   13  C   UNL     1     -40.608  55.307 -54.836  1.00  0.00     0.009 A 
HETATM   14  C   UNL     1     -39.913  54.093 -54.850  1.00  0.00     0.024 A 
HETATM   15  C   UNL     1     -40.561  52.916 -54.488  1.00  0.00     0.034 A 
HETATM   16 CL   UNL     1     -39.707  51.423 -54.510  1.00  0.00    -0.084 Cl
HETATM   17  C   UNL     1     -41.897  52.942 -54.107  1.00  0.00     0.024 A 
HETATM   18  C   UNL     1     -42.590  54.155 -54.092  1.00  0.00     0.009 A 
ENDBRANCH  11  12
BRANCH   1  19
HETATM   19  C   UNL     1     -43.978  57.667 -52.463  1.00  0.00     0.267 C 
HETATM   20  O   UNL     1     -44.877  58.244 -53.064  1.00  0.00    -0.265 OA
BRANCH  19  21
HETATM   21  O   UNL     1     -44.076  57.172 -51.203  1.00  0.00    -0.321 OA
BRANCH  21  22
HETATM   22  C   UNL     1     -43.103  56.180 -50.837  1.00  0.00     0.174 C 
HETATM   23  C   UNL     1     -43.789  54.846 -50.621  1.00  0.00     0.034 C 
ENDBRANCH  21  22
ENDBRANCH  19  21
ENDBRANCH   1  19
BRANCH   2  24
HETATM   24  O   UNL     1     -42.065  59.554 -51.948  1.00  0.00    -0.389 OA
HETATM   25  H   UNL     1     -41.448  59.286 -51.242  1.00  0.00     0.210 HD
ENDBRANCH   2  24
BRANCH   7  26
HETATM   26  O   UNL     1     -42.689  56.046 -57.653  1.00  0.00    -0.343 OA
HETATM   27  H   UNL     1     -43.332  56.187 -58.365  1.00  0.00     0.219 HD
ENDBRANCH   7  26
TORSDOF 6
ENDMDL
MODEL 3
REMARK VINA RESULT:      -6.6      3.007      5.128
REMARK  6 active torsions:
REMARK  status: ('A' for Active; 'I' for Inactive)
REMARK    1  A    between atoms: C_2  and  O_3 
REMARK    2  A    between atoms: O_3  and  C_4 
REMARK    3  A    between atoms: C_4  and  C_5 
REMARK    4  A    between atoms: C_6  and  O_7 
REMARK    5  A    between atoms: C_12  and  O_13 
REMARK    6  A    between atoms: C_17  and  C_18 
ROOT
HETATM    1  C   UNL     1     -43.281  56.935 -56.080  1.00  0.00     0.133 C 
HETATM    2  C   UNL     1     -44.544  57.711 -55.581  1.00  0.00     0.073 C 
HETATM    3  C   UNL     1     -45.173  57.018 -54.359  1.00  0.00     0.047 C 
HETATM    4  C   UNL     1     -44.258  59.200 -55.247  1.00  0.00     0.097 C 
HETATM    5  C   UNL     1     -42.998  59.308 -54.480  1.00  0.00     0.042 A 
HETATM    6  C   UNL     1     -41.948  58.413 -54.487  1.00  0.00     0.030 A 
HETATM    7  C   UNL     1     -41.013  59.017 -53.631  1.00  0.00     0.190 A 
HETATM    8  N   UNL     1     -41.429  60.163 -53.107  1.00  0.00    -0.149 NA
HETATM    9  N   UNL     1     -42.649  60.329 -53.647  1.00  0.00    -0.279 N 
HETATM   10  H   UNL     1     -43.174  61.164 -53.406  1.00  0.00     0.189 HD
HETATM   11  C   UNL     1     -41.935  57.182 -55.329  1.00  0.00     0.074 C 
ENDROOT
BRANCH  11  12
HETATM   12  C   UNL     1     -41.498  55.998 -54.474  1.00  0.00    -0.048 A 
HETATM   13  C   UNL     1     -41.890  55.801 -53.141  1.00  0.00     0.009 A 
HETATM   14  C   UNL     1     -41.457  54.682 -52.422  1.00  0.00     0.024 A 
HETATM   15  C   UNL     1     -40.632  53.741 -53.030  1.00  0.00     0.034 A 
HETATM   16 CL   UNL     1     -40.096  52.368 -52.143  1.00  0.00    -0.084 Cl
HETATM   17  C   UNL     1     -40.237  53.907 -54.352  1.00  0.00     0.024 A 
HETATM   18  C   UNL     1     -40.671  55.025 -55.070  1.00  0.00     0.009 A 
ENDBRANCH  11  12
BRANCH   1  19
HETATM   19  C   UNL     1     -43.070  57.179 -57.563  1.00  0.00     0.267 C 
HETATM   20  O   UNL     1     -42.210  57.943 -57.988  1.00  0.00    -0.265 OA
BRANCH  19  21
HETATM   21  O   UNL     1     -43.927  56.463 -58.335  1.00  0.00    -0.321 OA
BRANCH  21  22
HETATM   22  C   UNL     1     -43.329  55.660 -59.364  1.00  0.00     0.174 C 
HETATM   23  C   UNL     1     -44.329  54.634 -59.858  1.00  0.00     0.034 C 
ENDBRANCH  21  22
ENDBRANCH  19  21
ENDBRANCH   1  19
BRANCH   2  24
HETATM   24  O   UNL     1     -45.573  57.693 -56.588  1.00  0.00    -0.389 OA
HETATM   25  H   UNL     1     -45.660  58.588 -56.966  1.00  0.00     0.210 HD
ENDBRANCH   2  24
BRANCH   7  26
HETATM   26  O   UNL     1     -39.796  58.606 -53.266  1.00  0.00    -0.343 OA
HETATM   27  H   UNL     1     -39.745  57.640 -53.327  1.00  0.00     0.219 HD
ENDBRANCH   7  26
TORSDOF 6
ENDMDL
MODEL 4
REMARK VINA RESULT:      -6.5      2.869      4.737
REMARK  6 active torsions:
REMARK  status: ('A' for Active; 'I' for Inactive)
REMARK    1  A    between atoms: C_2  and  O_3 
REMARK    2  A    between atoms: O_3  and  C_4 
REMARK    3  A    between atoms: C_4  and  C_5 
REMARK    4  A    between atoms: C_6  and  O_7 
REMARK    5  A    between atoms: C_12  and  O_13 
REMARK    6  A    between atoms: C_17  and  C_18 
ROOT
HETATM    1  C   UNL     1     -43.255  56.927 -56.121  1.00  0.00     0.133 C 
HETATM    2  C   UNL     1     -44.560  57.679 -55.696  1.00  0.00     0.073 C 
HETATM    3  C   UNL     1     -45.202  57.021 -54.462  1.00  0.00     0.047 C 
HETATM    4  C   UNL     1     -44.336  59.192 -55.425  1.00  0.00     0.097 C 
HETATM    5  C   UNL     1     -43.105  59.380 -54.627  1.00  0.00     0.042 A 
HETATM    6  C   UNL     1     -42.025  58.524 -54.560  1.00  0.00     0.030 A 
HETATM    7  C   UNL     1     -41.138  59.201 -53.707  1.00  0.00     0.190 A 
HETATM    8  N   UNL     1     -41.610  60.354 -53.250  1.00  0.00    -0.149 NA
HETATM    9  N   UNL     1     -42.817  60.451 -53.833  1.00  0.00    -0.279 N 
HETATM   10  H   UNL     1     -43.378  61.277 -53.647  1.00  0.00     0.189 HD
HETATM   11  C   UNL     1     -41.942  57.257 -55.342  1.00  0.00     0.074 C 
ENDROOT
BRANCH  11  12
HETATM   12  C   UNL     1     -41.492  56.130 -54.420  1.00  0.00    -0.048 A 
HETATM   13  C   UNL     1     -41.864  56.020 -53.071  1.00  0.00     0.009 A 
HETATM   14  C   UNL     1     -41.419  54.949 -52.288  1.00  0.00     0.024 A 
HETATM   15  C   UNL     1     -40.602  53.971 -52.847  1.00  0.00     0.034 A 
HETATM   16 CL   UNL     1     -40.052  52.658 -51.882  1.00  0.00    -0.084 Cl
HETATM   17  C   UNL     1     -40.227  54.051 -54.183  1.00  0.00     0.024 A 
HETATM   18  C   UNL     1     -40.674  55.121 -54.964  1.00  0.00     0.009 A 
ENDBRANCH  11  12
BRANCH   1  19
HETATM   19  C   UNL     1     -43.006  57.110 -57.606  1.00  0.00     0.267 C 
HETATM   20  O   UNL     1     -43.665  56.527 -58.460  1.00  0.00    -0.265 OA
BRANCH  19  21
HETATM   21  O   UNL     1     -41.995  57.978 -57.861  1.00  0.00    -0.321 OA
BRANCH  21  22
HETATM   22  C   UNL     1     -42.356  59.184 -58.553  1.00  0.00     0.174 C 
HETATM   23  C   UNL     1     -41.610  60.360 -57.956  1.00  0.00     0.034 C 
ENDBRANCH  21  22
ENDBRANCH  19  21
ENDBRANCH   1  19
BRANCH   2  24
HETATM   24  O   UNL     1     -45.555  57.578 -56.731  1.00  0.00    -0.389 OA
HETATM   25  H   UNL     1     -46.439  57.551 -56.319  1.00  0.00     0.210 HD
ENDBRANCH   2  24
BRANCH   7  26
HETATM   26  O   UNL     1     -39.920  58.851 -53.286  1.00  0.00    -0.343 OA
HETATM   27  H   UNL     1     -39.861  57.886 -53.220  1.00  0.00     0.219 HD
ENDBRANCH   7  26
TORSDOF 6
ENDMDL
MODEL 5
REMARK VINA RESULT:      -6.3      2.704      4.257
REMARK  6 active torsions:
REMARK  status: ('A' for Active; 'I' for Inactive)
REMARK    1  A    between atoms: C_2  and  O_3 
REMARK    2  A    between atoms: O_3  and  C_4 
REMARK    3  A    between atoms: C_4  and  C_5 
REMARK    4  A    between atoms: C_6  and  O_7 
REMARK    5  A    between atoms: C_12  and  O_13 
REMARK    6  A    between atoms: C_17  and  C_18 
ROOT
HETATM    1  C   UNL     1     -43.148  57.833 -51.942  1.00  0.00     0.133 C 
HETATM    2  C   UNL     1     -42.278  59.050 -51.483  1.00  0.00     0.073 C 
HETATM    3  C   UNL     1     -40.805  58.640 -51.300  1.00  0.00     0.047 C 
HETATM    4  C   UNL     1     -42.365  60.266 -52.445  1.00  0.00     0.097 C 
HETATM    5  C   UNL     1     -42.272  59.802 -53.847  1.00  0.00     0.042 A 
HETATM    6  C   UNL     1     -42.594  58.549 -54.326  1.00  0.00     0.030 A 
HETATM    7  C   UNL     1     -42.362  58.669 -55.706  1.00  0.00     0.190 A 
HETATM    8  N   UNL     1     -41.911  59.863 -56.070  1.00  0.00    -0.149 NA
HETATM    9  N   UNL     1     -41.870  60.548 -54.915  1.00  0.00    -0.279 N 
HETATM   10  H   UNL     1     -41.566  61.517 -54.939  1.00  0.00     0.189 HD
HETATM   11  C   UNL     1     -43.130  57.461 -53.458  1.00  0.00     0.074 C 
ENDROOT
BRANCH  11  12
HETATM   12  C   UNL     1     -42.372  56.171 -53.751  1.00  0.00    -0.048 A 
HETATM   13  C   UNL     1     -40.990  56.106 -53.991  1.00  0.00     0.009 A 
HETATM   14  C   UNL     1     -40.361  54.881 -54.241  1.00  0.00     0.024 A 
HETATM   15  C   UNL     1     -41.105  53.706 -54.249  1.00  0.00     0.034 A 
HETATM   16 CL   UNL     1     -40.332  52.202 -54.563  1.00  0.00    -0.084 Cl
HETATM   17  C   UNL     1     -42.473  53.741 -54.005  1.00  0.00     0.024 A 
HETATM   18  C   UNL     1     -43.100  54.965 -53.753  1.00  0.00     0.009 A 
ENDBRANCH  11  12
BRANCH   1  19
HETATM   19  C   UNL     1     -44.586  58.022 -51.498  1.00  0.00     0.267 C 
HETATM   20  O   UNL     1     -45.102  57.330 -50.628  1.00  0.00    -0.265 OA
BRANCH  19  21
HETATM   21  O   UNL     1     -45.208  59.028 -52.165  1.00  0.00    -0.321 OA
BRANCH  21  22
HETATM   22  C   UNL     1     -46.214  59.744 -51.433  1.00  0.00     0.174 C 
HETATM   23  C   UNL     1     -45.702  61.126 -51.078  1.00  0.00     0.034 C 
ENDBRANCH  21  22
ENDBRANCH  19  21
ENDBRANCH   1  19
BRANCH   2  24
HETATM   24  O   UNL     1     -42.700  59.506 -50.185  1.00  0.00    -0.389 OA
HETATM   25  H   UNL     1     -41.950  59.948 -49.745  1.00  0.00     0.210 HD
ENDBRANCH   2  24
BRANCH   7  26
HETATM   26  O   UNL     1     -42.513  57.770 -56.681  1.00  0.00    -0.343 OA
HETATM   27  H   UNL     1     -42.629  56.888 -56.297  1.00  0.00     0.219 HD
ENDBRANCH   7  26
TORSDOF 6
ENDMDL
MODEL 6
REMARK VINA RESULT:      -6.2     16.666     19.213
REMARK  6 active torsions:
REMARK  status: ('A' for Active; 'I' for Inactive)
REMARK    1  A    between atoms: C_2  and  O_3 
REMARK    2  A    between atoms: O_3  and  C_4 
REMARK    3  A    between atoms: C_4  and  C_5 
REMARK    4  A    between atoms: C_6  and  O_7 
REMARK    5  A    between atoms: C_12  and  O_13 
REMARK    6  A    between atoms: C_17  and  C_18 
ROOT
HETATM    1  C   UNL     1     -33.809  39.823 -53.151  1.00  0.00     0.133 C 
HETATM    2  C   UNL     1     -33.568  38.329 -52.754  1.00  0.00     0.073 C 
HETATM    3  C   UNL     1     -34.457  37.385 -53.583  1.00  0.00     0.047 C 
HETATM    4  C   UNL     1     -32.083  37.892 -52.881  1.00  0.00     0.097 C 
HETATM    5  C   UNL     1     -31.519  38.400 -54.151  1.00  0.00     0.042 A 
HETATM    6  C   UNL     1     -31.956  39.494 -54.870  1.00  0.00     0.030 A 
HETATM    7  C   UNL     1     -31.053  39.546 -55.945  1.00  0.00     0.190 A 
HETATM    8  N   UNL     1     -30.152  38.572 -55.935  1.00  0.00    -0.149 NA
HETATM    9  N   UNL     1     -30.449  37.883 -54.820  1.00  0.00    -0.279 N 
HETATM   10  H   UNL     1     -29.874  37.081 -54.580  1.00  0.00     0.189 HD
HETATM   11  C   UNL     1     -33.084  40.362 -54.424  1.00  0.00     0.074 C 
ENDROOT
BRANCH  11  12
HETATM   12  C   UNL     1     -34.027  40.596 -55.598  1.00  0.00    -0.048 A 
HETATM   13  C   UNL     1     -34.498  39.581 -56.446  1.00  0.00     0.009 A 
HETATM   14  C   UNL     1     -35.372  39.872 -57.499  1.00  0.00     0.024 A 
HETATM   15  C   UNL     1     -35.791  41.181 -57.713  1.00  0.00     0.034 A 
HETATM   16 CL   UNL     1     -36.862  41.538 -59.011  1.00  0.00    -0.084 Cl
HETATM   17  C   UNL     1     -35.347  42.203 -56.883  1.00  0.00     0.024 A 
HETATM   18  C   UNL     1     -34.475  41.911 -55.831  1.00  0.00     0.009 A 
ENDBRANCH  11  12
BRANCH   1  19
HETATM   19  C   UNL     1     -33.489  40.733 -51.979  1.00  0.00     0.267 C 
HETATM   20  O   UNL     1     -32.440  40.652 -51.351  1.00  0.00    -0.265 OA
BRANCH  19  21
HETATM   21  O   UNL     1     -34.482  41.623 -51.726  1.00  0.00    -0.321 OA
BRANCH  21  22
HETATM   22  C   UNL     1     -35.823  41.115 -51.811  1.00  0.00     0.174 C 
HETATM   23  C   UNL     1     -36.607  41.908 -52.837  1.00  0.00     0.034 C 
ENDBRANCH  21  22
ENDBRANCH  19  21
ENDBRANCH   1  19
BRANCH   2  24
HETATM   24  O   UNL     1     -33.959  38.104 -51.388  1.00  0.00    -0.389 OA
HETATM   25  H   UNL     1     -33.277  37.562 -50.949  1.00  0.00     0.210 HD
ENDBRANCH   2  24
BRANCH   7  26
HETATM   26  O   UNL     1     -30.983  40.407 -56.963  1.00  0.00    -0.343 OA
HETATM   27  H   UNL     1     -31.078  39.932 -57.802  1.00  0.00     0.219 HD
ENDBRANCH   7  26
TORSDOF 6
ENDMDL
MODEL 7
REMARK VINA RESULT:      -6.1      2.014      3.683
REMARK  6 active torsions:
REMARK  status: ('A' for Active; 'I' for Inactive)
REMARK    1  A    between atoms: C_2  and  O_3 
REMARK    2  A    between atoms: O_3  and  C_4 
REMARK    3  A    between atoms: C_4  and  C_5 
REMARK    4  A    between atoms: C_6  and  O_7 
REMARK    5  A    between atoms: C_12  and  O_13 
REMARK    6  A    between atoms: C_17  and  C_18 
ROOT
HETATM    1  C   UNL     1     -42.745  57.857 -55.147  1.00  0.00     0.133 C 
HETATM    2  C   UNL     1     -44.157  58.320 -54.654  1.00  0.00     0.073 C 
HETATM    3  C   UNL     1     -45.075  57.113 -54.389  1.00  0.00     0.047 C 
HETATM    4  C   UNL     1     -44.101  59.221 -53.391  1.00  0.00     0.097 C 
HETATM    5  C   UNL     1     -43.148  58.652 -52.412  1.00  0.00     0.042 A 
HETATM    6  C   UNL     1     -42.081  57.821 -52.685  1.00  0.00     0.030 A 
HETATM    7  C   UNL     1     -41.502  57.626 -51.421  1.00  0.00     0.190 A 
HETATM    8  N   UNL     1     -42.145  58.241 -50.436  1.00  0.00    -0.149 NA
HETATM    9  N   UNL     1     -43.150  58.874 -51.067  1.00  0.00    -0.279 N 
HETATM   10  H   UNL     1     -43.786  59.440 -50.514  1.00  0.00     0.189 HD
HETATM   11  C   UNL     1     -41.717  57.394 -54.067  1.00  0.00     0.074 C 
ENDROOT
BRANCH  11  12
HETATM   12  C   UNL     1     -41.474  55.889 -54.076  1.00  0.00    -0.048 A 
HETATM   13  C   UNL     1     -42.277  54.957 -53.399  1.00  0.00     0.009 A 
HETATM   14  C   UNL     1     -41.998  53.588 -53.463  1.00  0.00     0.024 A 
HETATM   15  C   UNL     1     -40.915  53.133 -54.209  1.00  0.00     0.034 A 
HETATM   16 CL   UNL     1     -40.570  51.449 -54.283  1.00  0.00    -0.084 Cl
HETATM   17  C   UNL     1     -40.110  54.034 -54.896  1.00  0.00     0.024 A 
HETATM   18  C   UNL     1     -40.391  55.401 -54.833  1.00  0.00     0.009 A 
ENDBRANCH  11  12
BRANCH   1  19
HETATM   19  C   UNL     1     -42.110  58.938 -56.001  1.00  0.00     0.267 C 
HETATM   20  O   UNL     1     -41.583  59.933 -55.518  1.00  0.00    -0.265 OA
BRANCH  19  21
HETATM   21  O   UNL     1     -42.194  58.667 -57.329  1.00  0.00    -0.321 OA
BRANCH  21  22
HETATM   22  C   UNL     1     -42.496  57.307 -57.678  1.00  0.00     0.174 C 
HETATM   23  C   UNL     1     -43.714  57.268 -58.579  1.00  0.00     0.034 C 
ENDBRANCH  21  22
ENDBRANCH  19  21
ENDBRANCH   1  19
BRANCH   2  24
HETATM   24  O   UNL     1     -44.823  59.075 -55.683  1.00  0.00    -0.389 OA
HETATM   25  H   UNL     1     -45.342  59.787 -55.266  1.00  0.00     0.210 HD
ENDBRANCH   2  24
BRANCH   7  26
HETATM   26  O   UNL     1     -40.428  56.913 -51.072  1.00  0.00    -0.343 OA
HETATM   27  H   UNL     1     -40.187  56.311 -51.792  1.00  0.00     0.219 HD
ENDBRANCH   7  26
TORSDOF 6
ENDMDL
MODEL 8
REMARK VINA RESULT:      -6.1      2.791      3.668
REMARK  6 active torsions:
REMARK  status: ('A' for Active; 'I' for Inactive)
REMARK    1  A    between atoms: C_2  and  O_3 
REMARK    2  A    between atoms: O_3  and  C_4 
REMARK    3  A    between atoms: C_4  and  C_5 
REMARK    4  A    between atoms: C_6  and  O_7 
REMARK    5  A    between atoms: C_12  and  O_13 
REMARK    6  A    between atoms: C_17  and  C_18 
ROOT
HETATM    1  C   UNL     1     -42.703  58.053 -52.758  1.00  0.00     0.133 C 
HETATM    2  C   UNL     1     -41.770  58.980 -53.605  1.00  0.00     0.073 C 
HETATM    3  C   UNL     1     -40.292  58.584 -53.435  1.00  0.00     0.047 C 
HETATM    4  C   UNL     1     -42.134  59.003 -55.115  1.00  0.00     0.097 C 
HETATM    5  C   UNL     1     -42.401  57.626 -55.586  1.00  0.00     0.042 A 
HETATM    6  C   UNL     1     -42.810  56.555 -54.818  1.00  0.00     0.030 A 
HETATM    7  C   UNL     1     -42.951  55.525 -55.763  1.00  0.00     0.190 A 
HETATM    8  N   UNL     1     -42.638  55.887 -57.000  1.00  0.00    -0.149 NA
HETATM    9  N   UNL     1     -42.310  57.185 -56.873  1.00  0.00    -0.279 N 
HETATM   10  H   UNL     1     -42.045  57.699 -57.707  1.00  0.00     0.189 HD
HETATM   11  C   UNL     1     -43.075  56.659 -53.354  1.00  0.00     0.074 C 
ENDROOT
BRANCH  11  12
HETATM   12  C   UNL     1     -42.392  55.499 -52.640  1.00  0.00    -0.048 A 
HETATM   13  C   UNL     1     -41.112  55.020 -52.960  1.00  0.00     0.009 A 
HETATM   14  C   UNL     1     -40.544  53.955 -52.251  1.00  0.00     0.024 A 
HETATM   15  C   UNL     1     -41.248  53.361 -51.208  1.00  0.00     0.034 A 
HETATM   16 CL   UNL     1     -40.551  52.049 -50.340  1.00  0.00    -0.084 Cl
HETATM   17  C   UNL     1     -42.513  53.822 -50.864  1.00  0.00     0.024 A 
HETATM   18  C   UNL     1     -43.078  54.887 -51.572  1.00  0.00     0.009 A 
ENDBRANCH  11  12
BRANCH   1  19
HETATM   19  C   UNL     1     -43.978  58.789 -52.392  1.00  0.00     0.267 C 
HETATM   20  O   UNL     1     -44.840  59.062 -53.220  1.00  0.00    -0.265 OA
BRANCH  19  21
HETATM   21  O   UNL     1     -44.042  59.094 -51.071  1.00  0.00    -0.321 OA
BRANCH  21  22
HETATM   22  C   UNL     1     -44.440  60.436 -50.751  1.00  0.00     0.174 C 
HETATM   23  C   UNL     1     -43.309  61.150 -50.039  1.00  0.00     0.034 C 
ENDBRANCH  21  22
ENDBRANCH  19  21
ENDBRANCH   1  19
BRANCH   2  24
HETATM   24  O   UNL     1     -41.847  60.337 -53.132  1.00  0.00    -0.389 OA
HETATM   25  H   UNL     1     -42.778  60.549 -52.931  1.00  0.00     0.210 HD
ENDBRANCH   2  24
BRANCH   7  26
HETATM   26  O   UNL     1     -43.333  54.257 -55.595  1.00  0.00    -0.343 OA
HETATM   27  H   UNL     1     -44.039  54.212 -54.933  1.00  0.00     0.219 HD
ENDBRANCH   7  26
TORSDOF 6
ENDMDL
MODEL 9
REMARK VINA RESULT:      -6.1      3.420      5.503
REMARK  6 active torsions:
REMARK  status: ('A' for Active; 'I' for Inactive)
REMARK    1  A    between atoms: C_2  and  O_3 
REMARK    2  A    between atoms: O_3  and  C_4 
REMARK    3  A    between atoms: C_4  and  C_5 
REMARK    4  A    between atoms: C_6  and  O_7 
REMARK    5  A    between atoms: C_12  and  O_13 
REMARK    6  A    between atoms: C_17  and  C_18 
ROOT
HETATM    1  C   UNL     1     -44.672  57.939 -52.247  1.00  0.00     0.133 C 
HETATM    2  C   UNL     1     -43.815  56.889 -51.465  1.00  0.00     0.073 C 
HETATM    3  C   UNL     1     -43.590  55.620 -52.306  1.00  0.00     0.047 C 
HETATM    4  C   UNL     1     -42.448  57.447 -50.985  1.00  0.00     0.097 C 
HETATM    5  C   UNL     1     -41.816  58.225 -52.073  1.00  0.00     0.042 A 
HETATM    6  C   UNL     1     -42.457  58.847 -53.124  1.00  0.00     0.030 A 
HETATM    7  C   UNL     1     -41.402  59.463 -53.817  1.00  0.00     0.190 A 
HETATM    8  N   UNL     1     -40.208  59.237 -53.285  1.00  0.00    -0.149 NA
HETATM    9  N   UNL     1     -40.483  58.481 -52.209  1.00  0.00    -0.279 N 
HETATM   10  H   UNL     1     -39.713  58.187 -51.615  1.00  0.00     0.189 HD
HETATM   11  C   UNL     1     -43.939  58.840 -53.291  1.00  0.00     0.074 C 
ENDROOT
BRANCH  11  12
HETATM   12  C   UNL     1     -44.277  58.483 -54.733  1.00  0.00    -0.048 A 
HETATM   13  C   UNL     1     -45.237  59.155 -55.507  1.00  0.00     0.009 A 
HETATM   14  C   UNL     1     -45.485  58.777 -56.831  1.00  0.00     0.024 A 
HETATM   15  C   UNL     1     -44.773  57.726 -57.400  1.00  0.00     0.034 A 
HETATM   16 CL   UNL     1     -45.082  57.259 -59.026  1.00  0.00    -0.084 Cl
HETATM   17  C   UNL     1     -43.810  57.050 -56.658  1.00  0.00     0.024 A 
HETATM   18  C   UNL     1     -43.562  57.430 -55.337  1.00  0.00     0.009 A 
ENDBRANCH  11  12
BRANCH   1  19
HETATM   19  C   UNL     1     -45.427  58.826 -51.274  1.00  0.00     0.267 C 
HETATM   20  O   UNL     1     -46.339  58.405 -50.572  1.00  0.00    -0.265 OA
BRANCH  19  21
HETATM   21  O   UNL     1     -44.974  60.106 -51.279  1.00  0.00    -0.321 OA
BRANCH  21  22
HETATM   22  C   UNL     1     -44.473  60.603 -50.028  1.00  0.00     0.174 C 
HETATM   23  C   UNL     1     -43.086  61.182 -50.225  1.00  0.00     0.034 C 
ENDBRANCH  21  22
ENDBRANCH  19  21
ENDBRANCH   1  19
BRANCH   2  24
HETATM   24  O   UNL     1     -44.522  56.438 -50.295  1.00  0.00    -0.389 OA
HETATM   25  H   UNL     1     -44.807  55.516 -50.433  1.00  0.00     0.210 HD
ENDBRANCH   2  24
BRANCH   7  26
HETATM   26  O   UNL     1     -41.427  60.216 -54.919  1.00  0.00    -0.343 OA
HETATM   27  H   UNL     1     -42.270  60.692 -54.972  1.00  0.00     0.219 HD
ENDBRANCH   7  26
TORSDOF 6
ENDMDL
MODEL 10
REMARK VINA RESULT:      -6.1      3.142      5.593
REMARK  6 active torsions:
REMARK  status: ('A' for Active; 'I' for Inactive)
REMARK    1  A    between atoms: C_2  and  O_3 
REMARK    2  A    between atoms: O_3  and  C_4 
REMARK    3  A    between atoms: C_4  and  C_5 
REMARK    4  A    between atoms: C_6  and  O_7 
REMARK    5  A    between atoms: C_12  and  O_13 
REMARK    6  A    between atoms: C_17  and  C_18 
ROOT
HETATM    1  C   UNL     1     -42.306  55.874 -54.137  1.00  0.00     0.133 C 
HETATM    2  C   UNL     1     -41.717  56.668 -52.923  1.00  0.00     0.073 C 
HETATM    3  C   UNL     1     -40.700  57.723 -53.393  1.00  0.00     0.047 C 
HETATM    4  C   UNL     1     -42.805  57.345 -52.047  1.00  0.00     0.097 C 
HETATM    5  C   UNL     1     -43.812  57.997 -52.913  1.00  0.00     0.042 A 
HETATM    6  C   UNL     1     -44.118  57.666 -54.217  1.00  0.00     0.030 A 
HETATM    7  C   UNL     1     -45.153  58.560 -54.535  1.00  0.00     0.190 A 
HETATM    8  N   UNL     1     -45.460  59.396 -53.551  1.00  0.00    -0.149 NA
HETATM    9  N   UNL     1     -44.630  59.029 -52.559  1.00  0.00    -0.279 N 
HETATM   10  H   UNL     1     -44.688  59.523 -51.674  1.00  0.00     0.189 HD
HETATM   11  C   UNL     1     -43.466  56.539 -54.944  1.00  0.00     0.074 C 
ENDROOT
BRANCH  11  12
HETATM   12  C   UNL     1     -43.037  57.018 -56.326  1.00  0.00    -0.048 A 
HETATM   13  C   UNL     1     -42.461  58.273 -56.581  1.00  0.00     0.009 A 
HETATM   14  C   UNL     1     -42.082  58.639 -57.877  1.00  0.00     0.024 A 
HETATM   15  C   UNL     1     -42.269  57.752 -58.933  1.00  0.00     0.034 A 
HETATM   16 CL   UNL     1     -41.807  58.206 -60.527  1.00  0.00    -0.084 Cl
HETATM   17  C   UNL     1     -42.828  56.500 -58.706  1.00  0.00     0.024 A 
HETATM   18  C   UNL     1     -43.204  56.135 -57.411  1.00  0.00     0.009 A 
ENDBRANCH  11  12
BRANCH   1  19
HETATM   19  C   UNL     1     -42.744  54.491 -53.693  1.00  0.00     0.267 C 
HETATM   20  O   UNL     1     -43.447  54.309 -52.705  1.00  0.00    -0.265 OA
BRANCH  19  21
HETATM   21  O   UNL     1     -42.276  53.511 -54.507  1.00  0.00    -0.321 OA
BRANCH  21  22
HETATM   22  C   UNL     1     -40.853  53.477 -54.700  1.00  0.00     0.174 C 
HETATM   23  C   UNL     1     -40.304  52.145 -54.232  1.00  0.00     0.034 C 
ENDBRANCH  21  22
ENDBRANCH  19  21
ENDBRANCH   1  19
BRANCH   2  24
HETATM   24  O   UNL     1     -40.970  55.788 -52.064  1.00  0.00    -0.389 OA
HETATM   25  H   UNL     1     -40.033  55.804 -52.334  1.00  0.00     0.210 HD
ENDBRANCH   2  24
BRANCH   7  26
HETATM   26  O   UNL     1     -45.850  58.696 -55.666  1.00  0.00    -0.343 OA
HETATM   27  H   UNL     1     -45.248  58.897 -56.398  1.00  0.00     0.219 HD
ENDBRANCH   7  26
TORSDOF 6
ENDMDL
