MODEL 1
REMARK VINA RESULT:      -8.2      0.000      0.000
REMARK  8 active torsions:
REMARK  status: ('A' for Active; 'I' for Inactive)
REMARK    1  A    between atoms: C_2  and  S_3 
REMARK    2  A    between atoms: C_2  and  C_24 
REMARK    3  A    between atoms: S_3  and  C_4 
REMARK    4  A    between atoms: N_5  and  C_6 
REMARK    5  A    between atoms: C_13  and  C_14 
REMARK    6  A    between atoms: C_14  and  N_15 
REMARK       I    between atoms: C_24  and  N_25 
REMARK    7  A    between atoms: N_25  and  C_26 
REMARK    8  A    between atoms: C_29  and  C_30 
REMARK       I    between atoms: C_30  and  N_31 
ROOT
HETATM    1  C   UNL     1     -44.461  58.607 -51.150  1.00  0.00     0.197 A 
HETATM    2  N   UNL     1     -43.319  57.832 -51.254  1.00  0.00    -0.274 N 
HETATM    3  C   UNL     1     -43.751  56.557 -50.907  1.00  0.00     0.161 A 
HETATM    4  N   UNL     1     -45.043  56.582 -50.640  1.00  0.00    -0.132 NA
HETATM    5  N   UNL     1     -45.490  57.854 -50.830  1.00  0.00    -0.122 NA
ENDROOT
BRANCH   1   6
HETATM    6  S   UNL     1     -44.629  60.251 -51.665  1.00  0.00    -0.076 SA
BRANCH   6   7
HETATM    7  C   UNL     1     -45.588  60.148 -53.217  1.00  0.00     0.143 C 
HETATM    8  C   UNL     1     -46.358  61.444 -53.439  1.00  0.00     0.031 C 
BRANCH   7   9
HETATM    9  C   UNL     1     -44.752  59.755 -54.435  1.00  0.00     0.236 C 
HETATM   10  N   UNL     1     -45.180  58.616 -55.092  1.00  0.00    -0.326 N 
HETATM   11  H   UNL     1     -46.153  58.365 -54.949  1.00  0.00     0.169 HD
HETATM   12  O   UNL     1     -43.829  60.483 -54.802  1.00  0.00    -0.272 OA
BRANCH  10  13
HETATM   13  C   UNL     1     -44.565  58.049 -56.226  1.00  0.00     0.034 A 
HETATM   14  C   UNL     1     -43.379  57.314 -56.164  1.00  0.00     0.030 A 
HETATM   15  C   UNL     1     -42.806  56.794 -57.331  1.00  0.00     0.019 A 
HETATM   16  C   UNL     1     -43.418  57.015 -58.568  1.00  0.00     0.032 A 
HETATM   17  C   UNL     1     -44.611  57.741 -58.632  1.00  0.00     0.019 A 
HETATM   18  C   UNL     1     -45.193  58.236 -57.463  1.00  0.00     0.030 A 
BRANCH  16  19
HETATM   19  C   UNL     1     -42.811  56.546 -59.837  1.00  0.00     0.249 C 
HETATM   20  N   UNL     1     -41.478  56.784 -60.019  1.00  0.00    -0.366 N 
HETATM   21  H   UNL     1     -40.867  57.047 -59.258  1.00  0.00     0.159 HD
HETATM   22  H   UNL     1     -41.050  56.358 -60.832  1.00  0.00     0.159 HD
HETATM   23  O   UNL     1     -43.478  55.953 -60.675  1.00  0.00    -0.268 OA
ENDBRANCH  16  19
ENDBRANCH  10  13
ENDBRANCH   7   9
ENDBRANCH   6   7
ENDBRANCH   1   6
BRANCH   2  24
HETATM   24  C   UNL     1     -42.007  58.222 -51.616  1.00  0.00     0.043 A 
HETATM   25  C   UNL     1     -41.602  58.164 -52.958  1.00  0.00     0.033 A 
HETATM   26  C   UNL     1     -40.303  58.536 -53.306  1.00  0.00     0.044 A 
HETATM   27  C   UNL     1     -39.419  58.959 -52.322  1.00  0.00     0.116 A 
HETATM   28  F   UNL     1     -38.172  59.311 -52.658  1.00  0.00    -0.206 F 
HETATM   29  C   UNL     1     -39.809  59.022 -50.989  1.00  0.00     0.044 A 
HETATM   30  C   UNL     1     -41.108  58.653 -50.630  1.00  0.00     0.033 A 
ENDBRANCH   2  24
BRANCH   3  31
HETATM   31  C   UNL     1     -42.885  55.366 -50.685  1.00  0.00     0.315 C 
BRANCH  31  32
HETATM   32  N   UNL     1     -42.246  54.875 -51.982  1.00  0.00    -0.064 N 
HETATM   33  H   UNL     1     -41.669  55.670 -52.303  1.00  0.00     0.280 HD
HETATM   34  C   UNL     1     -41.291  53.724 -51.756  1.00  0.00     0.235 C 
HETATM   35  C   UNL     1     -40.574  53.397 -53.058  1.00  0.00     0.028 C 
HETATM   36  C   UNL     1     -41.561  53.090 -54.178  1.00  0.00     0.003 C 
HETATM   37  C   UNL     1     -42.563  54.226 -54.353  1.00  0.00     0.028 C 
HETATM   38  C   UNL     1     -43.266  54.571 -53.047  1.00  0.00     0.235 C 
ENDBRANCH  31  32
ENDBRANCH   3  31
TORSDOF 8
ENDMDL
MODEL 2
REMARK VINA RESULT:      -8.1      3.420      6.978
REMARK  8 active torsions:
REMARK  status: ('A' for Active; 'I' for Inactive)
REMARK    1  A    between atoms: C_2  and  S_3 
REMARK    2  A    between atoms: C_2  and  C_24 
REMARK    3  A    between atoms: S_3  and  C_4 
REMARK    4  A    between atoms: N_5  and  C_6 
REMARK    5  A    between atoms: C_13  and  C_14 
REMARK    6  A    between atoms: C_14  and  N_15 
REMARK       I    between atoms: C_24  and  N_25 
REMARK    7  A    between atoms: N_25  and  C_26 
REMARK    8  A    between atoms: C_29  and  C_30 
REMARK       I    between atoms: C_30  and  N_31 
ROOT
HETATM    1  C   UNL     1     -42.014  59.054 -53.719  1.00  0.00     0.197 A 
HETATM    2  N   UNL     1     -42.813  58.461 -54.680  1.00  0.00    -0.274 N 
HETATM    3  C   UNL     1     -43.447  59.536 -55.292  1.00  0.00     0.161 A 
HETATM    4  N   UNL     1     -43.038  60.665 -54.745  1.00  0.00    -0.132 NA
HETATM    5  N   UNL     1     -42.115  60.362 -53.791  1.00  0.00    -0.122 NA
ENDROOT
BRANCH   1   6
HETATM    6  S   UNL     1     -40.807  58.260 -52.765  1.00  0.00    -0.076 SA
BRANCH   6   7
HETATM    7  C   UNL     1     -41.747  57.430 -51.436  1.00  0.00     0.143 C 
HETATM    8  C   UNL     1     -43.152  58.016 -51.349  1.00  0.00     0.031 C 
BRANCH   7   9
HETATM    9  C   UNL     1     -41.762  55.906 -51.549  1.00  0.00     0.236 C 
HETATM   10  N   UNL     1     -40.615  55.351 -52.087  1.00  0.00    -0.326 N 
HETATM   11  H   UNL     1     -39.778  55.922 -52.023  1.00  0.00     0.169 HD
HETATM   12  O   UNL     1     -42.717  55.270 -51.101  1.00  0.00    -0.272 OA
BRANCH  10  13
HETATM   13  C   UNL     1     -40.399  53.976 -52.305  1.00  0.00     0.034 A 
HETATM   14  C   UNL     1     -39.975  53.101 -51.302  1.00  0.00     0.030 A 
HETATM   15  C   UNL     1     -39.757  51.748 -51.587  1.00  0.00     0.019 A 
HETATM   16  C   UNL     1     -39.957  51.267 -52.884  1.00  0.00     0.032 A 
HETATM   17  C   UNL     1     -40.393  52.137 -53.888  1.00  0.00     0.019 A 
HETATM   18  C   UNL     1     -40.633  53.481 -53.594  1.00  0.00     0.030 A 
BRANCH  16  19
HETATM   19  C   UNL     1     -39.671  49.859 -53.250  1.00  0.00     0.249 C 
HETATM   20  N   UNL     1     -39.354  49.001 -52.235  1.00  0.00    -0.366 N 
HETATM   21  H   UNL     1     -39.527  49.223 -51.265  1.00  0.00     0.159 HD
HETATM   22  H   UNL     1     -39.276  48.021 -52.480  1.00  0.00     0.159 HD
HETATM   23  O   UNL     1     -39.738  49.481 -54.413  1.00  0.00    -0.268 OA
ENDBRANCH  16  19
ENDBRANCH  10  13
ENDBRANCH   7   9
ENDBRANCH   6   7
ENDBRANCH   1   6
BRANCH   2  24
HETATM   24  C   UNL     1     -42.974  57.087 -54.984  1.00  0.00     0.043 A 
HETATM   25  C   UNL     1     -42.179  56.489 -55.973  1.00  0.00     0.033 A 
HETATM   26  C   UNL     1     -42.353  55.137 -56.277  1.00  0.00     0.044 A 
HETATM   27  C   UNL     1     -43.311  54.395 -55.599  1.00  0.00     0.116 A 
HETATM   28  F   UNL     1     -43.478  53.101 -55.896  1.00  0.00    -0.206 F 
HETATM   29  C   UNL     1     -44.103  54.977 -54.615  1.00  0.00     0.044 A 
HETATM   30  C   UNL     1     -43.937  56.328 -54.302  1.00  0.00     0.033 A 
ENDBRANCH   2  24
BRANCH   3  31
HETATM   31  C   UNL     1     -44.552  59.454 -56.286  1.00  0.00     0.315 C 
BRANCH  31  32
HETATM   32  N   UNL     1     -44.028  59.306 -57.713  1.00  0.00    -0.064 N 
HETATM   33  H   UNL     1     -44.526  60.037 -58.248  1.00  0.00     0.280 HD
HETATM   34  C   UNL     1     -42.555  59.631 -57.825  1.00  0.00     0.235 C 
HETATM   35  C   UNL     1     -42.144  59.623 -59.290  1.00  0.00     0.028 C 
HETATM   36  C   UNL     1     -42.472  58.291 -59.955  1.00  0.00     0.003 C 
HETATM   37  C   UNL     1     -43.945  57.938 -59.778  1.00  0.00     0.028 C 
HETATM   38  C   UNL     1     -44.366  57.969 -58.315  1.00  0.00     0.235 C 
ENDBRANCH  31  32
ENDBRANCH   3  31
TORSDOF 8
ENDMDL
MODEL 3
REMARK VINA RESULT:      -8.0      3.626      7.081
REMARK  8 active torsions:
REMARK  status: ('A' for Active; 'I' for Inactive)
REMARK    1  A    between atoms: C_2  and  S_3 
REMARK    2  A    between atoms: C_2  and  C_24 
REMARK    3  A    between atoms: S_3  and  C_4 
REMARK    4  A    between atoms: N_5  and  C_6 
REMARK    5  A    between atoms: C_13  and  C_14 
REMARK    6  A    between atoms: C_14  and  N_15 
REMARK       I    between atoms: C_24  and  N_25 
REMARK    7  A    between atoms: N_25  and  C_26 
REMARK    8  A    between atoms: C_29  and  C_30 
REMARK       I    between atoms: C_30  and  N_31 
ROOT
HETATM    1  C   UNL     1     -42.853  58.778 -53.731  1.00  0.00     0.197 A 
HETATM    2  N   UNL     1     -43.282  58.462 -52.453  1.00  0.00    -0.274 N 
HETATM    3  C   UNL     1     -44.213  59.453 -52.163  1.00  0.00     0.161 A 
HETATM    4  N   UNL     1     -44.331  60.270 -53.193  1.00  0.00    -0.132 NA
HETATM    5  N   UNL     1     -43.509  59.822 -54.182  1.00  0.00    -0.122 NA
ENDROOT
BRANCH   1   6
HETATM    6  S   UNL     1     -41.849  57.794 -54.741  1.00  0.00    -0.076 SA
BRANCH   6   7
HETATM    7  C   UNL     1     -42.979  56.520 -55.405  1.00  0.00     0.143 C 
HETATM    8  C   UNL     1     -42.974  56.563 -56.929  1.00  0.00     0.031 C 
BRANCH   7   9
HETATM    9  C   UNL     1     -42.711  55.115 -54.864  1.00  0.00     0.236 C 
HETATM   10  N   UNL     1     -41.396  54.866 -54.518  1.00  0.00    -0.326 N 
HETATM   11  H   UNL     1     -40.831  55.685 -54.315  1.00  0.00     0.169 HD
HETATM   12  O   UNL     1     -43.650  54.337 -54.696  1.00  0.00    -0.272 OA
BRANCH  10  13
HETATM   13  C   UNL     1     -40.902  53.646 -54.014  1.00  0.00     0.034 A 
HETATM   14  C   UNL     1     -40.712  52.513 -54.809  1.00  0.00     0.030 A 
HETATM   15  C   UNL     1     -40.237  51.323 -54.244  1.00  0.00     0.019 A 
HETATM   16  C   UNL     1     -39.958  51.262 -52.875  1.00  0.00     0.032 A 
HETATM   17  C   UNL     1     -40.137  52.398 -52.080  1.00  0.00     0.019 A 
HETATM   18  C   UNL     1     -40.586  53.590 -52.651  1.00  0.00     0.030 A 
BRANCH  16  19
HETATM   19  C   UNL     1     -39.523  50.006 -52.220  1.00  0.00     0.249 C 
HETATM   20  N   UNL     1     -39.364  50.030 -50.863  1.00  0.00    -0.366 N 
HETATM   21  H   UNL     1     -39.740  50.771 -50.288  1.00  0.00     0.159 HD
HETATM   22  H   UNL     1     -39.182  49.141 -50.413  1.00  0.00     0.159 HD
HETATM   23  O   UNL     1     -39.334  48.986 -52.870  1.00  0.00    -0.268 OA
ENDBRANCH  16  19
ENDBRANCH  10  13
ENDBRANCH   7   9
ENDBRANCH   6   7
ENDBRANCH   1   6
BRANCH   2  24
HETATM   24  C   UNL     1     -42.878  57.395 -51.615  1.00  0.00     0.043 A 
HETATM   25  C   UNL     1     -41.660  57.468 -50.923  1.00  0.00     0.033 A 
HETATM   26  C   UNL     1     -41.262  56.406 -50.108  1.00  0.00     0.044 A 
HETATM   27  C   UNL     1     -42.073  55.285 -49.990  1.00  0.00     0.116 A 
HETATM   28  F   UNL     1     -41.686  54.267 -49.213  1.00  0.00    -0.206 F 
HETATM   29  C   UNL     1     -43.283  55.203 -50.671  1.00  0.00     0.044 A 
HETATM   30  C   UNL     1     -43.692  56.260 -51.487  1.00  0.00     0.033 A 
ENDBRANCH   2  24
BRANCH   3  31
HETATM   31  C   UNL     1     -44.858  59.691 -50.843  1.00  0.00     0.315 C 
BRANCH  31  32
HETATM   32  N   UNL     1     -44.796  61.161 -50.432  1.00  0.00    -0.064 N 
HETATM   33  H   UNL     1     -45.126  61.676 -51.265  1.00  0.00     0.280 HD
HETATM   34  C   UNL     1     -45.766  61.492 -49.319  1.00  0.00     0.235 C 
HETATM   35  C   UNL     1     -45.766  62.995 -49.077  1.00  0.00     0.028 C 
HETATM   36  C   UNL     1     -44.365  63.511 -48.768  1.00  0.00     0.003 C 
HETATM   37  C   UNL     1     -43.380  63.113 -49.861  1.00  0.00     0.028 C 
HETATM   38  C   UNL     1     -43.394  61.613 -50.122  1.00  0.00     0.235 C 
ENDBRANCH  31  32
ENDBRANCH   3  31
TORSDOF 8
ENDMDL
MODEL 4
REMARK VINA RESULT:      -7.9      3.511      7.204
REMARK  8 active torsions:
REMARK  status: ('A' for Active; 'I' for Inactive)
REMARK    1  A    between atoms: C_2  and  S_3 
REMARK    2  A    between atoms: C_2  and  C_24 
REMARK    3  A    between atoms: S_3  and  C_4 
REMARK    4  A    between atoms: N_5  and  C_6 
REMARK    5  A    between atoms: C_13  and  C_14 
REMARK    6  A    between atoms: C_14  and  N_15 
REMARK       I    between atoms: C_24  and  N_25 
REMARK    7  A    between atoms: N_25  and  C_26 
REMARK    8  A    between atoms: C_29  and  C_30 
REMARK       I    between atoms: C_30  and  N_31 
ROOT
HETATM    1  C   UNL     1     -43.162  57.177 -54.781  1.00  0.00     0.197 A 
HETATM    2  N   UNL     1     -43.236  57.756 -56.035  1.00  0.00    -0.274 N 
HETATM    3  C   UNL     1     -43.260  56.667 -56.901  1.00  0.00     0.161 A 
HETATM    4  N   UNL     1     -43.222  55.546 -56.207  1.00  0.00    -0.132 NA
HETATM    5  N   UNL     1     -43.200  55.868 -54.884  1.00  0.00    -0.122 NA
ENDROOT
BRANCH   1   6
HETATM    6  S   UNL     1     -43.321  58.001 -53.267  1.00  0.00    -0.076 SA
BRANCH   6   7
HETATM    7  C   UNL     1     -41.882  57.443 -52.290  1.00  0.00     0.143 C 
HETATM    8  C   UNL     1     -41.852  58.167 -50.948  1.00  0.00     0.031 C 
BRANCH   7   9
HETATM    9  C   UNL     1     -41.794  55.925 -52.131  1.00  0.00     0.236 C 
HETATM   10  N   UNL     1     -40.777  55.323 -52.848  1.00  0.00    -0.326 N 
HETATM   11  H   UNL     1     -40.002  55.927 -53.105  1.00  0.00     0.169 HD
HETATM   12  O   UNL     1     -42.548  55.350 -51.346  1.00  0.00    -0.272 OA
BRANCH  10  13
HETATM   13  C   UNL     1     -40.506  53.940 -52.875  1.00  0.00     0.034 A 
HETATM   14  C   UNL     1     -40.007  53.238 -51.775  1.00  0.00     0.030 A 
HETATM   15  C   UNL     1     -39.738  51.868 -51.871  1.00  0.00     0.019 A 
HETATM   16  C   UNL     1     -39.961  51.196 -53.077  1.00  0.00     0.032 A 
HETATM   17  C   UNL     1     -40.471  51.893 -54.176  1.00  0.00     0.019 A 
HETATM   18  C   UNL     1     -40.762  53.255 -54.068  1.00  0.00     0.030 A 
BRANCH  16  19
HETATM   19  C   UNL     1     -39.624  49.762 -53.248  1.00  0.00     0.249 C 
HETATM   20  N   UNL     1     -39.438  49.023 -52.114  1.00  0.00    -0.366 N 
HETATM   21  H   UNL     1     -39.737  49.345 -51.204  1.00  0.00     0.159 HD
HETATM   22  H   UNL     1     -39.325  48.024 -52.240  1.00  0.00     0.159 HD
HETATM   23  O   UNL     1     -39.537  49.262 -54.362  1.00  0.00    -0.268 OA
ENDBRANCH  16  19
ENDBRANCH  10  13
ENDBRANCH   7   9
ENDBRANCH   6   7
ENDBRANCH   1   6
BRANCH   2  24
HETATM   24  C   UNL     1     -43.271  59.128 -56.385  1.00  0.00     0.043 A 
HETATM   25  C   UNL     1     -42.082  59.801 -56.704  1.00  0.00     0.033 A 
HETATM   26  C   UNL     1     -42.122  61.157 -57.034  1.00  0.00     0.044 A 
HETATM   27  C   UNL     1     -43.336  61.830 -57.043  1.00  0.00     0.116 A 
HETATM   28  F   UNL     1     -43.371  63.131 -57.355  1.00  0.00    -0.206 F 
HETATM   29  C   UNL     1     -44.521  61.172 -56.729  1.00  0.00     0.044 A 
HETATM   30  C   UNL     1     -44.493  59.815 -56.399  1.00  0.00     0.033 A 
ENDBRANCH   2  24
BRANCH   3  31
HETATM   31  C   UNL     1     -43.162  56.724 -58.385  1.00  0.00     0.315 C 
BRANCH  31  32
HETATM   32  N   UNL     1     -44.462  56.294 -59.061  1.00  0.00    -0.064 N 
HETATM   33  H   UNL     1     -44.793  55.493 -58.499  1.00  0.00     0.280 HD
HETATM   34  C   UNL     1     -45.541  57.350 -58.966  1.00  0.00     0.235 C 
HETATM   35  C   UNL     1     -46.847  56.792 -59.512  1.00  0.00     0.028 C 
HETATM   36  C   UNL     1     -46.685  56.288 -60.942  1.00  0.00     0.003 C 
HETATM   37  C   UNL     1     -45.550  55.275 -61.041  1.00  0.00     0.028 C 
HETATM   38  C   UNL     1     -44.247  55.822 -60.474  1.00  0.00     0.235 C 
ENDBRANCH  31  32
ENDBRANCH   3  31
TORSDOF 8
ENDMDL
MODEL 5
REMARK VINA RESULT:      -7.8      4.222      8.721
REMARK  8 active torsions:
REMARK  status: ('A' for Active; 'I' for Inactive)
REMARK    1  A    between atoms: C_2  and  S_3 
REMARK    2  A    between atoms: C_2  and  C_24 
REMARK    3  A    between atoms: S_3  and  C_4 
REMARK    4  A    between atoms: N_5  and  C_6 
REMARK    5  A    between atoms: C_13  and  C_14 
REMARK    6  A    between atoms: C_14  and  N_15 
REMARK       I    between atoms: C_24  and  N_25 
REMARK    7  A    between atoms: N_25  and  C_26 
REMARK    8  A    between atoms: C_29  and  C_30 
REMARK       I    between atoms: C_30  and  N_31 
ROOT
HETATM    1  C   UNL     1     -43.028  58.586 -56.206  1.00  0.00     0.197 A 
HETATM    2  N   UNL     1     -42.989  58.433 -57.581  1.00  0.00    -0.274 N 
HETATM    3  C   UNL     1     -42.145  59.455 -58.003  1.00  0.00     0.161 A 
HETATM    4  N   UNL     1     -41.714  60.136 -56.959  1.00  0.00    -0.132 NA
HETATM    5  N   UNL     1     -42.236  59.567 -55.838  1.00  0.00    -0.122 NA
ENDROOT
BRANCH   1   6
HETATM    6  S   UNL     1     -43.736  57.481 -55.077  1.00  0.00    -0.076 SA
BRANCH   6   7
HETATM    7  C   UNL     1     -42.384  57.086 -53.914  1.00  0.00     0.143 C 
HETATM    8  C   UNL     1     -42.538  57.907 -52.639  1.00  0.00     0.031 C 
BRANCH   7   9
HETATM    9  C   UNL     1     -42.233  55.592 -53.626  1.00  0.00     0.236 C 
HETATM   10  N   UNL     1     -40.928  55.146 -53.534  1.00  0.00    -0.326 N 
HETATM   11  H   UNL     1     -40.235  55.854 -53.311  1.00  0.00     0.169 HD
HETATM   12  O   UNL     1     -43.235  54.907 -53.421  1.00  0.00    -0.272 OA
BRANCH  10  13
HETATM   13  C   UNL     1     -40.536  53.814 -53.292  1.00  0.00     0.034 A 
HETATM   14  C   UNL     1     -40.381  52.868 -54.308  1.00  0.00     0.030 A 
HETATM   15  C   UNL     1     -40.010  51.553 -54.001  1.00  0.00     0.019 A 
HETATM   16  C   UNL     1     -39.799  51.180 -52.671  1.00  0.00     0.032 A 
HETATM   17  C   UNL     1     -39.943  52.127 -51.653  1.00  0.00     0.019 A 
HETATM   18  C   UNL     1     -40.288  53.444 -51.965  1.00  0.00     0.030 A 
BRANCH  16  19
HETATM   19  C   UNL     1     -39.475  49.783 -52.291  1.00  0.00     0.249 C 
HETATM   20  N   UNL     1     -39.375  49.505 -50.957  1.00  0.00    -0.366 N 
HETATM   21  H   UNL     1     -39.726  50.131 -50.246  1.00  0.00     0.159 HD
HETATM   22  H   UNL     1     -39.270  48.530 -50.706  1.00  0.00     0.159 HD
HETATM   23  O   UNL     1     -39.325  48.916 -53.141  1.00  0.00    -0.268 OA
ENDBRANCH  16  19
ENDBRANCH  10  13
ENDBRANCH   7   9
ENDBRANCH   6   7
ENDBRANCH   1   6
BRANCH   2  24
HETATM   24  C   UNL     1     -43.648  57.478 -58.392  1.00  0.00     0.043 A 
HETATM   25  C   UNL     1     -42.977  56.313 -58.793  1.00  0.00     0.033 A 
HETATM   26  C   UNL     1     -43.629  55.383 -59.604  1.00  0.00     0.044 A 
HETATM   27  C   UNL     1     -44.936  55.617 -60.009  1.00  0.00     0.116 A 
HETATM   28  F   UNL     1     -45.557  54.725 -60.791  1.00  0.00    -0.206 F 
HETATM   29  C   UNL     1     -45.612  56.767 -59.617  1.00  0.00     0.044 A 
HETATM   30  C   UNL     1     -44.970  57.704 -58.804  1.00  0.00     0.033 A 
ENDBRANCH   2  24
BRANCH   3  31
HETATM   31  C   UNL     1     -41.892  59.857 -59.414  1.00  0.00     0.315 C 
BRANCH  31  32
HETATM   32  N   UNL     1     -43.067  60.631 -60.007  1.00  0.00    -0.064 N 
HETATM   33  H   UNL     1     -43.823  60.529 -59.310  1.00  0.00     0.280 HD
HETATM   34  C   UNL     1     -42.789  62.115 -60.112  1.00  0.00     0.235 C 
HETATM   35  C   UNL     1     -44.053  62.838 -60.555  1.00  0.00     0.028 C 
HETATM   36  C   UNL     1     -44.586  62.277 -61.868  1.00  0.00     0.003 C 
HETATM   37  C   UNL     1     -44.799  60.770 -61.775  1.00  0.00     0.028 C 
HETATM   38  C   UNL     1     -43.543  60.046 -61.309  1.00  0.00     0.235 C 
ENDBRANCH  31  32
ENDBRANCH   3  31
TORSDOF 8
ENDMDL
MODEL 6
REMARK VINA RESULT:      -7.6      3.195      5.386
REMARK  8 active torsions:
REMARK  status: ('A' for Active; 'I' for Inactive)
REMARK    1  A    between atoms: C_2  and  S_3 
REMARK    2  A    between atoms: C_2  and  C_24 
REMARK    3  A    between atoms: S_3  and  C_4 
REMARK    4  A    between atoms: N_5  and  C_6 
REMARK    5  A    between atoms: C_13  and  C_14 
REMARK    6  A    between atoms: C_14  and  N_15 
REMARK       I    between atoms: C_24  and  N_25 
REMARK    7  A    between atoms: N_25  and  C_26 
REMARK    8  A    between atoms: C_29  and  C_30 
REMARK       I    between atoms: C_30  and  N_31 
ROOT
HETATM    1  C   UNL     1     -42.184  60.058 -54.305  1.00  0.00     0.197 A 
HETATM    2  N   UNL     1     -42.708  60.205 -53.033  1.00  0.00    -0.274 N 
HETATM    3  C   UNL     1     -41.712  59.700 -52.204  1.00  0.00     0.161 A 
HETATM    4  N   UNL     1     -40.684  59.308 -52.932  1.00  0.00    -0.132 NA
HETATM    5  N   UNL     1     -40.966  59.569 -54.238  1.00  0.00    -0.122 NA
ENDROOT
BRANCH   1   6
HETATM    6  S   UNL     1     -42.854  60.703 -55.765  1.00  0.00    -0.076 SA
BRANCH   6   7
HETATM    7  C   UNL     1     -43.662  59.273 -56.567  1.00  0.00     0.143 C 
HETATM    8  C   UNL     1     -43.984  59.605 -58.020  1.00  0.00     0.031 C 
BRANCH   7   9
HETATM    9  C   UNL     1     -42.882  57.966 -56.430  1.00  0.00     0.236 C 
HETATM   10  N   UNL     1     -43.127  57.261 -55.265  1.00  0.00    -0.326 N 
HETATM   11  H   UNL     1     -44.009  57.463 -54.806  1.00  0.00     0.169 HD
HETATM   12  O   UNL     1     -42.168  57.582 -57.357  1.00  0.00    -0.272 OA
BRANCH  10  13
HETATM   13  C   UNL     1     -42.519  56.042 -54.907  1.00  0.00     0.034 A 
HETATM   14  C   UNL     1     -43.140  54.801 -55.072  1.00  0.00     0.030 A 
HETATM   15  C   UNL     1     -42.491  53.626 -54.676  1.00  0.00     0.019 A 
HETATM   16  C   UNL     1     -41.217  53.690 -54.104  1.00  0.00     0.032 A 
HETATM   17  C   UNL     1     -40.588  54.929 -53.948  1.00  0.00     0.019 A 
HETATM   18  C   UNL     1     -41.228  56.097 -54.368  1.00  0.00     0.030 A 
BRANCH  16  19
HETATM   19  C   UNL     1     -40.521  52.480 -53.605  1.00  0.00     0.249 C 
HETATM   20  N   UNL     1     -40.514  51.382 -54.417  1.00  0.00    -0.366 N 
HETATM   21  H   UNL     1     -40.752  51.433 -55.398  1.00  0.00     0.159 HD
HETATM   22  H   UNL     1     -39.939  50.603 -54.119  1.00  0.00     0.159 HD
HETATM   23  O   UNL     1     -39.960  52.477 -52.516  1.00  0.00    -0.268 OA
ENDBRANCH  16  19
ENDBRANCH  10  13
ENDBRANCH   7   9
ENDBRANCH   6   7
ENDBRANCH   1   6
BRANCH   2  24
HETATM   24  C   UNL     1     -43.963  60.732 -52.641  1.00  0.00     0.043 A 
HETATM   25  C   UNL     1     -45.123  59.956 -52.777  1.00  0.00     0.033 A 
HETATM   26  C   UNL     1     -46.359  60.487 -52.401  1.00  0.00     0.044 A 
HETATM   27  C   UNL     1     -46.430  61.778 -51.896  1.00  0.00     0.116 A 
HETATM   28  F   UNL     1     -47.617  62.286 -51.541  1.00  0.00    -0.206 F 
HETATM   29  C   UNL     1     -45.286  62.556 -51.755  1.00  0.00     0.044 A 
HETATM   30  C   UNL     1     -44.045  62.034 -52.127  1.00  0.00     0.033 A 
ENDBRANCH   2  24
BRANCH   3  31
HETATM   31  C   UNL     1     -41.828  59.459 -50.740  1.00  0.00     0.315 C 
BRANCH  31  32
HETATM   32  N   UNL     1     -42.123  57.994 -50.423  1.00  0.00    -0.064 N 
HETATM   33  H   UNL     1     -42.605  58.019 -49.510  1.00  0.00     0.280 HD
HETATM   34  C   UNL     1     -43.100  57.376 -51.400  1.00  0.00     0.235 C 
HETATM   35  C   UNL     1     -43.470  55.977 -50.930  1.00  0.00     0.028 C 
HETATM   36  C   UNL     1     -42.234  55.103 -50.751  1.00  0.00     0.003 C 
HETATM   37  C   UNL     1     -41.224  55.765 -49.820  1.00  0.00     0.028 C 
HETATM   38  C   UNL     1     -40.870  57.174 -50.273  1.00  0.00     0.235 C 
ENDBRANCH  31  32
ENDBRANCH   3  31
TORSDOF 8
ENDMDL
MODEL 7
REMARK VINA RESULT:      -7.6      3.430      7.076
REMARK  8 active torsions:
REMARK  status: ('A' for Active; 'I' for Inactive)
REMARK    1  A    between atoms: C_2  and  S_3 
REMARK    2  A    between atoms: C_2  and  C_24 
REMARK    3  A    between atoms: S_3  and  C_4 
REMARK    4  A    between atoms: N_5  and  C_6 
REMARK    5  A    between atoms: C_13  and  C_14 
REMARK    6  A    between atoms: C_14  and  N_15 
REMARK       I    between atoms: C_24  and  N_25 
REMARK    7  A    between atoms: N_25  and  C_26 
REMARK    8  A    between atoms: C_29  and  C_30 
REMARK       I    between atoms: C_30  and  N_31 
ROOT
HETATM    1  C   UNL     1     -42.000  57.823 -53.942  1.00  0.00     0.197 A 
HETATM    2  N   UNL     1     -42.921  58.546 -54.678  1.00  0.00    -0.274 N 
HETATM    3  C   UNL     1     -43.072  57.802 -55.843  1.00  0.00     0.161 A 
HETATM    4  N   UNL     1     -42.315  56.723 -55.784  1.00  0.00    -0.132 NA
HETATM    5  N   UNL     1     -41.677  56.720 -54.580  1.00  0.00    -0.122 NA
ENDROOT
BRANCH   1   6
HETATM    6  S   UNL     1     -41.556  58.114 -52.294  1.00  0.00    -0.076 SA
BRANCH   6   7
HETATM    7  C   UNL     1     -42.598  56.963 -51.330  1.00  0.00     0.143 C 
HETATM    8  C   UNL     1     -44.056  57.405 -51.392  1.00  0.00     0.031 C 
BRANCH   7   9
HETATM    9  C   UNL     1     -42.421  55.496 -51.720  1.00  0.00     0.236 C 
HETATM   10  N   UNL     1     -41.121  55.123 -52.009  1.00  0.00    -0.326 N 
HETATM   11  H   UNL     1     -40.396  55.710 -51.610  1.00  0.00     0.169 HD
HETATM   12  O   UNL     1     -43.388  54.733 -51.682  1.00  0.00    -0.272 OA
BRANCH  10  13
HETATM   13  C   UNL     1     -40.711  53.834 -52.406  1.00  0.00     0.034 A 
HETATM   14  C   UNL     1     -40.750  53.396 -53.732  1.00  0.00     0.030 A 
HETATM   15  C   UNL     1     -40.348  52.096 -54.060  1.00  0.00     0.019 A 
HETATM   16  C   UNL     1     -39.913  51.225 -53.057  1.00  0.00     0.032 A 
HETATM   17  C   UNL     1     -39.863  51.665 -51.730  1.00  0.00     0.019 A 
HETATM   18  C   UNL     1     -40.240  52.970 -51.410  1.00  0.00     0.030 A 
BRANCH  16  19
HETATM   19  C   UNL     1     -39.546  49.818 -53.345  1.00  0.00     0.249 C 
HETATM   20  N   UNL     1     -39.268  49.012 -52.277  1.00  0.00    -0.366 N 
HETATM   21  H   UNL     1     -39.519  49.262 -51.331  1.00  0.00     0.159 HD
HETATM   22  H   UNL     1     -39.134  48.028 -52.477  1.00  0.00     0.159 HD
HETATM   23  O   UNL     1     -39.514  49.396 -54.494  1.00  0.00    -0.268 OA
ENDBRANCH  16  19
ENDBRANCH  10  13
ENDBRANCH   7   9
ENDBRANCH   6   7
ENDBRANCH   1   6
BRANCH   2  24
HETATM   24  C   UNL     1     -43.566  59.764 -54.351  1.00  0.00     0.043 A 
HETATM   25  C   UNL     1     -42.855  60.972 -54.408  1.00  0.00     0.033 A 
HETATM   26  C   UNL     1     -43.493  62.167 -54.071  1.00  0.00     0.044 A 
HETATM   27  C   UNL     1     -44.825  62.152 -53.681  1.00  0.00     0.116 A 
HETATM   28  F   UNL     1     -45.433  63.299 -53.354  1.00  0.00    -0.206 F 
HETATM   29  C   UNL     1     -45.540  60.961 -53.623  1.00  0.00     0.044 A 
HETATM   30  C   UNL     1     -44.912  59.759 -53.959  1.00  0.00     0.033 A 
ENDBRANCH   2  24
BRANCH   3  31
HETATM   31  C   UNL     1     -43.821  58.219 -57.060  1.00  0.00     0.315 C 
BRANCH  31  32
HETATM   32  N   UNL     1     -42.886  58.660 -58.184  1.00  0.00    -0.064 N 
HETATM   33  H   UNL     1     -41.937  58.478 -57.818  1.00  0.00     0.280 HD
HETATM   34  C   UNL     1     -43.029  57.805 -59.425  1.00  0.00     0.235 C 
HETATM   35  C   UNL     1     -41.961  58.195 -60.435  1.00  0.00     0.028 C 
HETATM   36  C   UNL     1     -42.025  59.680 -60.772  1.00  0.00     0.003 C 
HETATM   37  C   UNL     1     -41.949  60.533 -59.510  1.00  0.00     0.028 C 
HETATM   38  C   UNL     1     -43.002  60.129 -58.486  1.00  0.00     0.235 C 
ENDBRANCH  31  32
ENDBRANCH   3  31
TORSDOF 8
ENDMDL
MODEL 8
REMARK VINA RESULT:      -7.5      3.295      4.338
REMARK  8 active torsions:
REMARK  status: ('A' for Active; 'I' for Inactive)
REMARK    1  A    between atoms: C_2  and  S_3 
REMARK    2  A    between atoms: C_2  and  C_24 
REMARK    3  A    between atoms: S_3  and  C_4 
REMARK    4  A    between atoms: N_5  and  C_6 
REMARK    5  A    between atoms: C_13  and  C_14 
REMARK    6  A    between atoms: C_14  and  N_15 
REMARK       I    between atoms: C_24  and  N_25 
REMARK    7  A    between atoms: N_25  and  C_26 
REMARK    8  A    between atoms: C_29  and  C_30 
REMARK       I    between atoms: C_30  and  N_31 
ROOT
HETATM    1  C   UNL     1     -42.725  56.707 -56.243  1.00  0.00     0.197 A 
HETATM    2  N   UNL     1     -42.515  56.471 -54.896  1.00  0.00    -0.274 N 
HETATM    3  C   UNL     1     -42.695  55.098 -54.768  1.00  0.00     0.161 A 
HETATM    4  N   UNL     1     -42.971  54.574 -55.947  1.00  0.00    -0.132 NA
HETATM    5  N   UNL     1     -42.950  55.575 -56.870  1.00  0.00    -0.122 NA
ENDROOT
BRANCH   1   6
HETATM    6  S   UNL     1     -42.430  58.196 -57.076  1.00  0.00    -0.076 SA
BRANCH   6   7
HETATM    7  C   UNL     1     -43.879  59.236 -56.680  1.00  0.00     0.143 C 
HETATM    8  C   UNL     1     -43.518  60.710 -56.831  1.00  0.00     0.031 C 
BRANCH   7   9
HETATM    9  C   UNL     1     -45.138  58.865 -57.464  1.00  0.00     0.236 C 
HETATM   10  N   UNL     1     -44.906  58.316 -58.711  1.00  0.00    -0.326 N 
HETATM   11  H   UNL     1     -43.993  57.893 -58.843  1.00  0.00     0.169 HD
HETATM   12  O   UNL     1     -46.244  58.993 -56.937  1.00  0.00    -0.272 OA
BRANCH  10  13
HETATM   13  C   UNL     1     -45.902  57.911 -59.622  1.00  0.00     0.034 A 
HETATM   14  C   UNL     1     -46.306  56.581 -59.770  1.00  0.00     0.030 A 
HETATM   15  C   UNL     1     -47.287  56.239 -60.708  1.00  0.00     0.019 A 
HETATM   16  C   UNL     1     -47.862  57.229 -61.509  1.00  0.00     0.032 A 
HETATM   17  C   UNL     1     -47.468  58.562 -61.356  1.00  0.00     0.019 A 
HETATM   18  C   UNL     1     -46.508  58.903 -60.401  1.00  0.00     0.030 A 
BRANCH  16  19
HETATM   19  C   UNL     1     -48.852  56.906 -62.565  1.00  0.00     0.249 C 
HETATM   20  N   UNL     1     -50.061  57.538 -62.504  1.00  0.00    -0.366 N 
HETATM   21  H   UNL     1     -50.217  58.355 -61.929  1.00  0.00     0.159 HD
HETATM   22  H   UNL     1     -50.684  57.400 -63.291  1.00  0.00     0.159 HD
HETATM   23  O   UNL     1     -48.583  56.119 -63.464  1.00  0.00    -0.268 OA
ENDBRANCH  16  19
ENDBRANCH  10  13
ENDBRANCH   7   9
ENDBRANCH   6   7
ENDBRANCH   1   6
BRANCH   2  24
HETATM   24  C   UNL     1     -42.199  57.392 -53.867  1.00  0.00     0.043 A 
HETATM   25  C   UNL     1     -43.225  58.048 -53.172  1.00  0.00     0.033 A 
HETATM   26  C   UNL     1     -42.906  58.964 -52.169  1.00  0.00     0.044 A 
HETATM   27  C   UNL     1     -41.576  59.221 -51.867  1.00  0.00     0.116 A 
HETATM   28  F   UNL     1     -41.273  60.104 -50.907  1.00  0.00    -0.206 F 
HETATM   29  C   UNL     1     -40.550  58.576 -52.548  1.00  0.00     0.044 A 
HETATM   30  C   UNL     1     -40.858  57.656 -53.553  1.00  0.00     0.033 A 
ENDBRANCH   2  24
BRANCH   3  31
HETATM   31  C   UNL     1     -42.755  54.336 -53.491  1.00  0.00     0.315 C 
BRANCH  31  32
HETATM   32  N   UNL     1     -41.418  53.679 -53.155  1.00  0.00    -0.064 N 
HETATM   33  H   UNL     1     -40.709  54.376 -53.437  1.00  0.00     0.280 HD
HETATM   34  C   UNL     1     -41.234  53.469 -51.668  1.00  0.00     0.235 C 
HETATM   35  C   UNL     1     -39.824  52.966 -51.397  1.00  0.00     0.028 C 
HETATM   36  C   UNL     1     -39.525  51.693 -52.180  1.00  0.00     0.003 C 
HETATM   37  C   UNL     1     -39.779  51.893 -53.670  1.00  0.00     0.028 C 
HETATM   38  C   UNL     1     -41.181  52.419 -53.943  1.00  0.00     0.235 C 
ENDBRANCH  31  32
ENDBRANCH   3  31
TORSDOF 8
ENDMDL
MODEL 9
REMARK VINA RESULT:      -7.4      3.487      6.501
REMARK  8 active torsions:
REMARK  status: ('A' for Active; 'I' for Inactive)
REMARK    1  A    between atoms: C_2  and  S_3 
REMARK    2  A    between atoms: C_2  and  C_24 
REMARK    3  A    between atoms: S_3  and  C_4 
REMARK    4  A    between atoms: N_5  and  C_6 
REMARK    5  A    between atoms: C_13  and  C_14 
REMARK    6  A    between atoms: C_14  and  N_15 
REMARK       I    between atoms: C_24  and  N_25 
REMARK    7  A    between atoms: N_25  and  C_26 
REMARK    8  A    between atoms: C_29  and  C_30 
REMARK       I    between atoms: C_30  and  N_31 
ROOT
HETATM    1  C   UNL     1     -42.512  60.385 -54.566  1.00  0.00     0.197 A 
HETATM    2  N   UNL     1     -42.496  60.390 -53.182  1.00  0.00    -0.274 N 
HETATM    3  C   UNL     1     -42.976  61.653 -52.850  1.00  0.00     0.161 A 
HETATM    4  N   UNL     1     -43.266  62.322 -53.949  1.00  0.00    -0.132 NA
HETATM    5  N   UNL     1     -43.012  61.514 -55.016  1.00  0.00    -0.122 NA
ENDROOT
BRANCH   1   6
HETATM    6  S   UNL     1     -42.235  59.013 -55.584  1.00  0.00    -0.076 SA
BRANCH   6   7
HETATM    7  C   UNL     1     -43.655  57.909 -55.259  1.00  0.00     0.143 C 
HETATM    8  C   UNL     1     -44.619  57.940 -56.440  1.00  0.00     0.031 C 
BRANCH   7   9
HETATM    9  C   UNL     1     -43.254  56.485 -54.876  1.00  0.00     0.236 C 
HETATM   10  N   UNL     1     -41.913  56.315 -54.585  1.00  0.00    -0.326 N 
HETATM   11  H   UNL     1     -41.413  57.154 -54.309  1.00  0.00     0.169 HD
HETATM   12  O   UNL     1     -44.120  55.615 -54.771  1.00  0.00    -0.272 OA
BRANCH  10  13
HETATM   13  C   UNL     1     -41.304  55.097 -54.224  1.00  0.00     0.034 A 
HETATM   14  C   UNL     1     -40.660  54.264 -55.142  1.00  0.00     0.030 A 
HETATM   15  C   UNL     1     -40.092  53.055 -54.723  1.00  0.00     0.019 A 
HETATM   16  C   UNL     1     -40.174  52.672 -53.381  1.00  0.00     0.032 A 
HETATM   17  C   UNL     1     -40.808  53.509 -52.459  1.00  0.00     0.019 A 
HETATM   18  C   UNL     1     -41.351  54.726 -52.875  1.00  0.00     0.030 A 
BRANCH  16  19
HETATM   19  C   UNL     1     -39.651  51.369 -52.905  1.00  0.00     0.249 C 
HETATM   20  N   UNL     1     -39.656  50.330 -53.793  1.00  0.00    -0.366 N 
HETATM   21  H   UNL     1     -39.779  50.468 -54.787  1.00  0.00     0.159 HD
HETATM   22  H   UNL     1     -39.191  49.480 -53.497  1.00  0.00     0.159 HD
HETATM   23  O   UNL     1     -39.216  51.239 -51.768  1.00  0.00    -0.268 OA
ENDBRANCH  16  19
ENDBRANCH  10  13
ENDBRANCH   7   9
ENDBRANCH   6   7
ENDBRANCH   1   6
BRANCH   2  24
HETATM   24  C   UNL     1     -42.084  59.370 -52.291  1.00  0.00     0.043 A 
HETATM   25  C   UNL     1     -43.017  58.439 -51.810  1.00  0.00     0.033 A 
HETATM   26  C   UNL     1     -42.607  57.444 -50.920  1.00  0.00     0.044 A 
HETATM   27  C   UNL     1     -41.279  57.384 -50.517  1.00  0.00     0.116 A 
HETATM   28  F   UNL     1     -40.890  56.432 -49.661  1.00  0.00    -0.206 F 
HETATM   29  C   UNL     1     -40.346  58.300 -50.989  1.00  0.00     0.044 A 
HETATM   30  C   UNL     1     -40.745  59.299 -51.880  1.00  0.00     0.033 A 
ENDBRANCH   2  24
BRANCH   3  31
HETATM   31  C   UNL     1     -43.001  62.252 -51.488  1.00  0.00     0.315 C 
BRANCH  31  32
HETATM   32  N   UNL     1     -44.309  61.955 -50.757  1.00  0.00    -0.064 N 
HETATM   33  H   UNL     1     -44.824  61.325 -51.393  1.00  0.00     0.280 HD
HETATM   34  C   UNL     1     -44.093  61.178 -49.477  1.00  0.00     0.235 C 
HETATM   35  C   UNL     1     -45.441  60.780 -48.892  1.00  0.00     0.028 C 
HETATM   36  C   UNL     1     -46.331  61.995 -48.662  1.00  0.00     0.003 C 
HETATM   37  C   UNL     1     -46.487  62.811 -49.941  1.00  0.00     0.028 C 
HETATM   38  C   UNL     1     -45.141  63.191 -50.542  1.00  0.00     0.235 C 
ENDBRANCH  31  32
ENDBRANCH   3  31
TORSDOF 8
ENDMDL
MODEL 10
REMARK VINA RESULT:      -7.0      3.272      4.342
REMARK  8 active torsions:
REMARK  status: ('A' for Active; 'I' for Inactive)
REMARK    1  A    between atoms: C_2  and  S_3 
REMARK    2  A    between atoms: C_2  and  C_24 
REMARK    3  A    between atoms: S_3  and  C_4 
REMARK    4  A    between atoms: N_5  and  C_6 
REMARK    5  A    between atoms: C_13  and  C_14 
REMARK    6  A    between atoms: C_14  and  N_15 
REMARK       I    between atoms: C_24  and  N_25 
REMARK    7  A    between atoms: N_25  and  C_26 
REMARK    8  A    between atoms: C_29  and  C_30 
REMARK       I    between atoms: C_30  and  N_31 
ROOT
HETATM    1  C   UNL     1     -42.810  56.193 -55.756  1.00  0.00     0.197 A 
HETATM    2  N   UNL     1     -42.543  56.194 -54.398  1.00  0.00    -0.274 N 
HETATM    3  C   UNL     1     -42.716  54.865 -54.026  1.00  0.00     0.161 A 
HETATM    4  N   UNL     1     -43.040  54.145 -55.082  1.00  0.00    -0.132 NA
HETATM    5  N   UNL     1     -43.060  54.969 -56.166  1.00  0.00    -0.122 NA
ENDROOT
BRANCH   1   6
HETATM    6  S   UNL     1     -42.552  57.511 -56.847  1.00  0.00    -0.076 SA
BRANCH   6   7
HETATM    7  C   UNL     1     -43.914  58.675 -56.488  1.00  0.00     0.143 C 
HETATM    8  C   UNL     1     -43.403  60.110 -56.553  1.00  0.00     0.031 C 
BRANCH   7   9
HETATM    9  C   UNL     1     -45.154  58.462 -57.357  1.00  0.00     0.236 C 
HETATM   10  N   UNL     1     -44.892  58.101 -58.666  1.00  0.00    -0.326 N 
HETATM   11  H   UNL     1     -43.985  57.676 -58.832  1.00  0.00     0.169 HD
HETATM   12  O   UNL     1     -46.274  58.541 -56.852  1.00  0.00    -0.272 OA
BRANCH  10  13
HETATM   13  C   UNL     1     -45.865  57.866 -59.658  1.00  0.00     0.034 A 
HETATM   14  C   UNL     1     -46.502  58.892 -60.360  1.00  0.00     0.030 A 
HETATM   15  C   UNL     1     -47.476  58.594 -61.320  1.00  0.00     0.019 A 
HETATM   16  C   UNL     1     -47.823  57.264 -61.574  1.00  0.00     0.032 A 
HETATM   17  C   UNL     1     -47.179  56.235 -60.881  1.00  0.00     0.019 A 
HETATM   18  C   UNL     1     -46.189  56.535 -59.943  1.00  0.00     0.030 A 
BRANCH  16  19
HETATM   19  C   UNL     1     -48.899  56.904 -62.529  1.00  0.00     0.249 C 
HETATM   20  N   UNL     1     -50.100  57.539 -62.387  1.00  0.00    -0.366 N 
HETATM   21  H   UNL     1     -50.207  58.376 -61.830  1.00  0.00     0.159 HD
HETATM   22  H   UNL     1     -50.787  57.373 -63.112  1.00  0.00     0.159 HD
HETATM   23  O   UNL     1     -48.707  56.084 -63.418  1.00  0.00    -0.268 OA
ENDBRANCH  16  19
ENDBRANCH  10  13
ENDBRANCH   7   9
ENDBRANCH   6   7
ENDBRANCH   1   6
BRANCH   2  24
HETATM   24  C   UNL     1     -42.185  57.278 -53.560  1.00  0.00     0.043 A 
HETATM   25  C   UNL     1     -40.836  57.632 -53.408  1.00  0.00     0.033 A 
HETATM   26  C   UNL     1     -40.490  58.693 -52.570  1.00  0.00     0.044 A 
HETATM   27  C   UNL     1     -41.481  59.389 -51.891  1.00  0.00     0.116 A 
HETATM   28  F   UNL     1     -41.146  60.402 -51.084  1.00  0.00    -0.206 F 
HETATM   29  C   UNL     1     -42.822  59.047 -52.035  1.00  0.00     0.044 A 
HETATM   30  C   UNL     1     -43.180  57.988 -52.873  1.00  0.00     0.033 A 
ENDBRANCH   2  24
BRANCH   3  31
HETATM   31  C   UNL     1     -42.721  54.338 -52.634  1.00  0.00     0.315 C 
BRANCH  31  32
HETATM   32  N   UNL     1     -41.710  53.208 -52.447  1.00  0.00    -0.064 N 
HETATM   33  H   UNL     1     -42.269  52.343 -52.537  1.00  0.00     0.280 HD
HETATM   34  C   UNL     1     -40.682  53.162 -53.556  1.00  0.00     0.235 C 
HETATM   35  C   UNL     1     -39.815  51.922 -53.393  1.00  0.00     0.028 C 
HETATM   36  C   UNL     1     -39.156  51.878 -52.019  1.00  0.00     0.003 C 
HETATM   37  C   UNL     1     -40.193  51.994 -50.909  1.00  0.00     0.028 C 
HETATM   38  C   UNL     1     -41.078  53.221 -51.081  1.00  0.00     0.235 C 
ENDBRANCH  31  32
ENDBRANCH   3  31
TORSDOF 8
ENDMDL
