MODEL 1
REMARK VINA RESULT:      -8.6      0.000      0.000
REMARK  5 active torsions:
REMARK  status: ('A' for Active; 'I' for Inactive)
REMARK    1  A    between atoms: C_3  and  O_4 
REMARK    2  A    between atoms: O_4  and  C_5 
REMARK    3  A    between atoms: C_5  and  C_6 
REMARK    4  A    between atoms: C_13  and  N_14 
REMARK       I    between atoms: N_14  and  C_15 
REMARK    5  A    between atoms: C_15  and  C_16 
ROOT
HETATM    1  N   UNL     1     -41.671  57.241 -54.662  1.00  0.00    -0.323 N 
HETATM    2  C   UNL     1     -42.812  57.168 -55.442  1.00  0.00     0.258 C 
HETATM    3  O   UNL     1     -43.920  56.793 -55.075  1.00  0.00    -0.267 OA
HETATM    4  H   UNL     1     -40.868  57.711 -55.057  1.00  0.00     0.169 HD
ENDROOT
BRANCH   1   5
HETATM    5  C   UNL     1     -41.514  56.804 -53.328  1.00  0.00     0.037 A 
HETATM    6  C   UNL     1     -41.407  55.465 -52.945  1.00  0.00     0.066 A 
HETATM    7  C   UNL     1     -41.246  55.109 -51.599  1.00  0.00     0.071 A 
HETATM    8  C   UNL     1     -41.176  56.106 -50.627  1.00  0.00     0.037 A 
HETATM    9  C   UNL     1     -41.279  57.447 -50.998  1.00  0.00     0.005 A 
HETATM   10  C   UNL     1     -41.450  57.793 -52.339  1.00  0.00     0.029 A 
BRANCH   7  11
HETATM   11  O   UNL     1     -41.170  53.762 -51.371  1.00  0.00    -0.347 OA
BRANCH  11  12
HETATM   12  C   UNL     1     -39.869  53.188 -51.262  1.00  0.00     0.215 C 
BRANCH  12  13
HETATM   13  C   UNL     1     -39.794  51.965 -52.133  1.00  0.00    -0.017 A 
HETATM   14  C   UNL     1     -39.541  50.709 -51.590  1.00  0.00     0.125 A 
HETATM   15  N   UNL     1     -39.507  49.562 -52.306  1.00  0.00    -0.272 NA
HETATM   16  C   UNL     1     -39.736  49.669 -53.633  1.00  0.00     0.116 A 
HETATM   17  C   UNL     1     -40.004  50.867 -54.274  1.00  0.00     0.020 A 
HETATM   18  C   UNL     1     -40.037  52.029 -53.510  1.00  0.00     0.012 A 
ENDBRANCH  12  13
ENDBRANCH  11  12
ENDBRANCH   7  11
ENDBRANCH   1   5
BRANCH   2  19
HETATM   19  C   UNL     1     -42.654  57.641 -56.849  1.00  0.00     0.059 A 
HETATM   20  C   UNL     1     -43.088  56.852 -57.907  1.00  0.00     0.057 A 
HETATM   21  C   UNL     1     -42.977  57.259 -59.237  1.00  0.00    -0.022 A 
HETATM   22  N   UNL     1     -43.676  55.593 -57.867  1.00  0.00    -0.325 N 
HETATM   23  C   UNL     1     -43.535  56.195 -60.137  1.00  0.00     0.144 A 
HETATM   24  C   UNL     1     -42.409  58.477 -59.563  1.00  0.00     0.010 A 
HETATM   25  C   UNL     1     -43.966  55.116 -59.137  1.00  0.00     0.226 A 
HETATM   26  O   UNL     1     -44.469  54.040 -59.409  1.00  0.00    -0.273 OA
HETATM   27  C   UNL     1     -41.938  59.279 -58.520  1.00  0.00     0.002 A 
HETATM   28  C   UNL     1     -42.052  58.867 -57.176  1.00  0.00     0.019 A 
HETATM   29  H   UNL     1     -43.818  55.068 -57.009  1.00  0.00     0.169 HD
ENDBRANCH   2  19
TORSDOF 5
ENDMDL
MODEL 2
REMARK VINA RESULT:      -8.5      2.383      8.356
REMARK  5 active torsions:
REMARK  status: ('A' for Active; 'I' for Inactive)
REMARK    1  A    between atoms: C_3  and  O_4 
REMARK    2  A    between atoms: O_4  and  C_5 
REMARK    3  A    between atoms: C_5  and  C_6 
REMARK    4  A    between atoms: C_13  and  N_14 
REMARK       I    between atoms: N_14  and  C_15 
REMARK    5  A    between atoms: C_15  and  C_16 
ROOT
HETATM    1  N   UNL     1     -42.609  55.296 -54.571  1.00  0.00    -0.323 N 
HETATM    2  C   UNL     1     -41.501  55.399 -53.748  1.00  0.00     0.258 C 
HETATM    3  O   UNL     1     -41.030  56.435 -53.289  1.00  0.00    -0.267 OA
HETATM    4  H   UNL     1     -42.971  54.369 -54.747  1.00  0.00     0.169 HD
ENDROOT
BRANCH   1   5
HETATM    5  C   UNL     1     -43.357  56.351 -55.138  1.00  0.00     0.037 A 
HETATM    6  C   UNL     1     -43.043  56.979 -56.345  1.00  0.00     0.066 A 
HETATM    7  C   UNL     1     -43.840  58.016 -56.848  1.00  0.00     0.071 A 
HETATM    8  C   UNL     1     -44.974  58.418 -56.143  1.00  0.00     0.037 A 
HETATM    9  C   UNL     1     -45.299  57.796 -54.938  1.00  0.00     0.005 A 
HETATM   10  C   UNL     1     -44.495  56.771 -54.438  1.00  0.00     0.029 A 
BRANCH   7  11
HETATM   11  O   UNL     1     -43.403  58.547 -58.032  1.00  0.00    -0.347 OA
BRANCH  11  12
HETATM   12  C   UNL     1     -44.392  58.896 -58.999  1.00  0.00     0.215 C 
BRANCH  12  13
HETATM   13  C   UNL     1     -44.830  57.655 -59.727  1.00  0.00    -0.017 A 
HETATM   14  C   UNL     1     -43.907  56.833 -60.365  1.00  0.00     0.125 A 
HETATM   15  N   UNL     1     -44.223  55.678 -60.996  1.00  0.00    -0.272 NA
HETATM   16  C   UNL     1     -45.527  55.325 -60.994  1.00  0.00     0.116 A 
HETATM   17  C   UNL     1     -46.524  56.066 -60.385  1.00  0.00     0.020 A 
HETATM   18  C   UNL     1     -46.167  57.245 -59.739  1.00  0.00     0.012 A 
ENDBRANCH  12  13
ENDBRANCH  11  12
ENDBRANCH   7  11
ENDBRANCH   1   5
BRANCH   2  19
HETATM   19  C   UNL     1     -40.868  54.103 -53.364  1.00  0.00     0.059 A 
HETATM   20  C   UNL     1     -40.790  53.729 -52.029  1.00  0.00     0.057 A 
HETATM   21  C   UNL     1     -40.223  52.521 -51.623  1.00  0.00    -0.022 A 
HETATM   22  N   UNL     1     -41.225  54.424 -50.905  1.00  0.00    -0.325 N 
HETATM   23  C   UNL     1     -40.293  52.409 -50.127  1.00  0.00     0.144 A 
HETATM   24  C   UNL     1     -39.694  51.638 -52.547  1.00  0.00     0.010 A 
HETATM   25  C   UNL     1     -40.964  53.729 -49.733  1.00  0.00     0.226 A 
HETATM   26  O   UNL     1     -41.220  54.099 -48.600  1.00  0.00    -0.273 OA
HETATM   27  C   UNL     1     -39.733  52.001 -53.896  1.00  0.00     0.002 A 
HETATM   28  C   UNL     1     -40.308  53.222 -54.304  1.00  0.00     0.019 A 
HETATM   29  H   UNL     1     -41.630  55.355 -50.944  1.00  0.00     0.169 HD
ENDBRANCH   2  19
TORSDOF 5
ENDMDL
MODEL 3
REMARK VINA RESULT:      -8.4      2.090      8.002
REMARK  5 active torsions:
REMARK  status: ('A' for Active; 'I' for Inactive)
REMARK    1  A    between atoms: C_3  and  O_4 
REMARK    2  A    between atoms: O_4  and  C_5 
REMARK    3  A    between atoms: C_5  and  C_6 
REMARK    4  A    between atoms: C_13  and  N_14 
REMARK       I    between atoms: N_14  and  C_15 
REMARK    5  A    between atoms: C_15  and  C_16 
ROOT
HETATM    1  N   UNL     1     -41.359  55.504 -53.219  1.00  0.00    -0.323 N 
HETATM    2  C   UNL     1     -40.606  54.399 -53.575  1.00  0.00     0.258 C 
HETATM    3  O   UNL     1     -40.061  54.209 -54.657  1.00  0.00    -0.267 OA
HETATM    4  H   UNL     1     -41.619  55.595 -52.247  1.00  0.00     0.169 HD
ENDROOT
BRANCH   1   5
HETATM    5  C   UNL     1     -41.746  56.581 -54.047  1.00  0.00     0.037 A 
HETATM    6  C   UNL     1     -42.570  56.457 -55.167  1.00  0.00     0.066 A 
HETATM    7  C   UNL     1     -42.917  57.576 -55.937  1.00  0.00     0.071 A 
HETATM    8  C   UNL     1     -42.446  58.836 -55.571  1.00  0.00     0.037 A 
HETATM    9  C   UNL     1     -41.623  58.973 -54.452  1.00  0.00     0.005 A 
HETATM   10  C   UNL     1     -41.274  57.853 -53.697  1.00  0.00     0.029 A 
BRANCH   7  11
HETATM   11  O   UNL     1     -43.718  57.302 -57.012  1.00  0.00    -0.347 OA
BRANCH  11  12
HETATM   12  C   UNL     1     -43.102  56.716 -58.157  1.00  0.00     0.215 C 
BRANCH  12  13
HETATM   13  C   UNL     1     -44.167  56.318 -59.141  1.00  0.00    -0.017 A 
HETATM   14  C   UNL     1     -45.352  57.037 -59.248  1.00  0.00     0.125 A 
HETATM   15  N   UNL     1     -46.331  56.766 -60.142  1.00  0.00    -0.272 NA
HETATM   16  C   UNL     1     -46.119  55.722 -60.973  1.00  0.00     0.116 A 
HETATM   17  C   UNL     1     -44.974  54.945 -60.956  1.00  0.00     0.020 A 
HETATM   18  C   UNL     1     -43.983  55.252 -60.029  1.00  0.00     0.012 A 
ENDBRANCH  12  13
ENDBRANCH  11  12
ENDBRANCH   7  11
ENDBRANCH   1   5
BRANCH   2  19
HETATM   19  C   UNL     1     -40.422  53.380 -52.501  1.00  0.00     0.059 A 
HETATM   20  C   UNL     1     -40.147  52.058 -52.828  1.00  0.00     0.057 A 
HETATM   21  C   UNL     1     -39.951  51.074 -51.858  1.00  0.00    -0.022 A 
HETATM   22  N   UNL     1     -40.021  51.483 -54.088  1.00  0.00    -0.325 N 
HETATM   23  C   UNL     1     -39.671  49.758 -52.526  1.00  0.00     0.144 A 
HETATM   24  C   UNL     1     -40.037  51.375 -50.511  1.00  0.00     0.010 A 
HETATM   25  C   UNL     1     -39.751  50.124 -54.012  1.00  0.00     0.226 A 
HETATM   26  O   UNL     1     -39.604  49.363 -54.952  1.00  0.00    -0.273 OA
HETATM   27  C   UNL     1     -40.340  52.691 -50.153  1.00  0.00     0.002 A 
HETATM   28  C   UNL     1     -40.537  53.685 -51.134  1.00  0.00     0.019 A 
HETATM   29  H   UNL     1     -40.169  51.993 -54.953  1.00  0.00     0.169 HD
ENDBRANCH   2  19
TORSDOF 5
ENDMDL
MODEL 4
REMARK VINA RESULT:      -8.3      2.369      8.627
REMARK  5 active torsions:
REMARK  status: ('A' for Active; 'I' for Inactive)
REMARK    1  A    between atoms: C_3  and  O_4 
REMARK    2  A    between atoms: O_4  and  C_5 
REMARK    3  A    between atoms: C_5  and  C_6 
REMARK    4  A    between atoms: C_13  and  N_14 
REMARK       I    between atoms: N_14  and  C_15 
REMARK    5  A    between atoms: C_15  and  C_16 
ROOT
HETATM    1  N   UNL     1     -41.801  55.264 -54.214  1.00  0.00    -0.323 N 
HETATM    2  C   UNL     1     -40.708  54.419 -54.134  1.00  0.00     0.258 C 
HETATM    3  O   UNL     1     -39.860  54.245 -55.003  1.00  0.00    -0.267 OA
HETATM    4  H   UNL     1     -42.329  55.421 -53.367  1.00  0.00     0.169 HD
ENDROOT
BRANCH   1   5
HETATM    5  C   UNL     1     -42.229  56.011 -55.334  1.00  0.00     0.037 A 
HETATM    6  C   UNL     1     -42.768  55.451 -56.495  1.00  0.00     0.066 A 
HETATM    7  C   UNL     1     -43.178  56.260 -57.564  1.00  0.00     0.071 A 
HETATM    8  C   UNL     1     -43.061  57.646 -57.463  1.00  0.00     0.037 A 
HETATM    9  C   UNL     1     -42.526  58.216 -56.308  1.00  0.00     0.005 A 
HETATM   10  C   UNL     1     -42.111  57.404 -55.252  1.00  0.00     0.029 A 
BRANCH   7  11
HETATM   11  O   UNL     1     -43.673  55.574 -58.639  1.00  0.00    -0.347 OA
BRANCH  11  12
HETATM   12  C   UNL     1     -43.592  56.208 -59.915  1.00  0.00     0.215 C 
BRANCH  12  13
HETATM   13  C   UNL     1     -44.955  56.709 -60.305  1.00  0.00    -0.017 A 
HETATM   14  C   UNL     1     -45.949  55.832 -60.729  1.00  0.00     0.125 A 
HETATM   15  N   UNL     1     -47.209  56.206 -61.048  1.00  0.00    -0.272 NA
HETATM   16  C   UNL     1     -47.496  57.522 -60.942  1.00  0.00     0.116 A 
HETATM   17  C   UNL     1     -46.584  58.477 -60.525  1.00  0.00     0.020 A 
HETATM   18  C   UNL     1     -45.298  58.061 -60.198  1.00  0.00     0.012 A 
ENDBRANCH  12  13
ENDBRANCH  11  12
ENDBRANCH   7  11
ENDBRANCH   1   5
BRANCH   2  19
HETATM   19  C   UNL     1     -40.550  53.701 -52.836  1.00  0.00     0.059 A 
HETATM   20  C   UNL     1     -40.191  52.360 -52.816  1.00  0.00     0.057 A 
HETATM   21  C   UNL     1     -40.015  51.650 -51.627  1.00  0.00    -0.022 A 
HETATM   22  N   UNL     1     -39.950  51.509 -53.890  1.00  0.00    -0.325 N 
HETATM   23  C   UNL     1     -39.627  50.234 -51.939  1.00  0.00     0.144 A 
HETATM   24  C   UNL     1     -40.208  52.260 -50.401  1.00  0.00     0.010 A 
HETATM   25  C   UNL     1     -39.622  50.227 -53.471  1.00  0.00     0.226 A 
HETATM   26  O   UNL     1     -39.374  49.273 -54.189  1.00  0.00    -0.273 OA
HETATM   27  C   UNL     1     -40.598  53.602 -50.391  1.00  0.00     0.002 A 
HETATM   28  C   UNL     1     -40.774  54.317 -51.594  1.00  0.00     0.019 A 
HETATM   29  H   UNL     1     -40.063  51.786 -54.860  1.00  0.00     0.169 HD
ENDBRANCH   2  19
TORSDOF 5
ENDMDL
MODEL 5
REMARK VINA RESULT:      -8.2      2.191      3.111
REMARK  5 active torsions:
REMARK  status: ('A' for Active; 'I' for Inactive)
REMARK    1  A    between atoms: C_3  and  O_4 
REMARK    2  A    between atoms: O_4  and  C_5 
REMARK    3  A    between atoms: C_5  and  C_6 
REMARK    4  A    between atoms: C_13  and  N_14 
REMARK       I    between atoms: N_14  and  C_15 
REMARK    5  A    between atoms: C_15  and  C_16 
ROOT
HETATM    1  N   UNL     1     -43.636  55.616 -56.469  1.00  0.00    -0.323 N 
HETATM    2  C   UNL     1     -43.380  56.416 -57.569  1.00  0.00     0.258 C 
HETATM    3  O   UNL     1     -42.530  57.298 -57.644  1.00  0.00    -0.267 OA
HETATM    4  H   UNL     1     -44.260  54.832 -56.601  1.00  0.00     0.169 HD
ENDROOT
BRANCH   1   5
HETATM    5  C   UNL     1     -43.059  55.715 -55.183  1.00  0.00     0.037 A 
HETATM    6  C   UNL     1     -41.915  55.023 -54.779  1.00  0.00     0.066 A 
HETATM    7  C   UNL     1     -41.397  55.179 -53.486  1.00  0.00     0.071 A 
HETATM    8  C   UNL     1     -42.022  56.049 -52.593  1.00  0.00     0.037 A 
HETATM    9  C   UNL     1     -43.164  56.746 -52.988  1.00  0.00     0.005 A 
HETATM   10  C   UNL     1     -43.680  56.578 -54.273  1.00  0.00     0.029 A 
BRANCH   7  11
HETATM   11  O   UNL     1     -40.282  54.430 -53.225  1.00  0.00    -0.347 OA
BRANCH  11  12
HETATM   12  C   UNL     1     -40.312  53.588 -52.073  1.00  0.00     0.215 C 
BRANCH  12  13
HETATM   13  C   UNL     1     -40.041  52.169 -52.491  1.00  0.00    -0.017 A 
HETATM   14  C   UNL     1     -39.716  51.193 -51.554  1.00  0.00     0.125 A 
HETATM   15  N   UNL     1     -39.508  49.890 -51.852  1.00  0.00    -0.272 NA
HETATM   16  C   UNL     1     -39.626  49.540 -53.152  1.00  0.00     0.116 A 
HETATM   17  C   UNL     1     -39.950  50.429 -54.162  1.00  0.00     0.020 A 
HETATM   18  C   UNL     1     -40.164  51.761 -53.823  1.00  0.00     0.012 A 
ENDBRANCH  12  13
ENDBRANCH  11  12
ENDBRANCH   7  11
ENDBRANCH   1   5
BRANCH   2  19
HETATM   19  C   UNL     1     -44.203  56.122 -58.778  1.00  0.00     0.059 A 
HETATM   20  C   UNL     1     -45.217  56.989 -59.164  1.00  0.00     0.057 A 
HETATM   21  C   UNL     1     -46.002  56.765 -60.296  1.00  0.00    -0.022 A 
HETATM   22  N   UNL     1     -45.630  58.169 -58.554  1.00  0.00    -0.325 N 
HETATM   23  C   UNL     1     -47.000  57.876 -60.445  1.00  0.00     0.144 A 
HETATM   24  C   UNL     1     -45.810  55.644 -61.083  1.00  0.00     0.010 A 
HETATM   25  C   UNL     1     -46.687  58.759 -59.232  1.00  0.00     0.226 A 
HETATM   26  O   UNL     1     -47.261  59.789 -58.921  1.00  0.00    -0.273 OA
HETATM   27  C   UNL     1     -44.816  54.739 -60.702  1.00  0.00     0.002 A 
HETATM   28  C   UNL     1     -44.023  54.969 -59.559  1.00  0.00     0.019 A 
HETATM   29  H   UNL     1     -45.238  58.517 -57.685  1.00  0.00     0.169 HD
ENDBRANCH   2  19
TORSDOF 5
ENDMDL
MODEL 6
REMARK VINA RESULT:      -8.1      2.573      7.967
REMARK  5 active torsions:
REMARK  status: ('A' for Active; 'I' for Inactive)
REMARK    1  A    between atoms: C_3  and  O_4 
REMARK    2  A    between atoms: O_4  and  C_5 
REMARK    3  A    between atoms: C_5  and  C_6 
REMARK    4  A    between atoms: C_13  and  N_14 
REMARK       I    between atoms: N_14  and  C_15 
REMARK    5  A    between atoms: C_15  and  C_16 
ROOT
HETATM    1  N   UNL     1     -41.774  54.040 -54.641  1.00  0.00    -0.323 N 
HETATM    2  C   UNL     1     -40.448  53.642 -54.628  1.00  0.00     0.258 C 
HETATM    3  O   UNL     1     -39.493  54.283 -55.053  1.00  0.00    -0.267 OA
HETATM    4  H   UNL     1     -42.433  53.478 -54.121  1.00  0.00     0.169 HD
ENDROOT
BRANCH   1   5
HETATM    5  C   UNL     1     -42.315  55.202 -55.235  1.00  0.00     0.037 A 
HETATM    6  C   UNL     1     -42.424  56.437 -54.592  1.00  0.00     0.066 A 
HETATM    7  C   UNL     1     -42.967  57.549 -55.251  1.00  0.00     0.071 A 
HETATM    8  C   UNL     1     -43.389  57.426 -56.574  1.00  0.00     0.037 A 
HETATM    9  C   UNL     1     -43.283  56.198 -57.227  1.00  0.00     0.005 A 
HETATM   10  C   UNL     1     -42.751  55.094 -56.561  1.00  0.00     0.029 A 
BRANCH   7  11
HETATM   11  O   UNL     1     -43.025  58.687 -54.495  1.00  0.00    -0.347 OA
BRANCH  11  12
HETATM   12  C   UNL     1     -41.822  59.441 -54.349  1.00  0.00     0.215 C 
BRANCH  12  13
HETATM   13  C   UNL     1     -41.439  59.484 -52.896  1.00  0.00    -0.017 A 
HETATM   14  C   UNL     1     -40.249  58.920 -52.449  1.00  0.00     0.125 A 
HETATM   15  N   UNL     1     -39.818  58.964 -51.167  1.00  0.00    -0.272 NA
HETATM   16  C   UNL     1     -40.616  59.602 -50.282  1.00  0.00     0.116 A 
HETATM   17  C   UNL     1     -41.816  60.201 -50.621  1.00  0.00     0.020 A 
HETATM   18  C   UNL     1     -42.229  60.144 -51.948  1.00  0.00     0.012 A 
ENDBRANCH  12  13
ENDBRANCH  11  12
ENDBRANCH   7  11
ENDBRANCH   1   5
BRANCH   2  19
HETATM   19  C   UNL     1     -40.186  52.320 -53.987  1.00  0.00     0.059 A 
HETATM   20  C   UNL     1     -40.174  52.201 -52.604  1.00  0.00     0.057 A 
HETATM   21  C   UNL     1     -39.950  50.984 -51.960  1.00  0.00    -0.022 A 
HETATM   22  N   UNL     1     -40.366  53.190 -51.645  1.00  0.00    -0.325 N 
HETATM   23  C   UNL     1     -40.002  51.183 -50.473  1.00  0.00     0.144 A 
HETATM   24  C   UNL     1     -39.713  49.830 -52.684  1.00  0.00     0.010 A 
HETATM   25  C   UNL     1     -40.271  52.687 -50.356  1.00  0.00     0.226 A 
HETATM   26  O   UNL     1     -40.381  53.323 -49.322  1.00  0.00    -0.273 OA
HETATM   27  C   UNL     1     -39.691  49.925 -54.078  1.00  0.00     0.002 A 
HETATM   28  C   UNL     1     -39.919  51.156 -54.727  1.00  0.00     0.019 A 
HETATM   29  H   UNL     1     -40.500  54.171 -51.872  1.00  0.00     0.169 HD
ENDBRANCH   2  19
TORSDOF 5
ENDMDL
MODEL 7
REMARK VINA RESULT:      -8.1      2.142      5.120
REMARK  5 active torsions:
REMARK  status: ('A' for Active; 'I' for Inactive)
REMARK    1  A    between atoms: C_3  and  O_4 
REMARK    2  A    between atoms: O_4  and  C_5 
REMARK    3  A    between atoms: C_5  and  C_6 
REMARK    4  A    between atoms: C_13  and  N_14 
REMARK       I    between atoms: N_14  and  C_15 
REMARK    5  A    between atoms: C_15  and  C_16 
ROOT
HETATM    1  N   UNL     1     -41.504  55.042 -55.896  1.00  0.00    -0.323 N 
HETATM    2  C   UNL     1     -42.674  55.735 -56.153  1.00  0.00     0.258 C 
HETATM    3  O   UNL     1     -43.551  56.007 -55.340  1.00  0.00    -0.267 OA
HETATM    4  H   UNL     1     -40.805  55.023 -56.625  1.00  0.00     0.169 HD
ENDROOT
BRANCH   1   5
HETATM    5  C   UNL     1     -41.126  54.414 -54.687  1.00  0.00     0.037 A 
HETATM    6  C   UNL     1     -41.229  55.006 -53.427  1.00  0.00     0.066 A 
HETATM    7  C   UNL     1     -40.841  54.316 -52.271  1.00  0.00     0.071 A 
HETATM    8  C   UNL     1     -40.358  53.012 -52.376  1.00  0.00     0.037 A 
HETATM    9  C   UNL     1     -40.253  52.410 -53.630  1.00  0.00     0.005 A 
HETATM   10  C   UNL     1     -40.633  53.107 -54.777  1.00  0.00     0.029 A 
BRANCH   7  11
HETATM   11  O   UNL     1     -40.984  55.025 -51.109  1.00  0.00    -0.347 OA
BRANCH  11  12
HETATM   12  C   UNL     1     -42.216  55.714 -50.908  1.00  0.00     0.215 C 
BRANCH  12  13
HETATM   13  C   UNL     1     -41.964  57.196 -50.942  1.00  0.00    -0.017 A 
HETATM   14  C   UNL     1     -42.953  58.085 -51.349  1.00  0.00     0.125 A 
HETATM   15  N   UNL     1     -42.813  59.431 -51.359  1.00  0.00    -0.272 NA
HETATM   16  C   UNL     1     -41.624  59.918 -50.941  1.00  0.00     0.116 A 
HETATM   17  C   UNL     1     -40.576  59.124 -50.509  1.00  0.00     0.020 A 
HETATM   18  C   UNL     1     -40.753  57.744 -50.506  1.00  0.00     0.012 A 
ENDBRANCH  12  13
ENDBRANCH  11  12
ENDBRANCH   7  11
ENDBRANCH   1   5
BRANCH   2  19
HETATM   19  C   UNL     1     -42.830  56.223 -57.554  1.00  0.00     0.059 A 
HETATM   20  C   UNL     1     -42.495  57.530 -57.883  1.00  0.00     0.057 A 
HETATM   21  C   UNL     1     -42.608  58.027 -59.182  1.00  0.00    -0.022 A 
HETATM   22  N   UNL     1     -42.014  58.539 -57.054  1.00  0.00    -0.325 N 
HETATM   23  C   UNL     1     -42.168  59.462 -59.212  1.00  0.00     0.144 A 
HETATM   24  C   UNL     1     -43.081  57.231 -60.209  1.00  0.00     0.010 A 
HETATM   25  C   UNL     1     -41.802  59.721 -57.747  1.00  0.00     0.226 A 
HETATM   26  O   UNL     1     -41.399  60.772 -57.278  1.00  0.00    -0.273 OA
HETATM   27  C   UNL     1     -43.453  55.919 -59.901  1.00  0.00     0.002 A 
HETATM   28  C   UNL     1     -43.336  55.419 -58.588  1.00  0.00     0.019 A 
HETATM   29  H   UNL     1     -41.893  58.429 -56.052  1.00  0.00     0.169 HD
ENDBRANCH   2  19
TORSDOF 5
ENDMDL
MODEL 8
REMARK VINA RESULT:      -7.9      2.272      8.550
REMARK  5 active torsions:
REMARK  status: ('A' for Active; 'I' for Inactive)
REMARK    1  A    between atoms: C_3  and  O_4 
REMARK    2  A    between atoms: O_4  and  C_5 
REMARK    3  A    between atoms: C_5  and  C_6 
REMARK    4  A    between atoms: C_13  and  N_14 
REMARK       I    between atoms: N_14  and  C_15 
REMARK    5  A    between atoms: C_15  and  C_16 
ROOT
HETATM    1  N   UNL     1     -42.204  54.766 -53.987  1.00  0.00    -0.323 N 
HETATM    2  C   UNL     1     -40.882  54.374 -53.866  1.00  0.00     0.258 C 
HETATM    3  O   UNL     1     -39.947  54.745 -54.568  1.00  0.00    -0.267 OA
HETATM    4  H   UNL     1     -42.837  54.498 -53.246  1.00  0.00     0.169 HD
ENDROOT
BRANCH   1   5
HETATM    5  C   UNL     1     -42.769  55.579 -54.995  1.00  0.00     0.037 A 
HETATM    6  C   UNL     1     -42.582  55.379 -56.364  1.00  0.00     0.066 A 
HETATM    7  C   UNL     1     -43.184  56.225 -57.306  1.00  0.00     0.071 A 
HETATM    8  C   UNL     1     -43.995  57.273 -56.872  1.00  0.00     0.037 A 
HETATM    9  C   UNL     1     -44.191  57.480 -55.506  1.00  0.00     0.005 A 
HETATM   10  C   UNL     1     -43.580  56.640 -54.575  1.00  0.00     0.029 A 
BRANCH   7  11
HETATM   11  O   UNL     1     -42.901  55.919 -58.610  1.00  0.00    -0.347 OA
BRANCH  11  12
HETATM   12  C   UNL     1     -43.861  56.295 -59.595  1.00  0.00     0.215 C 
BRANCH  12  13
HETATM   13  C   UNL     1     -43.521  57.662 -60.120  1.00  0.00    -0.017 A 
HETATM   14  C   UNL     1     -42.203  58.025 -60.379  1.00  0.00     0.125 A 
HETATM   15  N   UNL     1     -41.828  59.217 -60.897  1.00  0.00    -0.272 NA
HETATM   16  C   UNL     1     -42.817  60.096 -61.169  1.00  0.00     0.116 A 
HETATM   17  C   UNL     1     -44.160  59.835 -60.956  1.00  0.00     0.020 A 
HETATM   18  C   UNL     1     -44.514  58.598 -60.428  1.00  0.00     0.012 A 
ENDBRANCH  12  13
ENDBRANCH  11  12
ENDBRANCH   7  11
ENDBRANCH   1   5
BRANCH   2  19
HETATM   19  C   UNL     1     -40.592  53.445 -52.735  1.00  0.00     0.059 A 
HETATM   20  C   UNL     1     -40.249  52.123 -52.984  1.00  0.00     0.057 A 
HETATM   21  C   UNL     1     -39.953  51.222 -51.960  1.00  0.00    -0.022 A 
HETATM   22  N   UNL     1     -40.136  51.470 -54.207  1.00  0.00    -0.325 N 
HETATM   23  C   UNL     1     -39.618  49.883 -52.549  1.00  0.00     0.144 A 
HETATM   24  C   UNL     1     -40.006  51.611 -50.634  1.00  0.00     0.010 A 
HETATM   25  C   UNL     1     -39.779  50.139 -54.052  1.00  0.00     0.226 A 
HETATM   26  O   UNL     1     -39.622  49.323 -54.944  1.00  0.00    -0.273 OA
HETATM   27  C   UNL     1     -40.376  52.929 -50.353  1.00  0.00     0.002 A 
HETATM   28  C   UNL     1     -40.673  53.838 -51.389  1.00  0.00     0.019 A 
HETATM   29  H   UNL     1     -40.349  51.909 -55.097  1.00  0.00     0.169 HD
ENDBRANCH   2  19
TORSDOF 5
ENDMDL
MODEL 9
REMARK VINA RESULT:      -7.8      2.363      8.027
REMARK  5 active torsions:
REMARK  status: ('A' for Active; 'I' for Inactive)
REMARK    1  A    between atoms: C_3  and  O_4 
REMARK    2  A    between atoms: O_4  and  C_5 
REMARK    3  A    between atoms: C_5  and  C_6 
REMARK    4  A    between atoms: C_13  and  N_14 
REMARK       I    between atoms: N_14  and  C_15 
REMARK    5  A    between atoms: C_15  and  C_16 
ROOT
HETATM    1  N   UNL     1     -41.744  54.893 -55.473  1.00  0.00    -0.323 N 
HETATM    2  C   UNL     1     -42.200  54.322 -54.298  1.00  0.00     0.258 C 
HETATM    3  O   UNL     1     -43.301  54.494 -53.787  1.00  0.00    -0.267 OA
HETATM    4  H   UNL     1     -40.875  54.544 -55.852  1.00  0.00     0.169 HD
ENDROOT
BRANCH   1   5
HETATM    5  C   UNL     1     -42.395  55.866 -56.264  1.00  0.00     0.037 A 
HETATM    6  C   UNL     1     -42.446  57.227 -55.956  1.00  0.00     0.066 A 
HETATM    7  C   UNL     1     -43.107  58.133 -56.796  1.00  0.00     0.071 A 
HETATM    8  C   UNL     1     -43.711  57.674 -57.966  1.00  0.00     0.037 A 
HETATM    9  C   UNL     1     -43.664  56.317 -58.285  1.00  0.00     0.005 A 
HETATM   10  C   UNL     1     -43.013  55.419 -57.439  1.00  0.00     0.029 A 
BRANCH   7  11
HETATM   11  O   UNL     1     -43.088  59.431 -56.361  1.00  0.00    -0.347 OA
BRANCH  11  12
HETATM   12  C   UNL     1     -44.064  59.814 -55.395  1.00  0.00     0.215 C 
BRANCH  12  13
HETATM   13  C   UNL     1     -43.466  59.708 -54.019  1.00  0.00    -0.017 A 
HETATM   14  C   UNL     1     -42.196  60.206 -53.748  1.00  0.00     0.125 A 
HETATM   15  N   UNL     1     -41.615  60.188 -52.525  1.00  0.00    -0.272 NA
HETATM   16  C   UNL     1     -42.336  59.645 -51.521  1.00  0.00     0.116 A 
HETATM   17  C   UNL     1     -43.610  59.126 -51.680  1.00  0.00     0.020 A 
HETATM   18  C   UNL     1     -44.182  59.163 -52.948  1.00  0.00     0.012 A 
ENDBRANCH  12  13
ENDBRANCH  11  12
ENDBRANCH   7  11
ENDBRANCH   1   5
BRANCH   2  19
HETATM   19  C   UNL     1     -41.254  53.375 -53.639  1.00  0.00     0.059 A 
HETATM   20  C   UNL     1     -41.106  53.379 -52.258  1.00  0.00     0.057 A 
HETATM   21  C   UNL     1     -40.246  52.502 -51.596  1.00  0.00    -0.022 A 
HETATM   22  N   UNL     1     -41.732  54.192 -51.320  1.00  0.00    -0.325 N 
HETATM   23  C   UNL     1     -40.313  52.751 -50.118  1.00  0.00     0.144 A 
HETATM   24  C   UNL     1     -39.482  51.588 -52.300  1.00  0.00     0.010 A 
HETATM   25  C   UNL     1     -41.319  53.904 -50.027  1.00  0.00     0.226 A 
HETATM   26  O   UNL     1     -41.688  54.463 -49.009  1.00  0.00    -0.273 OA
HETATM   27  C   UNL     1     -39.590  51.581 -53.693  1.00  0.00     0.002 A 
HETATM   28  C   UNL     1     -40.460  52.468 -54.360  1.00  0.00     0.019 A 
HETATM   29  H   UNL     1     -42.369  54.943 -51.566  1.00  0.00     0.169 HD
ENDBRANCH   2  19
TORSDOF 5
ENDMDL
MODEL 10
REMARK VINA RESULT:      -7.8      2.458      8.855
REMARK  5 active torsions:
REMARK  status: ('A' for Active; 'I' for Inactive)
REMARK    1  A    between atoms: C_3  and  O_4 
REMARK    2  A    between atoms: O_4  and  C_5 
REMARK    3  A    between atoms: C_5  and  C_6 
REMARK    4  A    between atoms: C_13  and  N_14 
REMARK       I    between atoms: N_14  and  C_15 
REMARK    5  A    between atoms: C_15  and  C_16 
ROOT
HETATM    1  N   UNL     1     -42.417  55.201 -54.728  1.00  0.00    -0.323 N 
HETATM    2  C   UNL     1     -41.341  55.312 -53.864  1.00  0.00     0.258 C 
HETATM    3  O   UNL     1     -40.852  56.354 -53.443  1.00  0.00    -0.267 OA
HETATM    4  H   UNL     1     -42.806  54.280 -54.869  1.00  0.00     0.169 HD
ENDROOT
BRANCH   1   5
HETATM    5  C   UNL     1     -43.100  56.248 -55.386  1.00  0.00     0.037 A 
HETATM    6  C   UNL     1     -42.765  56.735 -56.652  1.00  0.00     0.066 A 
HETATM    7  C   UNL     1     -43.497  57.774 -57.243  1.00  0.00     0.071 A 
HETATM    8  C   UNL     1     -44.586  58.321 -56.566  1.00  0.00     0.037 A 
HETATM    9  C   UNL     1     -44.931  57.841 -55.302  1.00  0.00     0.005 A 
HETATM   10  C   UNL     1     -44.192  56.814 -54.716  1.00  0.00     0.029 A 
BRANCH   7  11
HETATM   11  O   UNL     1     -43.047  58.157 -58.477  1.00  0.00    -0.347 OA
BRANCH  11  12
HETATM   12  C   UNL     1     -43.580  59.361 -59.026  1.00  0.00     0.215 C 
BRANCH  12  13
HETATM   13  C   UNL     1     -42.490  60.393 -59.104  1.00  0.00    -0.017 A 
HETATM   14  C   UNL     1     -41.650  60.636 -58.022  1.00  0.00     0.125 A 
HETATM   15  N   UNL     1     -40.620  61.513 -58.038  1.00  0.00    -0.272 NA
HETATM   16  C   UNL     1     -40.417  62.186 -59.191  1.00  0.00     0.116 A 
HETATM   17  C   UNL     1     -41.188  62.018 -60.328  1.00  0.00     0.020 A 
HETATM   18  C   UNL     1     -42.236  61.104 -60.282  1.00  0.00     0.012 A 
ENDBRANCH  12  13
ENDBRANCH  11  12
ENDBRANCH   7  11
ENDBRANCH   1   5
BRANCH   2  19
HETATM   19  C   UNL     1     -40.775  54.018 -53.382  1.00  0.00     0.059 A 
HETATM   20  C   UNL     1     -40.753  53.725 -52.024  1.00  0.00     0.057 A 
HETATM   21  C   UNL     1     -40.249  52.523 -51.528  1.00  0.00    -0.022 A 
HETATM   22  N   UNL     1     -41.191  54.506 -50.960  1.00  0.00    -0.325 N 
HETATM   23  C   UNL     1     -40.367  52.507 -50.031  1.00  0.00     0.144 A 
HETATM   24  C   UNL     1     -39.730  51.563 -52.378  1.00  0.00     0.010 A 
HETATM   25  C   UNL     1     -40.994  53.875 -49.740  1.00  0.00     0.226 A 
HETATM   26  O   UNL     1     -41.268  54.325 -48.641  1.00  0.00    -0.273 OA
HETATM   27  C   UNL     1     -39.714  51.843 -53.748  1.00  0.00     0.002 A 
HETATM   28  C   UNL     1     -40.225  53.059 -54.247  1.00  0.00     0.019 A 
HETATM   29  H   UNL     1     -41.555  55.447 -51.069  1.00  0.00     0.169 HD
ENDBRANCH   2  19
TORSDOF 5
ENDMDL
