MODEL 1
REMARK VINA RESULT:      -8.3      0.000      0.000
REMARK  3 active torsions:
REMARK  status: ('A' for Active; 'I' for Inactive)
REMARK    1  A    between atoms: C_4  and  N_5 
REMARK       I    between atoms: N_5  and  C_6 
REMARK    2  A    between atoms: C_6  and  C_7 
REMARK    3  A    between atoms: C_7  and  C_8 
ROOT
HETATM    1  C   UNL     1     -43.582  55.847 -53.300  1.00  0.00     0.286 C 
HETATM    2  N   UNL     1     -42.783  57.145 -53.380  1.00  0.00    -0.056 N 
HETATM    3  H   UNL     1     -41.784  56.860 -53.477  1.00  0.00     0.278 HD
HETATM    4  H   UNL     1     -43.010  57.653 -54.242  1.00  0.00     0.278 HD
HETATM    5  C   UNL     1     -42.957  58.020 -52.165  1.00  0.00     0.209 C 
HETATM    6  C   UNL     1     -42.557  57.222 -50.898  1.00  0.00     0.115 C 
HETATM    7  N   UNL     1     -43.229  55.926 -50.835  1.00  0.00    -0.353 N 
HETATM    8  C   UNL     1     -43.479  55.139 -51.930  1.00  0.00     0.249 C 
HETATM    9  O   UNL     1     -43.708  53.944 -51.784  1.00  0.00    -0.271 OA
HETATM   10  C   UNL     1     -42.132  59.295 -52.338  1.00  0.00     0.035 C 
HETATM   11  C   UNL     1     -40.627  59.061 -52.219  1.00  0.00     0.002 C 
HETATM   12  C   UNL     1     -40.274  58.337 -50.924  1.00  0.00     0.002 C 
HETATM   13  C   UNL     1     -41.037  57.026 -50.781  1.00  0.00     0.027 C 
HETATM   14  H   UNL     1     -43.180  55.401 -49.963  1.00  0.00     0.163 HD
ENDROOT
BRANCH   1  15
HETATM   15  C   UNL     1     -43.207  54.885 -54.437  1.00  0.00     0.146 C 
BRANCH  15  16
HETATM   16  C   UNL     1     -41.878  55.293 -55.029  1.00  0.00     0.224 C 
HETATM   17  N   UNL     1     -40.702  54.746 -54.633  1.00  0.00    -0.327 N 
HETATM   18  H   UNL     1     -39.896  55.272 -54.955  1.00  0.00     0.169 HD
HETATM   19  O   UNL     1     -41.873  56.192 -55.883  1.00  0.00    -0.273 OA
BRANCH  17  20
HETATM   20  C   UNL     1     -40.410  53.655 -53.795  1.00  0.00     0.035 A 
HETATM   21  C   UNL     1     -40.423  53.710 -52.401  1.00  0.00     0.036 A 
HETATM   22  C   UNL     1     -40.117  52.571 -51.638  1.00  0.00    -0.059 A 
HETATM   23  C   UNL     1     -40.174  52.612 -50.139  1.00  0.00     0.048 C 
HETATM   24  C   UNL     1     -39.820  51.368 -52.289  1.00  0.00     0.013 A 
HETATM   25  C   UNL     1     -39.820  51.293 -53.685  1.00  0.00    -0.059 A 
HETATM   26  C   UNL     1     -40.145  52.434 -54.427  1.00  0.00     0.036 A 
HETATM   27  C   UNL     1     -39.526  49.991 -54.374  1.00  0.00     0.048 C 
ENDBRANCH  17  20
ENDBRANCH  15  16
ENDBRANCH   1  15
TORSDOF 3
ENDMDL
MODEL 2
REMARK VINA RESULT:      -8.3      0.179      1.796
REMARK  3 active torsions:
REMARK  status: ('A' for Active; 'I' for Inactive)
REMARK    1  A    between atoms: C_4  and  N_5 
REMARK       I    between atoms: N_5  and  C_6 
REMARK    2  A    between atoms: C_6  and  C_7 
REMARK    3  A    between atoms: C_7  and  C_8 
ROOT
HETATM    1  C   UNL     1     -43.658  55.851 -53.297  1.00  0.00     0.286 C 
HETATM    2  N   UNL     1     -42.892  57.167 -53.390  1.00  0.00    -0.056 N 
HETATM    3  H   UNL     1     -41.892  56.907 -53.535  1.00  0.00     0.278 HD
HETATM    4  H   UNL     1     -43.167  57.684 -54.233  1.00  0.00     0.278 HD
HETATM    5  C   UNL     1     -43.032  58.020 -52.155  1.00  0.00     0.209 C 
HETATM    6  C   UNL     1     -42.560  57.212 -50.919  1.00  0.00     0.115 C 
HETATM    7  N   UNL     1     -43.200  55.901 -50.848  1.00  0.00    -0.353 N 
HETATM    8  C   UNL     1     -43.481  55.125 -51.944  1.00  0.00     0.249 C 
HETATM    9  O   UNL     1     -43.677  53.923 -51.808  1.00  0.00    -0.271 OA
HETATM   10  C   UNL     1     -42.243  59.316 -52.343  1.00  0.00     0.035 C 
HETATM   11  C   UNL     1     -40.730  59.114 -52.292  1.00  0.00     0.002 C 
HETATM   12  C   UNL     1     -40.306  58.379 -51.026  1.00  0.00     0.002 C 
HETATM   13  C   UNL     1     -41.033  57.049 -50.871  1.00  0.00     0.027 C 
HETATM   14  H   UNL     1     -43.102  55.364 -49.987  1.00  0.00     0.163 HD
ENDROOT
BRANCH   1  15
HETATM   15  C   UNL     1     -43.311  54.915 -54.464  1.00  0.00     0.146 C 
BRANCH  15  16
HETATM   16  C   UNL     1     -42.012  55.355 -55.099  1.00  0.00     0.224 C 
HETATM   17  N   UNL     1     -40.818  54.801 -54.777  1.00  0.00    -0.327 N 
HETATM   18  H   UNL     1     -40.029  55.345 -55.114  1.00  0.00     0.169 HD
HETATM   19  O   UNL     1     -42.050  56.286 -55.917  1.00  0.00    -0.273 OA
BRANCH  17  20
HETATM   20  C   UNL     1     -40.482  53.682 -53.995  1.00  0.00     0.035 A 
HETATM   21  C   UNL     1     -40.185  52.421 -54.514  1.00  0.00     0.036 A 
HETATM   22  C   UNL     1     -39.859  51.355 -53.661  1.00  0.00    -0.059 A 
HETATM   23  C   UNL     1     -39.495  50.009 -54.216  1.00  0.00     0.048 C 
HETATM   24  C   UNL     1     -39.810  51.572 -52.279  1.00  0.00     0.013 A 
HETATM   25  C   UNL     1     -40.088  52.833 -51.744  1.00  0.00    -0.059 A 
HETATM   26  C   UNL     1     -40.393  53.887 -52.613  1.00  0.00     0.036 A 
HETATM   27  C   UNL     1     -40.008  53.063 -50.262  1.00  0.00     0.048 C 
ENDBRANCH  17  20
ENDBRANCH  15  16
ENDBRANCH   1  15
TORSDOF 3
ENDMDL
MODEL 3
REMARK VINA RESULT:      -8.1     14.392     16.840
REMARK  3 active torsions:
REMARK  status: ('A' for Active; 'I' for Inactive)
REMARK    1  A    between atoms: C_4  and  N_5 
REMARK       I    between atoms: N_5  and  C_6 
REMARK    2  A    between atoms: C_6  and  C_7 
REMARK    3  A    between atoms: C_7  and  C_8 
ROOT
HETATM    1  C   UNL     1     -34.173  40.472 -54.604  1.00  0.00     0.286 C 
HETATM    2  N   UNL     1     -34.597  40.314 -53.147  1.00  0.00    -0.056 N 
HETATM    3  H   UNL     1     -34.270  41.177 -52.659  1.00  0.00     0.278 HD
HETATM    4  H   UNL     1     -35.620  40.323 -53.068  1.00  0.00     0.278 HD
HETATM    5  C   UNL     1     -34.007  39.092 -52.490  1.00  0.00     0.209 C 
HETATM    6  C   UNL     1     -32.462  39.150 -52.595  1.00  0.00     0.115 C 
HETATM    7  N   UNL     1     -32.017  39.399 -53.964  1.00  0.00    -0.353 N 
HETATM    8  C   UNL     1     -32.664  40.232 -54.840  1.00  0.00     0.249 C 
HETATM    9  O   UNL     1     -32.070  40.673 -55.818  1.00  0.00    -0.271 OA
HETATM   10  C   UNL     1     -34.493  39.013 -51.043  1.00  0.00     0.035 C 
HETATM   11  C   UNL     1     -33.863  40.068 -50.136  1.00  0.00     0.002 C 
HETATM   12  C   UNL     1     -32.341  40.039 -50.218  1.00  0.00     0.002 C 
HETATM   13  C   UNL     1     -31.847  40.195 -51.651  1.00  0.00     0.027 C 
HETATM   14  H   UNL     1     -31.028  39.277 -54.178  1.00  0.00     0.163 HD
ENDROOT
BRANCH   1  15
HETATM   15  C   UNL     1     -34.600  41.834 -55.170  1.00  0.00     0.146 C 
BRANCH  15  16
HETATM   16  C   UNL     1     -35.977  42.188 -54.657  1.00  0.00     0.224 C 
HETATM   17  N   UNL     1     -37.097  42.037 -55.407  1.00  0.00    -0.327 N 
HETATM   18  H   UNL     1     -37.900  42.519 -55.013  1.00  0.00     0.169 HD
HETATM   19  O   UNL     1     -36.067  42.671 -53.519  1.00  0.00    -0.273 OA
BRANCH  17  20
HETATM   20  C   UNL     1     -37.318  41.422 -56.651  1.00  0.00     0.035 A 
HETATM   21  C   UNL     1     -37.647  40.077 -56.817  1.00  0.00     0.036 A 
HETATM   22  C   UNL     1     -37.850  39.543 -58.099  1.00  0.00    -0.059 A 
HETATM   23  C   UNL     1     -38.250  38.107 -58.279  1.00  0.00     0.048 C 
HETATM   24  C   UNL     1     -37.744  40.379 -59.216  1.00  0.00     0.013 A 
HETATM   25  C   UNL     1     -37.431  41.733 -59.067  1.00  0.00    -0.059 A 
HETATM   26  C   UNL     1     -37.250  42.251 -57.779  1.00  0.00     0.036 A 
HETATM   27  C   UNL     1     -37.345  42.629 -60.269  1.00  0.00     0.048 C 
ENDBRANCH  17  20
ENDBRANCH  15  16
ENDBRANCH   1  15
TORSDOF 3
ENDMDL
MODEL 4
REMARK VINA RESULT:      -8.1      2.185      3.027
REMARK  3 active torsions:
REMARK  status: ('A' for Active; 'I' for Inactive)
REMARK    1  A    between atoms: C_4  and  N_5 
REMARK       I    between atoms: N_5  and  C_6 
REMARK    2  A    between atoms: C_6  and  C_7 
REMARK    3  A    between atoms: C_7  and  C_8 
ROOT
HETATM    1  C   UNL     1     -42.836  56.223 -51.663  1.00  0.00     0.286 C 
HETATM    2  N   UNL     1     -41.460  56.868 -51.805  1.00  0.00    -0.056 N 
HETATM    3  H   UNL     1     -41.043  56.865 -50.849  1.00  0.00     0.278 HD
HETATM    4  H   UNL     1     -40.845  56.279 -52.377  1.00  0.00     0.278 HD
HETATM    5  C   UNL     1     -41.522  58.277 -52.340  1.00  0.00     0.209 C 
HETATM    6  C   UNL     1     -42.423  59.135 -51.417  1.00  0.00     0.115 C 
HETATM    7  N   UNL     1     -43.718  58.503 -51.176  1.00  0.00    -0.353 N 
HETATM    8  C   UNL     1     -43.892  57.151 -51.020  1.00  0.00     0.249 C 
HETATM    9  O   UNL     1     -44.905  56.724 -50.478  1.00  0.00    -0.271 OA
HETATM   10  C   UNL     1     -40.104  58.835 -52.457  1.00  0.00     0.035 C 
HETATM   11  C   UNL     1     -39.464  59.147 -51.105  1.00  0.00     0.002 C 
HETATM   12  C   UNL     1     -40.354  60.052 -50.261  1.00  0.00     0.002 C 
HETATM   13  C   UNL     1     -41.748  59.465 -50.076  1.00  0.00     0.027 C 
HETATM   14  H   UNL     1     -44.450  59.058 -50.735  1.00  0.00     0.163 HD
ENDROOT
BRANCH   1  15
HETATM   15  C   UNL     1     -42.756  54.888 -50.909  1.00  0.00     0.146 C 
BRANCH  15  16
HETATM   16  C   UNL     1     -41.456  54.816 -50.141  1.00  0.00     0.224 C 
HETATM   17  N   UNL     1     -40.448  53.980 -50.490  1.00  0.00    -0.327 N 
HETATM   18  H   UNL     1     -39.746  53.886 -49.761  1.00  0.00     0.169 HD
HETATM   19  O   UNL     1     -41.336  55.527 -49.132  1.00  0.00    -0.273 OA
BRANCH  17  20
HETATM   20  C   UNL     1     -40.251  53.165 -51.618  1.00  0.00     0.035 A 
HETATM   21  C   UNL     1     -39.989  51.796 -51.563  1.00  0.00     0.036 A 
HETATM   22  C   UNL     1     -39.805  51.055 -52.742  1.00  0.00    -0.059 A 
HETATM   23  C   UNL     1     -39.568  49.574 -52.690  1.00  0.00     0.048 C 
HETATM   24  C   UNL     1     -39.910  51.698 -53.981  1.00  0.00     0.013 A 
HETATM   25  C   UNL     1     -40.190  53.066 -54.053  1.00  0.00    -0.059 A 
HETATM   26  C   UNL     1     -40.388  53.783 -52.868  1.00  0.00     0.036 A 
HETATM   27  C   UNL     1     -40.327  53.742 -55.387  1.00  0.00     0.048 C 
ENDBRANCH  17  20
ENDBRANCH  15  16
ENDBRANCH   1  15
TORSDOF 3
ENDMDL
MODEL 5
REMARK VINA RESULT:      -7.7      3.310      5.184
REMARK  3 active torsions:
REMARK  status: ('A' for Active; 'I' for Inactive)
REMARK    1  A    between atoms: C_4  and  N_5 
REMARK       I    between atoms: N_5  and  C_6 
REMARK    2  A    between atoms: C_6  and  C_7 
REMARK    3  A    between atoms: C_7  and  C_8 
ROOT
HETATM    1  C   UNL     1     -43.295  57.849 -55.642  1.00  0.00     0.286 C 
HETATM    2  N   UNL     1     -43.718  56.942 -56.793  1.00  0.00    -0.056 N 
HETATM    3  H   UNL     1     -42.894  56.335 -56.997  1.00  0.00     0.278 HD
HETATM    4  H   UNL     1     -44.463  56.304 -56.491  1.00  0.00     0.278 HD
HETATM    5  C   UNL     1     -44.119  57.706 -58.029  1.00  0.00     0.209 C 
HETATM    6  C   UNL     1     -42.945  58.618 -58.470  1.00  0.00     0.115 C 
HETATM    7  N   UNL     1     -42.444  59.434 -57.367  1.00  0.00    -0.353 N 
HETATM    8  C   UNL     1     -42.350  58.995 -56.071  1.00  0.00     0.249 C 
HETATM    9  O   UNL     1     -41.610  59.573 -55.283  1.00  0.00    -0.271 OA
HETATM   10  C   UNL     1     -44.535  56.720 -59.120  1.00  0.00     0.035 C 
HETATM   11  C   UNL     1     -43.360  55.948 -59.717  1.00  0.00     0.002 C 
HETATM   12  C   UNL     1     -42.262  56.888 -60.202  1.00  0.00     0.002 C 
HETATM   13  C   UNL     1     -41.788  57.825 -59.097  1.00  0.00     0.027 C 
HETATM   14  H   UNL     1     -41.801  60.194 -57.585  1.00  0.00     0.163 HD
ENDROOT
BRANCH   1  15
HETATM   15  C   UNL     1     -42.680  57.044 -54.488  1.00  0.00     0.146 C 
BRANCH  15  16
HETATM   16  C   UNL     1     -43.779  56.397 -53.678  1.00  0.00     0.224 C 
HETATM   17  N   UNL     1     -43.578  55.282 -52.933  1.00  0.00    -0.327 N 
HETATM   18  H   UNL     1     -44.446  54.848 -52.634  1.00  0.00     0.169 HD
HETATM   19  O   UNL     1     -44.914  56.892 -53.738  1.00  0.00    -0.273 OA
BRANCH  17  20
HETATM   20  C   UNL     1     -42.408  54.584 -52.585  1.00  0.00     0.035 A 
HETATM   21  C   UNL     1     -41.719  54.754 -51.384  1.00  0.00     0.036 A 
HETATM   22  C   UNL     1     -40.556  54.014 -51.117  1.00  0.00    -0.059 A 
HETATM   23  C   UNL     1     -39.837  54.160 -49.807  1.00  0.00     0.048 C 
HETATM   24  C   UNL     1     -40.103  53.082 -52.058  1.00  0.00     0.013 A 
HETATM   25  C   UNL     1     -40.792  52.888 -53.259  1.00  0.00    -0.059 A 
HETATM   26  C   UNL     1     -41.959  53.622 -53.499  1.00  0.00     0.036 A 
HETATM   27  C   UNL     1     -40.313  51.868 -54.251  1.00  0.00     0.048 C 
ENDBRANCH  17  20
ENDBRANCH  15  16
ENDBRANCH   1  15
TORSDOF 3
ENDMDL
MODEL 6
REMARK VINA RESULT:      -7.7      3.328      5.493
REMARK  3 active torsions:
REMARK  status: ('A' for Active; 'I' for Inactive)
REMARK    1  A    between atoms: C_4  and  N_5 
REMARK       I    between atoms: N_5  and  C_6 
REMARK    2  A    between atoms: C_6  and  C_7 
REMARK    3  A    between atoms: C_7  and  C_8 
ROOT
HETATM    1  C   UNL     1     -43.279  57.790 -55.688  1.00  0.00     0.286 C 
HETATM    2  N   UNL     1     -43.699  56.889 -56.845  1.00  0.00    -0.056 N 
HETATM    3  H   UNL     1     -42.867  56.300 -57.066  1.00  0.00     0.278 HD
HETATM    4  H   UNL     1     -44.429  56.233 -56.542  1.00  0.00     0.278 HD
HETATM    5  C   UNL     1     -44.129  57.660 -58.067  1.00  0.00     0.209 C 
HETATM    6  C   UNL     1     -42.977  58.598 -58.511  1.00  0.00     0.115 C 
HETATM    7  N   UNL     1     -42.479  59.410 -57.404  1.00  0.00    -0.353 N 
HETATM    8  C   UNL     1     -42.360  58.958 -56.115  1.00  0.00     0.249 C 
HETATM    9  O   UNL     1     -41.622  59.540 -55.328  1.00  0.00    -0.271 OA
HETATM   10  C   UNL     1     -44.540  56.679 -59.165  1.00  0.00     0.035 C 
HETATM   11  C   UNL     1     -43.358  55.936 -59.785  1.00  0.00     0.002 C 
HETATM   12  C   UNL     1     -42.284  56.902 -60.272  1.00  0.00     0.002 C 
HETATM   13  C   UNL     1     -41.813  57.834 -59.161  1.00  0.00     0.027 C 
HETATM   14  H   UNL     1     -41.852  60.184 -57.620  1.00  0.00     0.163 HD
ENDROOT
BRANCH   1  15
HETATM   15  C   UNL     1     -42.635  56.983 -54.551  1.00  0.00     0.146 C 
BRANCH  15  16
HETATM   16  C   UNL     1     -43.714  56.420 -53.655  1.00  0.00     0.224 C 
HETATM   17  N   UNL     1     -43.545  55.284 -52.934  1.00  0.00    -0.327 N 
HETATM   18  H   UNL     1     -44.419  54.920 -52.565  1.00  0.00     0.169 HD
HETATM   19  O   UNL     1     -44.804  57.008 -53.616  1.00  0.00    -0.273 OA
BRANCH  17  20
HETATM   20  C   UNL     1     -42.414  54.486 -52.689  1.00  0.00     0.035 A 
HETATM   21  C   UNL     1     -41.910  53.541 -53.583  1.00  0.00     0.036 A 
HETATM   22  C   UNL     1     -40.772  52.785 -53.259  1.00  0.00    -0.059 A 
HETATM   23  C   UNL     1     -40.200  51.800 -54.236  1.00  0.00     0.048 C 
HETATM   24  C   UNL     1     -40.128  53.003 -52.035  1.00  0.00     0.013 A 
HETATM   25  C   UNL     1     -40.611  53.959 -51.136  1.00  0.00    -0.059 A 
HETATM   26  C   UNL     1     -41.735  54.715 -51.485  1.00  0.00     0.036 A 
HETATM   27  C   UNL     1     -39.899  54.205 -49.837  1.00  0.00     0.048 C 
ENDBRANCH  17  20
ENDBRANCH  15  16
ENDBRANCH   1  15
TORSDOF 3
ENDMDL
MODEL 7
REMARK VINA RESULT:      -7.5      2.159      4.136
REMARK  3 active torsions:
REMARK  status: ('A' for Active; 'I' for Inactive)
REMARK    1  A    between atoms: C_4  and  N_5 
REMARK       I    between atoms: N_5  and  C_6 
REMARK    2  A    between atoms: C_6  and  C_7 
REMARK    3  A    between atoms: C_7  and  C_8 
ROOT
HETATM    1  C   UNL     1     -41.401  57.774 -50.864  1.00  0.00     0.286 C 
HETATM    2  N   UNL     1     -42.717  57.326 -51.493  1.00  0.00    -0.056 N 
HETATM    3  H   UNL     1     -42.457  56.770 -52.337  1.00  0.00     0.278 HD
HETATM    4  H   UNL     1     -43.207  56.673 -50.872  1.00  0.00     0.278 HD
HETATM    5  C   UNL     1     -43.605  58.480 -51.886  1.00  0.00     0.209 C 
HETATM    6  C   UNL     1     -42.835  59.410 -52.859  1.00  0.00     0.115 C 
HETATM    7  N   UNL     1     -41.524  59.782 -52.335  1.00  0.00    -0.353 N 
HETATM    8  C   UNL     1     -40.716  58.935 -51.621  1.00  0.00     0.249 C 
HETATM    9  O   UNL     1     -39.517  59.172 -51.523  1.00  0.00    -0.271 OA
HETATM   10  C   UNL     1     -44.898  57.938 -52.495  1.00  0.00     0.035 C 
HETATM   11  C   UNL     1     -44.704  57.334 -53.884  1.00  0.00     0.002 C 
HETATM   12  C   UNL     1     -44.009  58.310 -54.826  1.00  0.00     0.002 C 
HETATM   13  C   UNL     1     -42.681  58.797 -54.260  1.00  0.00     0.027 C 
HETATM   14  H   UNL     1     -41.013  60.529 -52.804  1.00  0.00     0.163 HD
ENDROOT
BRANCH   1  15
HETATM   15  C   UNL     1     -40.432  56.595 -50.689  1.00  0.00     0.146 C 
BRANCH  15  16
HETATM   16  C   UNL     1     -41.108  55.496 -49.902  1.00  0.00     0.224 C 
HETATM   17  N   UNL     1     -41.619  54.386 -50.490  1.00  0.00    -0.327 N 
HETATM   18  H   UNL     1     -42.227  53.858 -49.870  1.00  0.00     0.169 HD
HETATM   19  O   UNL     1     -41.227  55.645 -48.677  1.00  0.00    -0.273 OA
BRANCH  17  20
HETATM   20  C   UNL     1     -41.533  53.895 -51.804  1.00  0.00     0.035 A 
HETATM   21  C   UNL     1     -42.342  54.322 -52.857  1.00  0.00     0.036 A 
HETATM   22  C   UNL     1     -42.190  53.778 -54.142  1.00  0.00    -0.059 A 
HETATM   23  C   UNL     1     -43.027  54.267 -55.288  1.00  0.00     0.048 C 
HETATM   24  C   UNL     1     -41.199  52.815 -54.368  1.00  0.00     0.013 A 
HETATM   25  C   UNL     1     -40.368  52.389 -53.327  1.00  0.00    -0.059 A 
HETATM   26  C   UNL     1     -40.524  52.957 -52.057  1.00  0.00     0.036 A 
HETATM   27  C   UNL     1     -39.290  51.376 -53.583  1.00  0.00     0.048 C 
ENDBRANCH  17  20
ENDBRANCH  15  16
ENDBRANCH   1  15
TORSDOF 3
ENDMDL
MODEL 8
REMARK VINA RESULT:      -7.3      2.262      2.944
REMARK  3 active torsions:
REMARK  status: ('A' for Active; 'I' for Inactive)
REMARK    1  A    between atoms: C_4  and  N_5 
REMARK       I    between atoms: N_5  and  C_6 
REMARK    2  A    between atoms: C_6  and  C_7 
REMARK    3  A    between atoms: C_7  and  C_8 
ROOT
HETATM    1  C   UNL     1     -44.066  56.072 -54.335  1.00  0.00     0.286 C 
HETATM    2  N   UNL     1     -44.288  56.847 -55.630  1.00  0.00    -0.056 N 
HETATM    3  H   UNL     1     -43.390  56.784 -56.158  1.00  0.00     0.278 HD
HETATM    4  H   UNL     1     -44.986  56.375 -56.215  1.00  0.00     0.278 HD
HETATM    5  C   UNL     1     -44.654  58.291 -55.398  1.00  0.00     0.209 C 
HETATM    6  C   UNL     1     -43.547  58.970 -54.552  1.00  0.00     0.115 C 
HETATM    7  N   UNL     1     -43.234  58.204 -53.348  1.00  0.00    -0.353 N 
HETATM    8  C   UNL     1     -43.211  56.834 -53.296  1.00  0.00     0.249 C 
HETATM    9  O   UNL     1     -42.609  56.267 -52.391  1.00  0.00    -0.271 OA
HETATM   10  C   UNL     1     -44.866  58.981 -56.746  1.00  0.00     0.035 C 
HETATM   11  C   UNL     1     -43.568  59.210 -57.517  1.00  0.00     0.002 C 
HETATM   12  C   UNL     1     -42.535  59.944 -56.669  1.00  0.00     0.002 C 
HETATM   13  C   UNL     1     -42.261  59.221 -55.356  1.00  0.00     0.027 C 
HETATM   14  H   UNL     1     -42.657  58.646 -52.633  1.00  0.00     0.163 HD
ENDROOT
BRANCH   1  15
HETATM   15  C   UNL     1     -43.476  54.680 -54.605  1.00  0.00     0.146 C 
BRANCH  15  16
HETATM   16  C   UNL     1     -42.286  54.804 -55.528  1.00  0.00     0.224 C 
HETATM   17  N   UNL     1     -41.064  54.308 -55.213  1.00  0.00    -0.327 N 
HETATM   18  H   UNL     1     -40.330  54.660 -55.821  1.00  0.00     0.169 HD
HETATM   19  O   UNL     1     -42.437  55.419 -56.594  1.00  0.00    -0.273 OA
BRANCH  17  20
HETATM   20  C   UNL     1     -40.627  53.484 -54.162  1.00  0.00     0.035 A 
HETATM   21  C   UNL     1     -40.527  53.894 -52.832  1.00  0.00     0.036 A 
HETATM   22  C   UNL     1     -40.080  53.005 -51.841  1.00  0.00    -0.059 A 
HETATM   23  C   UNL     1     -40.014  53.427 -50.403  1.00  0.00     0.048 C 
HETATM   24  C   UNL     1     -39.756  51.690 -52.195  1.00  0.00     0.013 A 
HETATM   25  C   UNL     1     -39.867  51.259 -53.520  1.00  0.00    -0.059 A 
HETATM   26  C   UNL     1     -40.332  52.155 -54.489  1.00  0.00     0.036 A 
HETATM   27  C   UNL     1     -39.543  49.839 -53.885  1.00  0.00     0.048 C 
ENDBRANCH  17  20
ENDBRANCH  15  16
ENDBRANCH   1  15
TORSDOF 3
ENDMDL
MODEL 9
REMARK VINA RESULT:      -7.3      1.804      3.284
REMARK  3 active torsions:
REMARK  status: ('A' for Active; 'I' for Inactive)
REMARK    1  A    between atoms: C_4  and  N_5 
REMARK       I    between atoms: N_5  and  C_6 
REMARK    2  A    between atoms: C_6  and  C_7 
REMARK    3  A    between atoms: C_7  and  C_8 
ROOT
HETATM    1  C   UNL     1     -41.839  55.912 -51.509  1.00  0.00     0.286 C 
HETATM    2  N   UNL     1     -41.144  57.083 -50.822  1.00  0.00    -0.056 N 
HETATM    3  H   UNL     1     -41.788  57.391 -50.060  1.00  0.00     0.278 HD
HETATM    4  H   UNL     1     -40.290  56.766 -50.350  1.00  0.00     0.278 HD
HETATM    5  C   UNL     1     -40.860  58.231 -51.756  1.00  0.00     0.209 C 
HETATM    6  C   UNL     1     -42.187  58.702 -52.406  1.00  0.00     0.115 C 
HETATM    7  N   UNL     1     -42.932  57.591 -52.991  1.00  0.00    -0.353 N 
HETATM    8  C   UNL     1     -42.999  56.338 -52.438  1.00  0.00     0.249 C 
HETATM    9  O   UNL     1     -43.901  55.574 -52.763  1.00  0.00    -0.271 OA
HETATM   10  C   UNL     1     -40.158  59.349 -50.985  1.00  0.00     0.035 C 
HETATM   11  C   UNL     1     -41.080  60.085 -50.015  1.00  0.00     0.002 C 
HETATM   12  C   UNL     1     -42.336  60.592 -50.714  1.00  0.00     0.002 C 
HETATM   13  C   UNL     1     -43.084  59.469 -51.422  1.00  0.00     0.027 C 
HETATM   14  H   UNL     1     -43.722  57.808 -53.598  1.00  0.00     0.163 HD
ENDROOT
BRANCH   1  15
HETATM   15  C   UNL     1     -42.316  54.865 -50.492  1.00  0.00     0.146 C 
BRANCH  15  16
HETATM   16  C   UNL     1     -41.132  54.334 -49.717  1.00  0.00     0.224 C 
HETATM   17  N   UNL     1     -40.296  53.390 -50.217  1.00  0.00    -0.327 N 
HETATM   18  H   UNL     1     -39.696  52.982 -49.506  1.00  0.00     0.169 HD
HETATM   19  O   UNL     1     -40.952  54.757 -48.566  1.00  0.00    -0.273 OA
BRANCH  17  20
HETATM   20  C   UNL     1     -40.180  52.822 -51.498  1.00  0.00     0.035 A 
HETATM   21  C   UNL     1     -40.295  53.540 -52.689  1.00  0.00     0.036 A 
HETATM   22  C   UNL     1     -40.165  52.893 -53.928  1.00  0.00    -0.059 A 
HETATM   23  C   UNL     1     -40.242  53.668 -55.211  1.00  0.00     0.048 C 
HETATM   24  C   UNL     1     -39.893  51.520 -53.962  1.00  0.00     0.013 A 
HETATM   25  C   UNL     1     -39.758  50.790 -52.777  1.00  0.00    -0.059 A 
HETATM   26  C   UNL     1     -39.873  51.457 -51.552  1.00  0.00     0.036 A 
HETATM   27  C   UNL     1     -39.441  49.323 -52.822  1.00  0.00     0.048 C 
ENDBRANCH  17  20
ENDBRANCH  15  16
ENDBRANCH   1  15
TORSDOF 3
ENDMDL
MODEL 10
REMARK VINA RESULT:      -7.2      1.855      2.454
REMARK  3 active torsions:
REMARK  status: ('A' for Active; 'I' for Inactive)
REMARK    1  A    between atoms: C_4  and  N_5 
REMARK       I    between atoms: N_5  and  C_6 
REMARK    2  A    between atoms: C_6  and  C_7 
REMARK    3  A    between atoms: C_7  and  C_8 
ROOT
HETATM    1  C   UNL     1     -42.732  57.074 -52.759  1.00  0.00     0.286 C 
HETATM    2  N   UNL     1     -43.674  58.118 -53.350  1.00  0.00    -0.056 N 
HETATM    3  H   UNL     1     -43.067  58.793 -53.865  1.00  0.00     0.278 HD
HETATM    4  H   UNL     1     -44.280  57.694 -54.061  1.00  0.00     0.278 HD
HETATM    5  C   UNL     1     -44.482  58.843 -52.303  1.00  0.00     0.209 C 
HETATM    6  C   UNL     1     -43.520  59.505 -51.283  1.00  0.00     0.115 C 
HETATM    7  N   UNL     1     -42.537  58.557 -50.766  1.00  0.00    -0.353 N 
HETATM    8  C   UNL     1     -41.952  57.572 -51.520  1.00  0.00     0.249 C 
HETATM    9  O   UNL     1     -40.904  57.058 -51.148  1.00  0.00    -0.271 OA
HETATM   10  C   UNL     1     -45.399  59.858 -52.986  1.00  0.00     0.035 C 
HETATM   11  C   UNL     1     -44.651  61.063 -53.552  1.00  0.00     0.002 C 
HETATM   12  C   UNL     1     -43.775  61.725 -52.494  1.00  0.00     0.002 C 
HETATM   13  C   UNL     1     -42.803  60.735 -51.862  1.00  0.00     0.027 C 
HETATM   14  H   UNL     1     -41.977  58.836 -49.961  1.00  0.00     0.163 HD
ENDROOT
BRANCH   1  15
HETATM   15  C   UNL     1     -41.768  56.522 -53.819  1.00  0.00     0.146 C 
BRANCH  15  16
HETATM   16  C   UNL     1     -42.488  55.512 -54.683  1.00  0.00     0.224 C 
HETATM   17  N   UNL     1     -42.194  54.189 -54.659  1.00  0.00    -0.327 N 
HETATM   18  H   UNL     1     -42.598  53.682 -55.441  1.00  0.00     0.169 HD
HETATM   19  O   UNL     1     -43.352  55.928 -55.468  1.00  0.00    -0.273 OA
BRANCH  17  20
HETATM   20  C   UNL     1     -41.370  53.425 -53.814  1.00  0.00     0.035 A 
HETATM   21  C   UNL     1     -41.092  53.749 -52.485  1.00  0.00     0.036 A 
HETATM   22  C   UNL     1     -40.256  52.929 -51.710  1.00  0.00    -0.059 A 
HETATM   23  C   UNL     1     -39.991  53.248 -50.267  1.00  0.00     0.048 C 
HETATM   24  C   UNL     1     -39.719  51.766 -52.274  1.00  0.00     0.013 A 
HETATM   25  C   UNL     1     -40.001  51.419 -53.598  1.00  0.00    -0.059 A 
HETATM   26  C   UNL     1     -40.851  52.239 -54.349  1.00  0.00     0.036 A 
HETATM   27  C   UNL     1     -39.442  50.156 -54.187  1.00  0.00     0.048 C 
ENDBRANCH  17  20
ENDBRANCH  15  16
ENDBRANCH   1  15
TORSDOF 3
ENDMDL
