MODEL 1
REMARK VINA RESULT:      -8.4      0.000      0.000
REMARK  6 active torsions:
REMARK  status: ('A' for Active; 'I' for Inactive)
REMARK    1  A    between atoms: C_5  and  N_6 
REMARK    2  A    between atoms: C_8  and  C_9 
REMARK    3  A    between atoms: C_11  and  O_12 
REMARK    4  A    between atoms: C_17  and  C_18 
REMARK       I    between atoms: C_18  and  N_19 
REMARK    5  A    between atoms: N_19  and  N_20 
REMARK       I    between atoms: N_20  and  C_21 
REMARK    6  A    between atoms: C_21  and  C_22 
ROOT
HETATM    1  N   UNL     1     -42.147  54.777 -54.274  1.00  0.00    -0.244 N 
HETATM    2  N   UNL     1     -41.975  55.028 -55.587  1.00  0.00    -0.166 NA
HETATM    3  C   UNL     1     -42.793  56.051 -55.885  1.00  0.00     0.105 A 
HETATM    4  C   UNL     1     -43.534  56.462 -54.732  1.00  0.00     0.082 A 
HETATM    5  C   UNL     1     -43.089  55.613 -53.729  1.00  0.00     0.138 A 
ENDROOT
BRANCH   4   6
HETATM    6  C   UNL     1     -44.553  57.493 -54.588  1.00  0.00     0.274 C 
HETATM    7  N   UNL     1     -44.406  58.299 -53.473  1.00  0.00    -0.263 N 
HETATM    8  H   UNL     1     -43.559  58.303 -52.909  1.00  0.00     0.190 HD
HETATM    9  O   UNL     1     -45.473  57.667 -55.385  1.00  0.00    -0.266 OA
BRANCH   7  10
HETATM   10  N   UNL     1     -45.222  59.432 -53.343  1.00  0.00    -0.262 N 
HETATM   11  C   UNL     1     -45.754  59.712 -52.101  1.00  0.00     0.286 C 
HETATM   12  O   UNL     1     -45.589  58.948 -51.148  1.00  0.00    -0.264 OA
HETATM   13  H   UNL     1     -45.253  60.075 -54.129  1.00  0.00     0.190 HD
BRANCH  11  14
HETATM   14  C   UNL     1     -46.500  60.944 -51.995  1.00  0.00     0.102 A 
HETATM   15  N   UNL     1     -47.402  61.320 -52.968  1.00  0.00    -0.361 N 
HETATM   16  H   UNL     1     -47.596  60.772 -53.798  1.00  0.00     0.165 HD
HETATM   17  C   UNL     1     -47.979  62.518 -52.646  1.00  0.00     0.088 A 
HETATM   18  C   UNL     1     -47.448  62.931 -51.446  1.00  0.00     0.019 A 
HETATM   19  C   UNL     1     -46.517  61.944 -51.035  1.00  0.00     0.036 A 
ENDBRANCH  11  14
ENDBRANCH   7  10
ENDBRANCH   4   6
BRANCH   3  20
HETATM   20  C   UNL     1     -42.803  56.569 -57.261  1.00  0.00    -0.002 A 
HETATM   21  C   UNL     1     -43.325  55.823 -58.327  1.00  0.00     0.050 A 
HETATM   22  C   UNL     1     -43.324  56.340 -59.626  1.00  0.00     0.069 A 
HETATM   23  C   UNL     1     -42.857  57.634 -59.856  1.00  0.00     0.037 A 
HETATM   24  C   UNL     1     -42.355  58.397 -58.805  1.00  0.00     0.004 A 
HETATM   25  C   UNL     1     -42.323  57.864 -57.516  1.00  0.00     0.014 A 
BRANCH  22  26
HETATM   26  O   UNL     1     -43.786  55.683 -60.735  1.00  0.00    -0.356 OA
HETATM   27  C   UNL     1     -45.065  55.073 -60.594  1.00  0.00     0.210 C 
ENDBRANCH  22  26
ENDBRANCH   3  20
BRANCH   1  28
HETATM   28  C   UNL     1     -41.401  53.755 -53.620  1.00  0.00     0.058 A 
HETATM   29  C   UNL     1     -41.223  53.815 -52.230  1.00  0.00     0.032 A 
HETATM   30  C   UNL     1     -40.504  52.817 -51.565  1.00  0.00     0.009 A 
HETATM   31  C   UNL     1     -39.946  51.750 -52.277  1.00  0.00    -0.062 A 
HETATM   32  C   UNL     1     -39.205  50.657 -51.565  1.00  0.00     0.048 C 
HETATM   33  C   UNL     1     -40.133  51.687 -53.662  1.00  0.00     0.009 A 
HETATM   34  C   UNL     1     -40.851  52.682 -54.334  1.00  0.00     0.032 A 
ENDBRANCH   1  28
TORSDOF 6
ENDMDL
MODEL 2
REMARK VINA RESULT:      -8.4      2.176      2.924
REMARK  6 active torsions:
REMARK  status: ('A' for Active; 'I' for Inactive)
REMARK    1  A    between atoms: C_5  and  N_6 
REMARK    2  A    between atoms: C_8  and  C_9 
REMARK    3  A    between atoms: C_11  and  O_12 
REMARK    4  A    between atoms: C_17  and  C_18 
REMARK       I    between atoms: C_18  and  N_19 
REMARK    5  A    between atoms: N_19  and  N_20 
REMARK       I    between atoms: N_20  and  C_21 
REMARK    6  A    between atoms: C_21  and  C_22 
ROOT
HETATM    1  N   UNL     1     -41.584  54.995 -52.357  1.00  0.00    -0.244 N 
HETATM    2  N   UNL     1     -42.214  55.204 -53.529  1.00  0.00    -0.166 NA
HETATM    3  C   UNL     1     -42.647  56.475 -53.503  1.00  0.00     0.105 A 
HETATM    4  C   UNL     1     -42.303  57.103 -52.264  1.00  0.00     0.082 A 
HETATM    5  C   UNL     1     -41.630  56.114 -51.564  1.00  0.00     0.138 A 
ENDROOT
BRANCH   4   6
HETATM    6  C   UNL     1     -42.594  58.445 -51.779  1.00  0.00     0.274 C 
HETATM    7  N   UNL     1     -43.742  58.546 -51.011  1.00  0.00    -0.263 N 
HETATM    8  H   UNL     1     -44.233  57.731 -50.653  1.00  0.00     0.190 HD
HETATM    9  O   UNL     1     -41.888  59.427 -52.003  1.00  0.00    -0.266 OA
BRANCH   7  10
HETATM   10  N   UNL     1     -44.008  59.751 -50.345  1.00  0.00    -0.262 N 
HETATM   11  C   UNL     1     -45.279  59.951 -49.846  1.00  0.00     0.286 C 
HETATM   12  O   UNL     1     -46.181  59.135 -50.046  1.00  0.00    -0.264 OA
HETATM   13  H   UNL     1     -43.215  60.347 -50.127  1.00  0.00     0.190 HD
BRANCH  11  14
HETATM   14  C   UNL     1     -45.475  61.159 -49.078  1.00  0.00     0.102 A 
HETATM   15  N   UNL     1     -46.406  62.103 -49.457  1.00  0.00    -0.361 N 
HETATM   16  H   UNL     1     -46.997  62.014 -50.276  1.00  0.00     0.165 HD
HETATM   17  C   UNL     1     -46.406  63.151 -48.579  1.00  0.00     0.088 A 
HETATM   18  C   UNL     1     -45.464  62.890 -47.612  1.00  0.00     0.019 A 
HETATM   19  C   UNL     1     -44.876  61.638 -47.924  1.00  0.00     0.036 A 
ENDBRANCH  11  14
ENDBRANCH   7  10
ENDBRANCH   4   6
BRANCH   3  20
HETATM   20  C   UNL     1     -43.358  57.003 -54.677  1.00  0.00    -0.002 A 
HETATM   21  C   UNL     1     -42.805  56.942 -55.964  1.00  0.00     0.050 A 
HETATM   22  C   UNL     1     -43.503  57.449 -57.064  1.00  0.00     0.069 A 
HETATM   23  C   UNL     1     -44.788  57.964 -56.891  1.00  0.00     0.037 A 
HETATM   24  C   UNL     1     -45.361  58.012 -55.623  1.00  0.00     0.004 A 
HETATM   25  C   UNL     1     -44.646  57.539 -54.522  1.00  0.00     0.014 A 
BRANCH  22  26
HETATM   26  O   UNL     1     -43.041  57.460 -58.353  1.00  0.00    -0.356 OA
HETATM   27  C   UNL     1     -42.976  56.187 -58.988  1.00  0.00     0.210 C 
ENDBRANCH  22  26
ENDBRANCH   3  20
BRANCH   1  28
HETATM   28  C   UNL     1     -40.975  53.740 -52.066  1.00  0.00     0.058 A 
HETATM   29  C   UNL     1     -40.938  53.284 -50.740  1.00  0.00     0.032 A 
HETATM   30  C   UNL     1     -40.357  52.050 -50.431  1.00  0.00     0.009 A 
HETATM   31  C   UNL     1     -39.798  51.258 -51.440  1.00  0.00    -0.062 A 
HETATM   32  C   UNL     1     -39.205  49.917 -51.122  1.00  0.00     0.048 C 
HETATM   33  C   UNL     1     -39.844  51.710 -52.763  1.00  0.00     0.009 A 
HETATM   34  C   UNL     1     -40.425  52.944 -53.078  1.00  0.00     0.032 A 
ENDBRANCH   1  28
TORSDOF 6
ENDMDL
MODEL 3
REMARK VINA RESULT:      -8.3      2.676      6.241
REMARK  6 active torsions:
REMARK  status: ('A' for Active; 'I' for Inactive)
REMARK    1  A    between atoms: C_5  and  N_6 
REMARK    2  A    between atoms: C_8  and  C_9 
REMARK    3  A    between atoms: C_11  and  O_12 
REMARK    4  A    between atoms: C_17  and  C_18 
REMARK       I    between atoms: C_18  and  N_19 
REMARK    5  A    between atoms: N_19  and  N_20 
REMARK       I    between atoms: N_20  and  C_21 
REMARK    6  A    between atoms: C_21  and  C_22 
ROOT
HETATM    1  N   UNL     1     -41.133  54.544 -52.708  1.00  0.00    -0.244 N 
HETATM    2  N   UNL     1     -41.132  55.602 -51.873  1.00  0.00    -0.166 NA
HETATM    3  C   UNL     1     -41.686  56.620 -52.553  1.00  0.00     0.105 A 
HETATM    4  C   UNL     1     -42.038  56.213 -53.878  1.00  0.00     0.082 A 
HETATM    5  C   UNL     1     -41.660  54.880 -53.931  1.00  0.00     0.138 A 
ENDROOT
BRANCH   4   6
HETATM    6  C   UNL     1     -42.623  56.978 -54.972  1.00  0.00     0.274 C 
HETATM    7  N   UNL     1     -43.610  56.313 -55.678  1.00  0.00    -0.263 N 
HETATM    8  H   UNL     1     -44.029  55.448 -55.349  1.00  0.00     0.190 HD
HETATM    9  O   UNL     1     -42.298  58.129 -55.258  1.00  0.00    -0.266 OA
BRANCH   7  10
HETATM   10  N   UNL     1     -44.361  57.025 -56.626  1.00  0.00    -0.262 N 
HETATM   11  C   UNL     1     -44.100  56.803 -57.962  1.00  0.00     0.286 C 
HETATM   12  O   UNL     1     -43.181  56.065 -58.321  1.00  0.00    -0.264 OA
HETATM   13  H   UNL     1     -45.163  57.548 -56.286  1.00  0.00     0.190 HD
BRANCH  11  14
HETATM   14  C   UNL     1     -44.969  57.478 -58.898  1.00  0.00     0.102 A 
HETATM   15  N   UNL     1     -46.280  57.083 -59.070  1.00  0.00    -0.361 N 
HETATM   16  H   UNL     1     -46.706  56.315 -58.564  1.00  0.00     0.165 HD
HETATM   17  C   UNL     1     -46.895  57.869 -60.004  1.00  0.00     0.088 A 
HETATM   18  C   UNL     1     -45.977  58.791 -60.449  1.00  0.00     0.019 A 
HETATM   19  C   UNL     1     -44.764  58.547 -59.756  1.00  0.00     0.036 A 
ENDBRANCH  11  14
ENDBRANCH   7  10
ENDBRANCH   4   6
BRANCH   3  20
HETATM   20  C   UNL     1     -41.844  57.916 -51.877  1.00  0.00    -0.002 A 
HETATM   21  C   UNL     1     -43.107  58.485 -51.658  1.00  0.00     0.050 A 
HETATM   22  C   UNL     1     -43.230  59.718 -51.010  1.00  0.00     0.069 A 
HETATM   23  C   UNL     1     -42.092  60.360 -50.521  1.00  0.00     0.037 A 
HETATM   24  C   UNL     1     -40.832  59.798 -50.710  1.00  0.00     0.004 A 
HETATM   25  C   UNL     1     -40.710  58.585 -51.390  1.00  0.00     0.014 A 
BRANCH  22  26
HETATM   26  O   UNL     1     -44.412  60.367 -50.772  1.00  0.00    -0.356 OA
HETATM   27  C   UNL     1     -45.535  59.524 -50.537  1.00  0.00     0.210 C 
ENDBRANCH  22  26
ENDBRANCH   3  20
BRANCH   1  28
HETATM   28  C   UNL     1     -40.633  53.279 -52.289  1.00  0.00     0.058 A 
HETATM   29  C   UNL     1     -40.683  52.935 -50.930  1.00  0.00     0.032 A 
HETATM   30  C   UNL     1     -40.208  51.693 -50.496  1.00  0.00     0.009 A 
HETATM   31  C   UNL     1     -39.670  50.781 -51.410  1.00  0.00    -0.062 A 
HETATM   32  C   UNL     1     -39.193  49.433 -50.957  1.00  0.00     0.048 C 
HETATM   33  C   UNL     1     -39.630  51.122 -52.766  1.00  0.00     0.009 A 
HETATM   34  C   UNL     1     -40.103  52.363 -53.207  1.00  0.00     0.032 A 
ENDBRANCH   1  28
TORSDOF 6
ENDMDL
MODEL 4
REMARK VINA RESULT:      -8.3      2.309      3.106
REMARK  6 active torsions:
REMARK  status: ('A' for Active; 'I' for Inactive)
REMARK    1  A    between atoms: C_5  and  N_6 
REMARK    2  A    between atoms: C_8  and  C_9 
REMARK    3  A    between atoms: C_11  and  O_12 
REMARK    4  A    between atoms: C_17  and  C_18 
REMARK       I    between atoms: C_18  and  N_19 
REMARK    5  A    between atoms: N_19  and  N_20 
REMARK       I    between atoms: N_20  and  C_21 
REMARK    6  A    between atoms: C_21  and  C_22 
ROOT
HETATM    1  N   UNL     1     -41.572  54.915 -53.191  1.00  0.00    -0.244 N 
HETATM    2  N   UNL     1     -42.237  55.364 -54.274  1.00  0.00    -0.166 NA
HETATM    3  C   UNL     1     -42.633  56.614 -53.981  1.00  0.00     0.105 A 
HETATM    4  C   UNL     1     -42.229  56.978 -52.658  1.00  0.00     0.082 A 
HETATM    5  C   UNL     1     -41.559  55.856 -52.193  1.00  0.00     0.138 A 
ENDROOT
BRANCH   4   6
HETATM    6  C   UNL     1     -42.465  58.204 -51.908  1.00  0.00     0.274 C 
HETATM    7  N   UNL     1     -43.773  58.383 -51.491  1.00  0.00    -0.263 N 
HETATM    8  H   UNL     1     -44.466  57.640 -51.531  1.00  0.00     0.190 HD
HETATM    9  O   UNL     1     -41.591  59.025 -51.637  1.00  0.00    -0.266 OA
BRANCH   7  10
HETATM   10  N   UNL     1     -44.065  59.433 -50.607  1.00  0.00    -0.262 N 
HETATM   11  C   UNL     1     -45.359  59.552 -50.144  1.00  0.00     0.286 C 
HETATM   12  O   UNL     1     -46.255  58.812 -50.552  1.00  0.00    -0.264 OA
HETATM   13  H   UNL     1     -43.279  59.956 -50.231  1.00  0.00     0.190 HD
BRANCH  11  14
HETATM   14  C   UNL     1     -45.586  60.581 -49.156  1.00  0.00     0.102 A 
HETATM   15  N   UNL     1     -45.479  60.314 -47.807  1.00  0.00    -0.361 N 
HETATM   16  H   UNL     1     -45.240  59.403 -47.431  1.00  0.00     0.165 HD
HETATM   17  C   UNL     1     -45.739  61.441 -47.077  1.00  0.00     0.088 A 
HETATM   18  C   UNL     1     -46.019  62.459 -47.958  1.00  0.00     0.019 A 
HETATM   19  C   UNL     1     -45.924  61.921 -49.267  1.00  0.00     0.036 A 
ENDBRANCH  11  14
ENDBRANCH   7  10
ENDBRANCH   4   6
BRANCH   3  20
HETATM   20  C   UNL     1     -43.370  57.377 -55.000  1.00  0.00    -0.002 A 
HETATM   21  C   UNL     1     -42.728  57.925 -56.119  1.00  0.00     0.050 A 
HETATM   22  C   UNL     1     -43.453  58.644 -57.074  1.00  0.00     0.069 A 
HETATM   23  C   UNL     1     -44.837  58.766 -56.947  1.00  0.00     0.037 A 
HETATM   24  C   UNL     1     -45.493  58.209 -55.853  1.00  0.00     0.004 A 
HETATM   25  C   UNL     1     -44.761  57.523 -54.882  1.00  0.00     0.014 A 
BRANCH  22  26
HETATM   26  O   UNL     1     -42.917  59.238 -58.185  1.00  0.00    -0.356 OA
HETATM   27  C   UNL     1     -42.013  58.431 -58.933  1.00  0.00     0.210 C 
ENDBRANCH  22  26
ENDBRANCH   3  20
BRANCH   1  28
HETATM   28  C   UNL     1     -40.990  53.615 -53.176  1.00  0.00     0.058 A 
HETATM   29  C   UNL     1     -40.373  53.151 -52.006  1.00  0.00     0.032 A 
HETATM   30  C   UNL     1     -39.804  51.874 -51.964  1.00  0.00     0.009 A 
HETATM   31  C   UNL     1     -39.836  51.046 -53.091  1.00  0.00    -0.062 A 
HETATM   32  C   UNL     1     -39.261  49.662 -53.042  1.00  0.00     0.048 C 
HETATM   33  C   UNL     1     -40.460  51.507 -54.255  1.00  0.00     0.009 A 
HETATM   34  C   UNL     1     -41.032  52.784 -54.303  1.00  0.00     0.032 A 
ENDBRANCH   1  28
TORSDOF 6
ENDMDL
MODEL 5
REMARK VINA RESULT:      -8.3      2.274      2.319
REMARK  6 active torsions:
REMARK  status: ('A' for Active; 'I' for Inactive)
REMARK    1  A    between atoms: C_5  and  N_6 
REMARK    2  A    between atoms: C_8  and  C_9 
REMARK    3  A    between atoms: C_11  and  O_12 
REMARK    4  A    between atoms: C_17  and  C_18 
REMARK       I    between atoms: C_18  and  N_19 
REMARK    5  A    between atoms: N_19  and  N_20 
REMARK       I    between atoms: N_20  and  C_21 
REMARK    6  A    between atoms: C_21  and  C_22 
ROOT
HETATM    1  N   UNL     1     -41.081  54.887 -53.736  1.00  0.00    -0.244 N 
HETATM    2  N   UNL     1     -41.583  54.888 -54.986  1.00  0.00    -0.166 NA
HETATM    3  C   UNL     1     -41.894  56.164 -55.267  1.00  0.00     0.105 A 
HETATM    4  C   UNL     1     -41.601  57.015 -54.155  1.00  0.00     0.082 A 
HETATM    5  C   UNL     1     -41.088  56.150 -53.199  1.00  0.00     0.138 A 
ENDROOT
BRANCH   4   6
HETATM    6  C   UNL     1     -41.804  58.448 -53.989  1.00  0.00     0.274 C 
HETATM    7  N   UNL     1     -43.018  58.797 -53.423  1.00  0.00    -0.263 N 
HETATM    8  H   UNL     1     -43.631  58.117 -52.982  1.00  0.00     0.190 HD
HETATM    9  O   UNL     1     -40.976  59.301 -54.302  1.00  0.00    -0.266 OA
BRANCH   7  10
HETATM   10  N   UNL     1     -43.232  60.133 -53.051  1.00  0.00    -0.262 N 
HETATM   11  C   UNL     1     -43.032  60.481 -51.731  1.00  0.00     0.286 C 
HETATM   12  O   UNL     1     -42.752  59.633 -50.881  1.00  0.00    -0.264 OA
HETATM   13  H   UNL     1     -43.371  60.807 -53.799  1.00  0.00     0.190 HD
BRANCH  11  14
HETATM   14  C   UNL     1     -43.163  61.885 -51.420  1.00  0.00     0.102 A 
HETATM   15  N   UNL     1     -43.303  62.829 -52.416  1.00  0.00    -0.361 N 
HETATM   16  H   UNL     1     -43.323  62.604 -53.405  1.00  0.00     0.165 HD
HETATM   17  C   UNL     1     -43.407  64.080 -51.876  1.00  0.00     0.088 A 
HETATM   18  C   UNL     1     -43.336  63.956 -50.508  1.00  0.00     0.019 A 
HETATM   19  C   UNL     1     -43.181  62.576 -50.219  1.00  0.00     0.036 A 
ENDBRANCH  11  14
ENDBRANCH   7  10
ENDBRANCH   4   6
BRANCH   3  20
HETATM   20  C   UNL     1     -42.447  56.480 -56.592  1.00  0.00    -0.002 A 
HETATM   21  C   UNL     1     -43.043  55.499 -57.397  1.00  0.00     0.050 A 
HETATM   22  C   UNL     1     -43.563  55.827 -58.652  1.00  0.00     0.069 A 
HETATM   23  C   UNL     1     -43.546  57.153 -59.084  1.00  0.00     0.037 A 
HETATM   24  C   UNL     1     -42.977  58.144 -58.288  1.00  0.00     0.004 A 
HETATM   25  C   UNL     1     -42.426  57.807 -57.052  1.00  0.00     0.014 A 
BRANCH  22  26
HETATM   26  O   UNL     1     -44.141  54.940 -59.521  1.00  0.00    -0.356 OA
HETATM   27  C   UNL     1     -44.729  55.517 -60.682  1.00  0.00     0.210 C 
ENDBRANCH  22  26
ENDBRANCH   3  20
BRANCH   1  28
HETATM   28  C   UNL     1     -40.622  53.682 -53.131  1.00  0.00     0.058 A 
HETATM   29  C   UNL     1     -40.561  53.594 -51.732  1.00  0.00     0.032 A 
HETATM   30  C   UNL     1     -40.126  52.417 -51.115  1.00  0.00     0.009 A 
HETATM   31  C   UNL     1     -39.738  51.314 -51.885  1.00  0.00    -0.062 A 
HETATM   32  C   UNL     1     -39.304  50.036 -51.230  1.00  0.00     0.048 C 
HETATM   33  C   UNL     1     -39.808  51.401 -53.279  1.00  0.00     0.009 A 
HETATM   34  C   UNL     1     -40.243  52.576 -53.903  1.00  0.00     0.032 A 
ENDBRANCH   1  28
TORSDOF 6
ENDMDL
MODEL 6
REMARK VINA RESULT:      -8.2      2.882      6.508
REMARK  6 active torsions:
REMARK  status: ('A' for Active; 'I' for Inactive)
REMARK    1  A    between atoms: C_5  and  N_6 
REMARK    2  A    between atoms: C_8  and  C_9 
REMARK    3  A    between atoms: C_11  and  O_12 
REMARK    4  A    between atoms: C_17  and  C_18 
REMARK       I    between atoms: C_18  and  N_19 
REMARK    5  A    between atoms: N_19  and  N_20 
REMARK       I    between atoms: N_20  and  C_21 
REMARK    6  A    between atoms: C_21  and  C_22 
ROOT
HETATM    1  N   UNL     1     -42.799  56.976 -54.724  1.00  0.00    -0.244 N 
HETATM    2  N   UNL     1     -41.946  56.168 -54.064  1.00  0.00    -0.166 NA
HETATM    3  C   UNL     1     -42.303  56.217 -52.770  1.00  0.00     0.105 A 
HETATM    4  C   UNL     1     -43.412  57.102 -52.583  1.00  0.00     0.082 A 
HETATM    5  C   UNL     1     -43.688  57.566 -53.860  1.00  0.00     0.138 A 
ENDROOT
BRANCH   4   6
HETATM    6  C   UNL     1     -44.106  57.493 -51.364  1.00  0.00     0.274 C 
HETATM    7  N   UNL     1     -44.019  58.840 -51.057  1.00  0.00    -0.263 N 
HETATM    8  H   UNL     1     -43.672  59.530 -51.717  1.00  0.00     0.190 HD
HETATM    9  O   UNL     1     -44.740  56.716 -50.653  1.00  0.00    -0.266 OA
BRANCH   7  10
HETATM   10  N   UNL     1     -44.803  59.348 -50.010  1.00  0.00    -0.262 N 
HETATM   11  C   UNL     1     -44.572  60.643 -49.594  1.00  0.00     0.286 C 
HETATM   12  O   UNL     1     -43.651  61.312 -50.067  1.00  0.00    -0.264 OA
HETATM   13  H   UNL     1     -45.604  58.795 -49.718  1.00  0.00     0.190 HD
BRANCH  11  14
HETATM   14  C   UNL     1     -45.473  61.156 -48.588  1.00  0.00     0.102 A 
HETATM   15  N   UNL     1     -45.585  60.551 -47.353  1.00  0.00    -0.361 N 
HETATM   16  H   UNL     1     -45.057  59.730 -47.079  1.00  0.00     0.165 HD
HETATM   17  C   UNL     1     -46.497  61.214 -46.579  1.00  0.00     0.088 A 
HETATM   18  C   UNL     1     -46.988  62.267 -47.316  1.00  0.00     0.019 A 
HETATM   19  C   UNL     1     -46.347  62.231 -48.580  1.00  0.00     0.036 A 
ENDBRANCH  11  14
ENDBRANCH   7  10
ENDBRANCH   4   6
BRANCH   3  20
HETATM   20  C   UNL     1     -41.557  55.402 -51.801  1.00  0.00    -0.002 A 
HETATM   21  C   UNL     1     -41.061  54.132 -52.129  1.00  0.00     0.050 A 
HETATM   22  C   UNL     1     -40.352  53.379 -51.189  1.00  0.00     0.069 A 
HETATM   23  C   UNL     1     -40.079  53.920 -49.932  1.00  0.00     0.037 A 
HETATM   24  C   UNL     1     -40.545  55.188 -49.597  1.00  0.00     0.004 A 
HETATM   25  C   UNL     1     -41.284  55.922 -50.525  1.00  0.00     0.014 A 
BRANCH  22  26
HETATM   26  O   UNL     1     -39.851  52.123 -51.403  1.00  0.00    -0.356 OA
HETATM   27  C   UNL     1     -39.756  51.728 -52.769  1.00  0.00     0.210 C 
ENDBRANCH  22  26
ENDBRANCH   3  20
BRANCH   1  28
HETATM   28  C   UNL     1     -42.715  57.135 -56.137  1.00  0.00     0.058 A 
HETATM   29  C   UNL     1     -42.992  56.041 -56.970  1.00  0.00     0.032 A 
HETATM   30  C   UNL     1     -42.927  56.176 -58.360  1.00  0.00     0.009 A 
HETATM   31  C   UNL     1     -42.576  57.401 -58.938  1.00  0.00    -0.062 A 
HETATM   32  C   UNL     1     -42.540  57.563 -60.429  1.00  0.00     0.048 C 
HETATM   33  C   UNL     1     -42.310  58.493 -58.105  1.00  0.00     0.009 A 
HETATM   34  C   UNL     1     -42.373  58.365 -56.714  1.00  0.00     0.032 A 
ENDBRANCH   1  28
TORSDOF 6
ENDMDL
MODEL 7
REMARK VINA RESULT:      -8.1      2.413      2.816
REMARK  6 active torsions:
REMARK  status: ('A' for Active; 'I' for Inactive)
REMARK    1  A    between atoms: C_5  and  N_6 
REMARK    2  A    between atoms: C_8  and  C_9 
REMARK    3  A    between atoms: C_11  and  O_12 
REMARK    4  A    between atoms: C_17  and  C_18 
REMARK       I    between atoms: C_18  and  N_19 
REMARK    5  A    between atoms: N_19  and  N_20 
REMARK       I    between atoms: N_20  and  C_21 
REMARK    6  A    between atoms: C_21  and  C_22 
ROOT
HETATM    1  N   UNL     1     -41.085  54.932 -53.743  1.00  0.00    -0.244 N 
HETATM    2  N   UNL     1     -41.589  54.935 -54.993  1.00  0.00    -0.166 NA
HETATM    3  C   UNL     1     -41.900  56.212 -55.271  1.00  0.00     0.105 A 
HETATM    4  C   UNL     1     -41.607  57.060 -54.157  1.00  0.00     0.082 A 
HETATM    5  C   UNL     1     -41.093  56.194 -53.203  1.00  0.00     0.138 A 
ENDROOT
BRANCH   4   6
HETATM    6  C   UNL     1     -41.810  58.492 -53.987  1.00  0.00     0.274 C 
HETATM    7  N   UNL     1     -43.011  58.839 -53.394  1.00  0.00    -0.263 N 
HETATM    8  H   UNL     1     -43.613  58.157 -52.939  1.00  0.00     0.190 HD
HETATM    9  O   UNL     1     -40.992  59.348 -54.320  1.00  0.00    -0.266 OA
BRANCH   7  10
HETATM   10  N   UNL     1     -43.221  60.174 -53.019  1.00  0.00    -0.262 N 
HETATM   11  C   UNL     1     -43.012  60.520 -51.700  1.00  0.00     0.286 C 
HETATM   12  O   UNL     1     -42.727  59.670 -50.853  1.00  0.00    -0.264 OA
HETATM   13  H   UNL     1     -43.364  60.850 -53.764  1.00  0.00     0.190 HD
BRANCH  11  14
HETATM   14  C   UNL     1     -43.138  61.924 -51.385  1.00  0.00     0.102 A 
HETATM   15  N   UNL     1     -43.264  62.871 -52.380  1.00  0.00    -0.361 N 
HETATM   16  H   UNL     1     -43.275  62.650 -53.369  1.00  0.00     0.165 HD
HETATM   17  C   UNL     1     -43.366  64.122 -51.836  1.00  0.00     0.088 A 
HETATM   18  C   UNL     1     -43.308  63.992 -50.468  1.00  0.00     0.019 A 
HETATM   19  C   UNL     1     -43.163  62.611 -50.182  1.00  0.00     0.036 A 
ENDBRANCH  11  14
ENDBRANCH   7  10
ENDBRANCH   4   6
BRANCH   3  20
HETATM   20  C   UNL     1     -42.453  56.531 -56.595  1.00  0.00    -0.002 A 
HETATM   21  C   UNL     1     -42.426  57.834 -57.113  1.00  0.00     0.050 A 
HETATM   22  C   UNL     1     -42.957  58.110 -58.376  1.00  0.00     0.069 A 
HETATM   23  C   UNL     1     -43.462  57.070 -59.157  1.00  0.00     0.037 A 
HETATM   24  C   UNL     1     -43.476  55.767 -58.668  1.00  0.00     0.004 A 
HETATM   25  C   UNL     1     -42.979  55.501 -57.392  1.00  0.00     0.014 A 
BRANCH  22  26
HETATM   26  O   UNL     1     -43.001  59.349 -58.958  1.00  0.00    -0.356 OA
HETATM   27  C   UNL     1     -41.913  60.211 -58.641  1.00  0.00     0.210 C 
ENDBRANCH  22  26
ENDBRANCH   3  20
BRANCH   1  28
HETATM   28  C   UNL     1     -40.627  53.725 -53.141  1.00  0.00     0.058 A 
HETATM   29  C   UNL     1     -40.583  53.627 -51.743  1.00  0.00     0.032 A 
HETATM   30  C   UNL     1     -40.147  52.448 -51.129  1.00  0.00     0.009 A 
HETATM   31  C   UNL     1     -39.742  51.354 -51.902  1.00  0.00    -0.062 A 
HETATM   32  C   UNL     1     -39.308  50.075 -51.251  1.00  0.00     0.048 C 
HETATM   33  C   UNL     1     -39.795  51.451 -53.296  1.00  0.00     0.009 A 
HETATM   34  C   UNL     1     -40.230  52.627 -53.917  1.00  0.00     0.032 A 
ENDBRANCH   1  28
TORSDOF 6
ENDMDL
MODEL 8
REMARK VINA RESULT:      -8.0      3.168      3.776
REMARK  6 active torsions:
REMARK  status: ('A' for Active; 'I' for Inactive)
REMARK    1  A    between atoms: C_5  and  N_6 
REMARK    2  A    between atoms: C_8  and  C_9 
REMARK    3  A    between atoms: C_11  and  O_12 
REMARK    4  A    between atoms: C_17  and  C_18 
REMARK       I    between atoms: C_18  and  N_19 
REMARK    5  A    between atoms: N_19  and  N_20 
REMARK       I    between atoms: N_20  and  C_21 
REMARK    6  A    between atoms: C_21  and  C_22 
ROOT
HETATM    1  N   UNL     1     -41.435  55.902 -53.137  1.00  0.00    -0.244 N 
HETATM    2  N   UNL     1     -41.958  56.574 -54.182  1.00  0.00    -0.166 NA
HETATM    3  C   UNL     1     -42.309  57.784 -53.716  1.00  0.00     0.105 A 
HETATM    4  C   UNL     1     -42.022  57.892 -52.319  1.00  0.00     0.082 A 
HETATM    5  C   UNL     1     -41.470  56.662 -51.995  1.00  0.00     0.138 A 
ENDROOT
BRANCH   4   6
HETATM    6  C   UNL     1     -42.262  58.991 -51.393  1.00  0.00     0.274 C 
HETATM    7  N   UNL     1     -43.573  59.111 -50.967  1.00  0.00    -0.263 N 
HETATM    8  H   UNL     1     -44.268  58.387 -51.127  1.00  0.00     0.190 HD
HETATM    9  O   UNL     1     -41.388  59.757 -50.992  1.00  0.00    -0.266 OA
BRANCH   7  10
HETATM   10  N   UNL     1     -43.871  60.015 -49.937  1.00  0.00    -0.262 N 
HETATM   11  C   UNL     1     -45.198  60.267 -49.656  1.00  0.00     0.286 C 
HETATM   12  O   UNL     1     -46.100  59.779 -50.339  1.00  0.00    -0.264 OA
HETATM   13  H   UNL     1     -43.101  60.319 -49.348  1.00  0.00     0.190 HD
BRANCH  11  14
HETATM   14  C   UNL     1     -45.454  61.123 -48.521  1.00  0.00     0.102 A 
HETATM   15  N   UNL     1     -44.745  60.982 -47.346  1.00  0.00    -0.361 N 
HETATM   16  H   UNL     1     -44.018  60.289 -47.207  1.00  0.00     0.165 HD
HETATM   17  C   UNL     1     -45.166  61.899 -46.423  1.00  0.00     0.088 A 
HETATM   18  C   UNL     1     -46.162  62.651 -47.001  1.00  0.00     0.019 A 
HETATM   19  C   UNL     1     -46.347  62.163 -48.319  1.00  0.00     0.036 A 
ENDBRANCH  11  14
ENDBRANCH   7  10
ENDBRANCH   4   6
BRANCH   3  20
HETATM   20  C   UNL     1     -42.891  58.758 -54.651  1.00  0.00    -0.002 A 
HETATM   21  C   UNL     1     -44.193  58.614 -55.151  1.00  0.00     0.050 A 
HETATM   22  C   UNL     1     -44.724  59.557 -56.036  1.00  0.00     0.069 A 
HETATM   23  C   UNL     1     -43.976  60.684 -56.378  1.00  0.00     0.037 A 
HETATM   24  C   UNL     1     -42.690  60.854 -55.873  1.00  0.00     0.004 A 
HETATM   25  C   UNL     1     -42.149  59.892 -55.019  1.00  0.00     0.014 A 
BRANCH  22  26
HETATM   26  O   UNL     1     -45.971  59.494 -56.599  1.00  0.00    -0.356 OA
HETATM   27  C   UNL     1     -46.322  60.596 -57.429  1.00  0.00     0.210 C 
ENDBRANCH  22  26
ENDBRANCH   3  20
BRANCH   1  28
HETATM   28  C   UNL     1     -40.934  54.578 -53.294  1.00  0.00     0.058 A 
HETATM   29  C   UNL     1     -40.674  53.802 -52.155  1.00  0.00     0.032 A 
HETATM   30  C   UNL     1     -40.192  52.496 -52.284  1.00  0.00     0.009 A 
HETATM   31  C   UNL     1     -39.957  51.948 -53.549  1.00  0.00    -0.062 A 
HETATM   32  C   UNL     1     -39.475  50.535 -53.696  1.00  0.00     0.048 C 
HETATM   33  C   UNL     1     -40.226  52.721 -54.684  1.00  0.00     0.009 A 
HETATM   34  C   UNL     1     -40.708  54.029 -54.562  1.00  0.00     0.032 A 
ENDBRANCH   1  28
TORSDOF 6
ENDMDL
MODEL 9
REMARK VINA RESULT:      -8.0      3.153      6.397
REMARK  6 active torsions:
REMARK  status: ('A' for Active; 'I' for Inactive)
REMARK    1  A    between atoms: C_5  and  N_6 
REMARK    2  A    between atoms: C_8  and  C_9 
REMARK    3  A    between atoms: C_11  and  O_12 
REMARK    4  A    between atoms: C_17  and  C_18 
REMARK       I    between atoms: C_18  and  N_19 
REMARK    5  A    between atoms: N_19  and  N_20 
REMARK       I    between atoms: N_20  and  C_21 
REMARK    6  A    between atoms: C_21  and  C_22 
ROOT
HETATM    1  N   UNL     1     -41.111  54.322 -53.599  1.00  0.00    -0.244 N 
HETATM    2  N   UNL     1     -41.086  55.277 -52.649  1.00  0.00    -0.166 NA
HETATM    3  C   UNL     1     -41.631  56.373 -53.201  1.00  0.00     0.105 A 
HETATM    4  C   UNL     1     -42.004  56.125 -54.560  1.00  0.00     0.082 A 
HETATM    5  C   UNL     1     -41.646  54.802 -54.768  1.00  0.00     0.138 A 
ENDROOT
BRANCH   4   6
HETATM    6  C   UNL     1     -42.589  57.018 -55.551  1.00  0.00     0.274 C 
HETATM    7  N   UNL     1     -43.624  56.465 -56.286  1.00  0.00    -0.263 N 
HETATM    8  H   UNL     1     -44.068  55.588 -56.030  1.00  0.00     0.190 HD
HETATM    9  O   UNL     1     -42.226  58.178 -55.733  1.00  0.00    -0.266 OA
BRANCH   7  10
HETATM   10  N   UNL     1     -44.373  57.296 -57.132  1.00  0.00    -0.262 N 
HETATM   11  C   UNL     1     -44.540  56.907 -58.445  1.00  0.00     0.286 C 
HETATM   12  O   UNL     1     -43.982  55.902 -58.890  1.00  0.00    -0.264 OA
HETATM   13  H   UNL     1     -44.885  58.060 -56.700  1.00  0.00     0.190 HD
BRANCH  11  14
HETATM   14  C   UNL     1     -45.405  57.740 -59.248  1.00  0.00     0.102 A 
HETATM   15  N   UNL     1     -46.282  57.190 -60.160  1.00  0.00    -0.361 N 
HETATM   16  H   UNL     1     -46.374  56.193 -60.321  1.00  0.00     0.165 HD
HETATM   17  C   UNL     1     -46.987  58.174 -60.795  1.00  0.00     0.088 A 
HETATM   18  C   UNL     1     -46.569  59.384 -60.292  1.00  0.00     0.019 A 
HETATM   19  C   UNL     1     -45.572  59.114 -59.320  1.00  0.00     0.036 A 
ENDBRANCH  11  14
ENDBRANCH   7  10
ENDBRANCH   4   6
BRANCH   3  20
HETATM   20  C   UNL     1     -41.764  57.585 -52.380  1.00  0.00    -0.002 A 
HETATM   21  C   UNL     1     -40.669  58.144 -51.705  1.00  0.00     0.050 A 
HETATM   22  C   UNL     1     -40.821  59.299 -50.933  1.00  0.00     0.069 A 
HETATM   23  C   UNL     1     -42.060  59.939 -50.881  1.00  0.00     0.037 A 
HETATM   24  C   UNL     1     -43.153  59.410 -51.563  1.00  0.00     0.004 A 
HETATM   25  C   UNL     1     -43.005  58.237 -52.303  1.00  0.00     0.014 A 
BRANCH  22  26
HETATM   26  O   UNL     1     -39.823  59.905 -50.218  1.00  0.00    -0.356 OA
HETATM   27  C   UNL     1     -38.498  59.530 -50.581  1.00  0.00     0.210 C 
ENDBRANCH  22  26
ENDBRANCH   3  20
BRANCH   1  28
HETATM   28  C   UNL     1     -40.624  53.010 -53.333  1.00  0.00     0.058 A 
HETATM   29  C   UNL     1     -40.679  52.037 -54.341  1.00  0.00     0.032 A 
HETATM   30  C   UNL     1     -40.197  50.746 -54.107  1.00  0.00     0.009 A 
HETATM   31  C   UNL     1     -39.661  50.405 -52.861  1.00  0.00    -0.062 A 
HETATM   32  C   UNL     1     -39.108  49.032 -52.613  1.00  0.00     0.048 C 
HETATM   33  C   UNL     1     -39.599  51.379 -51.859  1.00  0.00     0.009 A 
HETATM   34  C   UNL     1     -40.079  52.673 -52.087  1.00  0.00     0.032 A 
ENDBRANCH   1  28
TORSDOF 6
ENDMDL
MODEL 10
REMARK VINA RESULT:      -8.0      3.978      7.355
REMARK  6 active torsions:
REMARK  status: ('A' for Active; 'I' for Inactive)
REMARK    1  A    between atoms: C_5  and  N_6 
REMARK    2  A    between atoms: C_8  and  C_9 
REMARK    3  A    between atoms: C_11  and  O_12 
REMARK    4  A    between atoms: C_17  and  C_18 
REMARK       I    between atoms: C_18  and  N_19 
REMARK    5  A    between atoms: N_19  and  N_20 
REMARK       I    between atoms: N_20  and  C_21 
REMARK    6  A    between atoms: C_21  and  C_22 
ROOT
HETATM    1  N   UNL     1     -42.223  58.644 -54.524  1.00  0.00    -0.244 N 
HETATM    2  N   UNL     1     -42.172  57.442 -53.915  1.00  0.00    -0.166 NA
HETATM    3  C   UNL     1     -42.208  57.686 -52.595  1.00  0.00     0.105 A 
HETATM    4  C   UNL     1     -42.264  59.093 -52.340  1.00  0.00     0.082 A 
HETATM    5  C   UNL     1     -42.266  59.662 -53.605  1.00  0.00     0.138 A 
ENDROOT
BRANCH   4   6
HETATM    6  C   UNL     1     -42.280  59.819 -51.077  1.00  0.00     0.274 C 
HETATM    7  N   UNL     1     -43.543  60.118 -50.598  1.00  0.00    -0.263 N 
HETATM    8  H   UNL     1     -44.387  59.703 -50.985  1.00  0.00     0.190 HD
HETATM    9  O   UNL     1     -41.269  60.141 -50.456  1.00  0.00    -0.266 OA
BRANCH   7  10
HETATM   10  N   UNL     1     -43.670  60.648 -49.306  1.00  0.00    -0.262 N 
HETATM   11  C   UNL     1     -44.936  60.955 -48.850  1.00  0.00     0.286 C 
HETATM   12  O   UNL     1     -45.922  60.846 -49.580  1.00  0.00    -0.264 OA
HETATM   13  H   UNL     1     -42.844  60.633 -48.714  1.00  0.00     0.190 HD
BRANCH  11  14
HETATM   14  C   UNL     1     -45.025  61.397 -47.478  1.00  0.00     0.102 A 
HETATM   15  N   UNL     1     -44.564  60.612 -46.442  1.00  0.00    -0.361 N 
HETATM   16  H   UNL     1     -44.144  59.698 -46.572  1.00  0.00     0.165 HD
HETATM   17  C   UNL     1     -44.758  61.242 -45.244  1.00  0.00     0.088 A 
HETATM   18  C   UNL     1     -45.353  62.455 -45.498  1.00  0.00     0.019 A 
HETATM   19  C   UNL     1     -45.523  62.555 -46.902  1.00  0.00     0.036 A 
ENDBRANCH  11  14
ENDBRANCH   7  10
ENDBRANCH   4   6
BRANCH   3  20
HETATM   20  C   UNL     1     -42.193  56.547 -51.666  1.00  0.00    -0.002 A 
HETATM   21  C   UNL     1     -41.057  56.227 -50.909  1.00  0.00     0.050 A 
HETATM   22  C   UNL     1     -41.070  55.139 -50.031  1.00  0.00     0.069 A 
HETATM   23  C   UNL     1     -42.242  54.402 -49.858  1.00  0.00     0.037 A 
HETATM   24  C   UNL     1     -43.385  54.720 -50.586  1.00  0.00     0.004 A 
HETATM   25  C   UNL     1     -43.358  55.783 -51.489  1.00  0.00     0.014 A 
BRANCH  22  26
HETATM   26  O   UNL     1     -40.009  54.730 -49.268  1.00  0.00    -0.356 OA
HETATM   27  C   UNL     1     -40.347  54.018 -48.082  1.00  0.00     0.210 C 
ENDBRANCH  22  26
ENDBRANCH   3  20
BRANCH   1  28
HETATM   28  C   UNL     1     -42.230  58.746 -55.944  1.00  0.00     0.058 A 
HETATM   29  C   UNL     1     -41.979  59.987 -56.546  1.00  0.00     0.032 A 
HETATM   30  C   UNL     1     -41.969  60.110 -57.939  1.00  0.00     0.009 A 
HETATM   31  C   UNL     1     -42.216  58.997 -58.751  1.00  0.00    -0.062 A 
HETATM   32  C   UNL     1     -42.170  59.113 -60.246  1.00  0.00     0.048 C 
HETATM   33  C   UNL     1     -42.456  57.758 -58.149  1.00  0.00     0.009 A 
HETATM   34  C   UNL     1     -42.467  57.628 -56.755  1.00  0.00     0.032 A 
ENDBRANCH   1  28
TORSDOF 6
ENDMDL
