MODEL 1
REMARK VINA RESULT:      -8.2      0.000      0.000
REMARK  2 active torsions:
REMARK  status: ('A' for Active; 'I' for Inactive)
REMARK    1  A    between atoms: C_9  and  C_11 
REMARK    2  A    between atoms: C_9  and  O_10 
ROOT
HETATM    1  C   UNL     1     -39.505  59.139 -50.877  1.00  0.00     0.048 C 
HETATM    2  C   UNL     1     -40.762  58.318 -50.924  1.00  0.00    -0.061 A 
HETATM    3  C   UNL     1     -40.744  56.965 -50.552  1.00  0.00     0.020 A 
HETATM    4  C   UNL     1     -41.922  56.236 -50.637  1.00  0.00     0.018 A 
HETATM    5  C   UNL     1     -43.099  56.848 -51.067  1.00  0.00     0.045 A 
HETATM    6  N   UNL     1     -44.151  55.946 -51.054  1.00  0.00    -0.323 N 
HETATM    7  C   UNL     1     -43.737  54.683 -50.623  1.00  0.00     0.266 A 
HETATM    8  O   UNL     1     -44.483  53.725 -50.497  1.00  0.00    -0.269 OA
HETATM    9  C   UNL     1     -42.195  54.781 -50.304  1.00  0.00     0.198 A 
HETATM   10  C   UNL     1     -43.153  58.175 -51.435  1.00  0.00     0.031 A 
HETATM   11  C   UNL     1     -41.967  58.911 -51.364  1.00  0.00     0.009 A 
HETATM   12  H   UNL     1     -45.105  56.143 -51.315  1.00  0.00     0.169 HD
ENDROOT
BRANCH   9  13
HETATM   13  C   UNL     1     -41.350  53.974 -51.259  1.00  0.00     0.018 A 
HETATM   14  C   UNL     1     -41.214  54.167 -52.683  1.00  0.00     0.002 A 
HETATM   15  C   UNL     1     -40.372  53.165 -53.170  1.00  0.00     0.043 A 
HETATM   16  C   UNL     1     -41.740  55.094 -53.609  1.00  0.00     0.014 A 
HETATM   17  C   UNL     1     -40.039  53.041 -54.524  1.00  0.00     0.030 A 
HETATM   18  N   UNL     1     -39.985  52.404 -52.096  1.00  0.00    -0.365 N 
HETATM   19  C   UNL     1     -40.577  53.972 -55.416  1.00  0.00     0.002 A 
HETATM   20  C   UNL     1     -41.416  54.988 -54.966  1.00  0.00     0.001 A 
HETATM   21  H   UNL     1     -39.364  51.608 -52.153  1.00  0.00     0.165 HD
HETATM   22  C   UNL     1     -40.565  52.871 -50.950  1.00  0.00     0.100 A 
ENDBRANCH   9  13
BRANCH   9  23
HETATM   23  O   UNL     1     -41.921  54.539 -48.932  1.00  0.00    -0.371 OA
HETATM   24  H   UNL     1     -42.663  54.916 -48.433  1.00  0.00     0.212 HD
ENDBRANCH   9  23
TORSDOF 2
ENDMDL
MODEL 2
REMARK VINA RESULT:      -8.0      1.894      2.422
REMARK  2 active torsions:
REMARK  status: ('A' for Active; 'I' for Inactive)
REMARK    1  A    between atoms: C_9  and  C_11 
REMARK    2  A    between atoms: C_9  and  O_10 
ROOT
HETATM    1  C   UNL     1     -39.897  59.438 -50.578  1.00  0.00     0.048 C 
HETATM    2  C   UNL     1     -40.652  58.670 -51.625  1.00  0.00    -0.061 A 
HETATM    3  C   UNL     1     -41.379  57.521 -51.278  1.00  0.00     0.020 A 
HETATM    4  C   UNL     1     -42.040  56.824 -52.281  1.00  0.00     0.018 A 
HETATM    5  C   UNL     1     -41.992  57.275 -53.600  1.00  0.00     0.045 A 
HETATM    6  N   UNL     1     -42.735  56.447 -54.425  1.00  0.00    -0.323 N 
HETATM    7  C   UNL     1     -43.314  55.396 -53.710  1.00  0.00     0.266 A 
HETATM    8  O   UNL     1     -44.039  54.548 -54.206  1.00  0.00    -0.269 OA
HETATM    9  C   UNL     1     -42.891  55.571 -52.200  1.00  0.00     0.198 A 
HETATM   10  C   UNL     1     -41.292  58.401 -53.973  1.00  0.00     0.031 A 
HETATM   11  C   UNL     1     -40.613  59.100 -52.970  1.00  0.00     0.009 A 
HETATM   12  H   UNL     1     -42.863  56.559 -55.419  1.00  0.00     0.169 HD
ENDROOT
BRANCH   9  13
HETATM   13  C   UNL     1     -41.968  54.476 -51.723  1.00  0.00     0.018 A 
HETATM   14  C   UNL     1     -41.146  53.611 -52.534  1.00  0.00     0.002 A 
HETATM   15  C   UNL     1     -40.495  52.718 -51.680  1.00  0.00     0.043 A 
HETATM   16  C   UNL     1     -40.903  53.494 -53.920  1.00  0.00     0.014 A 
HETATM   17  C   UNL     1     -39.628  51.719 -52.138  1.00  0.00     0.030 A 
HETATM   18  N   UNL     1     -40.877  53.032 -50.400  1.00  0.00    -0.365 N 
HETATM   19  C   UNL     1     -39.410  51.627 -53.516  1.00  0.00     0.002 A 
HETATM   20  C   UNL     1     -40.037  52.503 -54.397  1.00  0.00     0.001 A 
HETATM   21  H   UNL     1     -40.551  52.551 -49.572  1.00  0.00     0.165 HD
HETATM   22  C   UNL     1     -41.759  54.075 -50.409  1.00  0.00     0.100 A 
ENDBRANCH   9  13
BRANCH   9  23
HETATM   23  O   UNL     1     -44.011  55.800 -51.359  1.00  0.00    -0.371 OA
HETATM   24  H   UNL     1     -43.753  55.505 -50.471  1.00  0.00     0.212 HD
ENDBRANCH   9  23
TORSDOF 2
ENDMDL
MODEL 3
REMARK VINA RESULT:      -7.9      1.213      5.180
REMARK  2 active torsions:
REMARK  status: ('A' for Active; 'I' for Inactive)
REMARK    1  A    between atoms: C_9  and  C_11 
REMARK    2  A    between atoms: C_9  and  O_10 
ROOT
HETATM    1  C   UNL     1     -43.019  54.665 -56.304  1.00  0.00     0.048 C 
HETATM    2  C   UNL     1     -42.439  54.442 -54.936  1.00  0.00    -0.061 A 
HETATM    3  C   UNL     1     -43.163  54.800 -53.789  1.00  0.00     0.020 A 
HETATM    4  C   UNL     1     -42.579  54.603 -52.545  1.00  0.00     0.018 A 
HETATM    5  C   UNL     1     -41.306  54.041 -52.447  1.00  0.00     0.045 A 
HETATM    6  N   UNL     1     -40.930  53.915 -51.119  1.00  0.00    -0.323 N 
HETATM    7  C   UNL     1     -41.923  54.390 -50.259  1.00  0.00     0.266 A 
HETATM    8  O   UNL     1     -41.843  54.361 -49.040  1.00  0.00    -0.269 OA
HETATM    9  C   UNL     1     -43.119  54.889 -51.157  1.00  0.00     0.198 A 
HETATM   10  C   UNL     1     -40.571  53.674 -53.553  1.00  0.00     0.031 A 
HETATM   11  C   UNL     1     -41.148  53.882 -54.808  1.00  0.00     0.009 A 
HETATM   12  H   UNL     1     -40.059  53.534 -50.783  1.00  0.00     0.169 HD
ENDROOT
BRANCH   9  13
HETATM   13  C   UNL     1     -43.312  56.385 -51.091  1.00  0.00     0.018 A 
HETATM   14  C   UNL     1     -42.285  57.396 -51.006  1.00  0.00     0.002 A 
HETATM   15  C   UNL     1     -42.917  58.638 -50.918  1.00  0.00     0.043 A 
HETATM   16  C   UNL     1     -40.875  57.370 -50.983  1.00  0.00     0.014 A 
HETATM   17  C   UNL     1     -42.215  59.844 -50.802  1.00  0.00     0.030 A 
HETATM   18  N   UNL     1     -44.269  58.409 -50.971  1.00  0.00    -0.365 N 
HETATM   19  C   UNL     1     -40.819  59.785 -50.779  1.00  0.00     0.002 A 
HETATM   20  C   UNL     1     -40.155  58.566 -50.871  1.00  0.00     0.001 A 
HETATM   21  H   UNL     1     -44.973  59.134 -50.935  1.00  0.00     0.165 HD
HETATM   22  C   UNL     1     -44.521  57.070 -51.068  1.00  0.00     0.100 A 
ENDBRANCH   9  13
BRANCH   9  23
HETATM   23  O   UNL     1     -44.302  54.136 -50.932  1.00  0.00    -0.371 OA
HETATM   24  H   UNL     1     -44.306  53.427 -51.595  1.00  0.00     0.212 HD
ENDBRANCH   9  23
TORSDOF 2
ENDMDL
MODEL 4
REMARK VINA RESULT:      -7.8      1.292      2.030
REMARK  2 active torsions:
REMARK  status: ('A' for Active; 'I' for Inactive)
REMARK    1  A    between atoms: C_9  and  C_11 
REMARK    2  A    between atoms: C_9  and  O_10 
ROOT
HETATM    1  C   UNL     1     -39.647  59.157 -52.296  1.00  0.00     0.048 C 
HETATM    2  C   UNL     1     -40.909  58.462 -51.873  1.00  0.00    -0.061 A 
HETATM    3  C   UNL     1     -40.912  57.081 -51.625  1.00  0.00     0.020 A 
HETATM    4  C   UNL     1     -42.107  56.472 -51.263  1.00  0.00     0.018 A 
HETATM    5  C   UNL     1     -43.271  57.230 -51.133  1.00  0.00     0.045 A 
HETATM    6  N   UNL     1     -44.333  56.429 -50.744  1.00  0.00    -0.323 N 
HETATM    7  C   UNL     1     -43.943  55.096 -50.601  1.00  0.00     0.266 A 
HETATM    8  O   UNL     1     -44.689  54.200 -50.238  1.00  0.00    -0.269 OA
HETATM    9  C   UNL     1     -42.404  55.021 -50.938  1.00  0.00     0.198 A 
HETATM   10  C   UNL     1     -43.301  58.588 -51.364  1.00  0.00     0.031 A 
HETATM   11  C   UNL     1     -42.104  59.204 -51.741  1.00  0.00     0.009 A 
HETATM   12  H   UNL     1     -45.279  56.737 -50.578  1.00  0.00     0.169 HD
ENDROOT
BRANCH   9  13
HETATM   13  C   UNL     1     -42.121  54.249 -52.204  1.00  0.00     0.018 A 
HETATM   14  C   UNL     1     -41.119  53.229 -52.400  1.00  0.00     0.002 A 
HETATM   15  C   UNL     1     -41.182  52.822 -53.735  1.00  0.00     0.043 A 
HETATM   16  C   UNL     1     -40.154  52.620 -51.570  1.00  0.00     0.014 A 
HETATM   17  C   UNL     1     -40.330  51.853 -54.277  1.00  0.00     0.030 A 
HETATM   18  N   UNL     1     -42.190  53.539 -54.329  1.00  0.00    -0.365 N 
HETATM   19  C   UNL     1     -39.383  51.270 -53.430  1.00  0.00     0.002 A 
HETATM   20  C   UNL     1     -39.296  51.646 -52.093  1.00  0.00     0.001 A 
HETATM   21  H   UNL     1     -42.464  53.443 -55.298  1.00  0.00     0.165 HD
HETATM   22  C   UNL     1     -42.756  54.398 -53.430  1.00  0.00     0.100 A 
ENDBRANCH   9  13
BRANCH   9  23
HETATM   23  O   UNL     1     -41.635  54.609 -49.817  1.00  0.00    -0.371 OA
HETATM   24  H   UNL     1     -42.050  53.798 -49.483  1.00  0.00     0.212 HD
ENDBRANCH   9  23
TORSDOF 2
ENDMDL
MODEL 5
REMARK VINA RESULT:      -7.6      1.497      5.165
REMARK  2 active torsions:
REMARK  status: ('A' for Active; 'I' for Inactive)
REMARK    1  A    between atoms: C_9  and  C_11 
REMARK    2  A    between atoms: C_9  and  O_10 
ROOT
HETATM    1  C   UNL     1     -42.904  54.291 -55.792  1.00  0.00     0.048 C 
HETATM    2  C   UNL     1     -42.314  54.007 -54.441  1.00  0.00    -0.061 A 
HETATM    3  C   UNL     1     -42.802  54.661 -53.299  1.00  0.00     0.020 A 
HETATM    4  C   UNL     1     -42.209  54.390 -52.073  1.00  0.00     0.018 A 
HETATM    5  C   UNL     1     -41.163  53.471 -51.985  1.00  0.00     0.045 A 
HETATM    6  N   UNL     1     -40.740  53.340 -50.672  1.00  0.00    -0.323 N 
HETATM    7  C   UNL     1     -41.471  54.164 -49.813  1.00  0.00     0.266 A 
HETATM    8  O   UNL     1     -41.308  54.208 -48.603  1.00  0.00    -0.269 OA
HETATM    9  C   UNL     1     -42.525  54.938 -50.694  1.00  0.00     0.198 A 
HETATM   10  C   UNL     1     -40.664  52.809 -53.084  1.00  0.00     0.031 A 
HETATM   11  C   UNL     1     -41.248  53.087 -54.324  1.00  0.00     0.009 A 
HETATM   12  H   UNL     1     -40.002  52.735 -50.344  1.00  0.00     0.169 HD
ENDROOT
BRANCH   9  13
HETATM   13  C   UNL     1     -42.249  56.420 -50.767  1.00  0.00     0.018 A 
HETATM   14  C   UNL     1     -43.170  57.464 -51.149  1.00  0.00     0.002 A 
HETATM   15  C   UNL     1     -42.476  58.675 -51.120  1.00  0.00     0.043 A 
HETATM   16  C   UNL     1     -44.528  57.491 -51.529  1.00  0.00     0.014 A 
HETATM   17  C   UNL     1     -43.065  59.900 -51.457  1.00  0.00     0.030 A 
HETATM   18  N   UNL     1     -41.194  58.398 -50.716  1.00  0.00    -0.365 N 
HETATM   19  C   UNL     1     -44.411  59.893 -51.833  1.00  0.00     0.002 A 
HETATM   20  C   UNL     1     -45.136  58.706 -51.867  1.00  0.00     0.001 A 
HETATM   21  H   UNL     1     -40.469  59.093 -50.599  1.00  0.00     0.165 HD
HETATM   22  C   UNL     1     -41.041  57.057 -50.507  1.00  0.00     0.100 A 
ENDBRANCH   9  13
BRANCH   9  23
HETATM   23  O   UNL     1     -43.859  54.609 -50.337  1.00  0.00    -0.371 OA
HETATM   24  H   UNL     1     -43.814  53.766 -49.856  1.00  0.00     0.212 HD
ENDBRANCH   9  23
TORSDOF 2
ENDMDL
MODEL 6
REMARK VINA RESULT:      -7.6      3.093      5.222
REMARK  2 active torsions:
REMARK  status: ('A' for Active; 'I' for Inactive)
REMARK    1  A    between atoms: C_9  and  C_11 
REMARK    2  A    between atoms: C_9  and  O_10 
ROOT
HETATM    1  C   UNL     1     -40.017  52.232 -54.521  1.00  0.00     0.048 C 
HETATM    2  C   UNL     1     -40.804  53.271 -53.774  1.00  0.00    -0.061 A 
HETATM    3  C   UNL     1     -41.828  53.985 -54.414  1.00  0.00     0.020 A 
HETATM    4  C   UNL     1     -42.512  54.956 -53.695  1.00  0.00     0.018 A 
HETATM    5  C   UNL     1     -42.194  55.196 -52.358  1.00  0.00     0.045 A 
HETATM    6  N   UNL     1     -43.011  56.184 -51.832  1.00  0.00    -0.323 N 
HETATM    7  C   UNL     1     -43.913  56.663 -52.785  1.00  0.00     0.266 A 
HETATM    8  O   UNL     1     -44.758  57.515 -52.559  1.00  0.00    -0.269 OA
HETATM    9  C   UNL     1     -43.648  55.866 -54.121  1.00  0.00     0.198 A 
HETATM   10  C   UNL     1     -41.198  54.509 -51.699  1.00  0.00     0.031 A 
HETATM   11  C   UNL     1     -40.497  53.540 -52.421  1.00  0.00     0.009 A 
HETATM   12  H   UNL     1     -42.984  56.535 -50.887  1.00  0.00     0.169 HD
ENDROOT
BRANCH   9  13
HETATM   13  C   UNL     1     -43.088  56.738 -55.218  1.00  0.00     0.018 A 
HETATM   14  C   UNL     1     -43.060  56.454 -56.633  1.00  0.00     0.002 A 
HETATM   15  C   UNL     1     -42.408  57.513 -57.267  1.00  0.00     0.043 A 
HETATM   16  C   UNL     1     -43.518  55.386 -57.434  1.00  0.00     0.014 A 
HETATM   17  C   UNL     1     -42.187  57.554 -58.649  1.00  0.00     0.030 A 
HETATM   18  N   UNL     1     -42.070  58.421 -56.295  1.00  0.00    -0.365 N 
HETATM   19  C   UNL     1     -42.649  56.480 -59.415  1.00  0.00     0.002 A 
HETATM   20  C   UNL     1     -43.309  55.410 -58.818  1.00  0.00     0.001 A 
HETATM   21  H   UNL     1     -41.592  59.294 -56.471  1.00  0.00     0.165 HD
HETATM   22  C   UNL     1     -42.464  57.970 -55.067  1.00  0.00     0.100 A 
ENDBRANCH   9  13
BRANCH   9  23
HETATM   23  O   UNL     1     -44.772  55.090 -54.507  1.00  0.00    -0.371 OA
HETATM   24  H   UNL     1     -44.675  54.920 -55.457  1.00  0.00     0.212 HD
ENDBRANCH   9  23
TORSDOF 2
ENDMDL
MODEL 7
REMARK VINA RESULT:      -7.4     15.140     16.693
REMARK  2 active torsions:
REMARK  status: ('A' for Active; 'I' for Inactive)
REMARK    1  A    between atoms: C_9  and  C_11 
REMARK    2  A    between atoms: C_9  and  O_10 
ROOT
HETATM    1  C   UNL     1     -39.223  41.148 -52.822  1.00  0.00     0.048 C 
HETATM    2  C   UNL     1     -37.747  40.883 -52.909  1.00  0.00    -0.061 A 
HETATM    3  C   UNL     1     -37.027  41.237 -54.060  1.00  0.00     0.020 A 
HETATM    4  C   UNL     1     -35.669  40.949 -54.111  1.00  0.00     0.018 A 
HETATM    5  C   UNL     1     -35.039  40.339 -53.026  1.00  0.00     0.045 A 
HETATM    6  N   UNL     1     -33.688  40.167 -53.281  1.00  0.00    -0.323 N 
HETATM    7  C   UNL     1     -33.342  40.643 -54.547  1.00  0.00     0.266 A 
HETATM    8  O   UNL     1     -32.205  40.633 -54.995  1.00  0.00    -0.269 OA
HETATM    9  C   UNL     1     -34.656  41.214 -55.207  1.00  0.00     0.198 A 
HETATM   10  C   UNL     1     -35.715  39.984 -51.879  1.00  0.00     0.031 A 
HETATM   11  C   UNL     1     -37.085  40.259 -51.828  1.00  0.00     0.009 A 
HETATM   12  H   UNL     1     -33.014  39.754 -52.655  1.00  0.00     0.169 HD
ENDROOT
BRANCH   9  13
HETATM   13  C   UNL     1     -35.112  40.400 -56.395  1.00  0.00     0.018 A 
HETATM   14  C   UNL     1     -35.877  40.861 -57.528  1.00  0.00     0.002 A 
HETATM   15  C   UNL     1     -36.112  39.763 -58.358  1.00  0.00     0.043 A 
HETATM   16  C   UNL     1     -36.403  42.110 -57.922  1.00  0.00     0.014 A 
HETATM   17  C   UNL     1     -36.847  39.849 -59.547  1.00  0.00     0.030 A 
HETATM   18  N   UNL     1     -35.501  38.679 -57.778  1.00  0.00    -0.365 N 
HETATM   19  C   UNL     1     -37.358  41.099 -59.908  1.00  0.00     0.002 A 
HETATM   20  C   UNL     1     -37.138  42.217 -59.108  1.00  0.00     0.001 A 
HETATM   21  H   UNL     1     -35.503  37.747 -58.168  1.00  0.00     0.165 HD
HETATM   22  C   UNL     1     -34.906  39.043 -56.604  1.00  0.00     0.100 A 
ENDBRANCH   9  13
BRANCH   9  23
HETATM   23  O   UNL     1     -34.563  42.608 -55.455  1.00  0.00    -0.371 OA
HETATM   24  H   UNL     1     -35.097  42.783 -56.247  1.00  0.00     0.212 HD
ENDBRANCH   9  23
TORSDOF 2
ENDMDL
MODEL 8
REMARK VINA RESULT:      -7.2     15.243     17.158
REMARK  2 active torsions:
REMARK  status: ('A' for Active; 'I' for Inactive)
REMARK    1  A    between atoms: C_9  and  C_11 
REMARK    2  A    between atoms: C_9  and  O_10 
ROOT
HETATM    1  C   UNL     1     -31.807  37.390 -55.750  1.00  0.00     0.048 C 
HETATM    2  C   UNL     1     -32.418  38.474 -54.910  1.00  0.00    -0.061 A 
HETATM    3  C   UNL     1     -33.733  38.902 -55.147  1.00  0.00     0.020 A 
HETATM    4  C   UNL     1     -34.250  39.927 -54.366  1.00  0.00     0.018 A 
HETATM    5  C   UNL     1     -33.477  40.500 -53.356  1.00  0.00     0.045 A 
HETATM    6  N   UNL     1     -34.195  41.482 -52.692  1.00  0.00    -0.323 N 
HETATM    7  C   UNL     1     -35.479  41.625 -53.222  1.00  0.00     0.266 A 
HETATM    8  O   UNL     1     -36.314  42.405 -52.790  1.00  0.00    -0.269 OA
HETATM    9  C   UNL     1     -35.619  40.581 -54.395  1.00  0.00     0.198 A 
HETATM   10  C   UNL     1     -32.185  40.100 -53.094  1.00  0.00     0.031 A 
HETATM   11  C   UNL     1     -31.655  39.078 -53.886  1.00  0.00     0.009 A 
HETATM   12  H   UNL     1     -33.862  42.041 -51.920  1.00  0.00     0.169 HD
ENDROOT
BRANCH   9  13
HETATM   13  C   UNL     1     -35.732  41.238 -55.750  1.00  0.00     0.018 A 
HETATM   14  C   UNL     1     -36.596  40.851 -56.839  1.00  0.00     0.002 A 
HETATM   15  C   UNL     1     -36.336  41.706 -57.913  1.00  0.00     0.043 A 
HETATM   16  C   UNL     1     -37.568  39.844 -57.019  1.00  0.00     0.014 A 
HETATM   17  C   UNL     1     -36.988  41.600 -59.147  1.00  0.00     0.030 A 
HETATM   18  N   UNL     1     -35.376  42.595 -57.499  1.00  0.00    -0.365 N 
HETATM   19  C   UNL     1     -37.943  40.590 -59.295  1.00  0.00     0.002 A 
HETATM   20  C   UNL     1     -38.233  39.724 -58.245  1.00  0.00     0.001 A 
HETATM   21  H   UNL     1     -34.999  43.337 -58.073  1.00  0.00     0.165 HD
HETATM   22  C   UNL     1     -35.001  42.325 -56.213  1.00  0.00     0.100 A 
ENDBRANCH   9  13
BRANCH   9  23
HETATM   23  O   UNL     1     -36.623  39.614 -54.128  1.00  0.00    -0.371 OA
HETATM   24  H   UNL     1     -37.068  39.440 -54.973  1.00  0.00     0.212 HD
ENDBRANCH   9  23
TORSDOF 2
ENDMDL
MODEL 9
REMARK VINA RESULT:      -7.2     14.771     17.215
REMARK  2 active torsions:
REMARK  status: ('A' for Active; 'I' for Inactive)
REMARK    1  A    between atoms: C_9  and  C_11 
REMARK    2  A    between atoms: C_9  and  O_10 
ROOT
HETATM    1  C   UNL     1     -36.502  39.659 -59.672  1.00  0.00     0.048 C 
HETATM    2  C   UNL     1     -36.860  40.198 -58.317  1.00  0.00    -0.061 A 
HETATM    3  C   UNL     1     -35.856  40.584 -57.416  1.00  0.00     0.020 A 
HETATM    4  C   UNL     1     -36.230  41.050 -56.163  1.00  0.00     0.018 A 
HETATM    5  C   UNL     1     -37.580  41.148 -55.823  1.00  0.00     0.045 A 
HETATM    6  N   UNL     1     -37.723  41.655 -54.541  1.00  0.00    -0.323 N 
HETATM    7  C   UNL     1     -36.484  41.918 -53.952  1.00  0.00     0.266 A 
HETATM    8  O   UNL     1     -36.345  42.397 -52.837  1.00  0.00    -0.269 OA
HETATM    9  C   UNL     1     -35.376  41.532 -55.006  1.00  0.00     0.198 A 
HETATM   10  C   UNL     1     -38.590  40.782 -56.685  1.00  0.00     0.031 A 
HETATM   11  C   UNL     1     -38.219  40.300 -57.943  1.00  0.00     0.009 A 
HETATM   12  H   UNL     1     -38.596  41.825 -54.065  1.00  0.00     0.169 HD
ENDROOT
BRANCH   9  13
HETATM   13  C   UNL     1     -34.554  40.340 -54.577  1.00  0.00     0.018 A 
HETATM   14  C   UNL     1     -33.286  39.913 -55.117  1.00  0.00     0.002 A 
HETATM   15  C   UNL     1     -32.915  38.740 -54.456  1.00  0.00     0.043 A 
HETATM   16  C   UNL     1     -32.422  40.408 -56.117  1.00  0.00     0.014 A 
HETATM   17  C   UNL     1     -31.738  38.040 -54.747  1.00  0.00     0.030 A 
HETATM   18  N   UNL     1     -33.895  38.468 -53.534  1.00  0.00    -0.365 N 
HETATM   19  C   UNL     1     -30.905  38.553 -55.745  1.00  0.00     0.002 A 
HETATM   20  C   UNL     1     -31.239  39.723 -56.421  1.00  0.00     0.001 A 
HETATM   21  H   UNL     1     -33.883  37.677 -52.905  1.00  0.00     0.165 HD
HETATM   22  C   UNL     1     -34.882  39.410 -53.598  1.00  0.00     0.100 A 
ENDBRANCH   9  13
BRANCH   9  23
HETATM   23  O   UNL     1     -34.609  42.658 -55.406  1.00  0.00    -0.371 OA
HETATM   24  H   UNL     1     -33.794  42.309 -55.800  1.00  0.00     0.212 HD
ENDBRANCH   9  23
TORSDOF 2
ENDMDL
MODEL 10
REMARK VINA RESULT:      -7.2      2.590      3.825
REMARK  2 active torsions:
REMARK  status: ('A' for Active; 'I' for Inactive)
REMARK    1  A    between atoms: C_9  and  C_11 
REMARK    2  A    between atoms: C_9  and  O_10 
ROOT
HETATM    1  C   UNL     1     -41.215  58.958 -51.036  1.00  0.00     0.048 C 
HETATM    2  C   UNL     1     -41.561  58.505 -52.426  1.00  0.00    -0.061 A 
HETATM    3  C   UNL     1     -42.013  57.197 -52.657  1.00  0.00     0.020 A 
HETATM    4  C   UNL     1     -42.296  56.810 -53.961  1.00  0.00     0.018 A 
HETATM    5  C   UNL     1     -42.148  57.717 -55.010  1.00  0.00     0.045 A 
HETATM    6  N   UNL     1     -42.504  57.130 -56.214  1.00  0.00    -0.323 N 
HETATM    7  C   UNL     1     -42.901  55.803 -56.039  1.00  0.00     0.266 A 
HETATM    8  O   UNL     1     -43.289  55.080 -56.944  1.00  0.00    -0.269 OA
HETATM    9  C   UNL     1     -42.794  55.483 -54.498  1.00  0.00     0.198 A 
HETATM   10  C   UNL     1     -41.711  59.009 -54.818  1.00  0.00     0.031 A 
HETATM   11  C   UNL     1     -41.413  59.400 -53.509  1.00  0.00     0.009 A 
HETATM   12  H   UNL     1     -42.489  57.576 -57.119  1.00  0.00     0.169 HD
ENDROOT
BRANCH   9  13
HETATM   13  C   UNL     1     -41.711  54.479 -54.186  1.00  0.00     0.018 A 
HETATM   14  C   UNL     1     -41.417  53.881 -52.905  1.00  0.00     0.002 A 
HETATM   15  C   UNL     1     -40.307  53.049 -53.069  1.00  0.00     0.043 A 
HETATM   16  C   UNL     1     -41.983  53.979 -51.616  1.00  0.00     0.014 A 
HETATM   17  C   UNL     1     -39.737  52.323 -52.016  1.00  0.00     0.030 A 
HETATM   18  N   UNL     1     -39.948  53.110 -54.392  1.00  0.00    -0.365 N 
HETATM   19  C   UNL     1     -40.319  52.444 -50.751  1.00  0.00     0.002 A 
HETATM   20  C   UNL     1     -41.429  53.259 -50.552  1.00  0.00     0.001 A 
HETATM   21  H   UNL     1     -39.176  52.598 -54.798  1.00  0.00     0.165 HD
HETATM   22  C   UNL     1     -40.772  53.963 -55.069  1.00  0.00     0.100 A 
ENDBRANCH   9  13
BRANCH   9  23
HETATM   23  O   UNL     1     -44.059  55.175 -53.932  1.00  0.00    -0.371 OA
HETATM   24  H   UNL     1     -44.025  54.239 -53.678  1.00  0.00     0.212 HD
ENDBRANCH   9  23
TORSDOF 2
ENDMDL
