MODEL 1
REMARK VINA RESULT:      -9.5      0.000      0.000
REMARK  4 active torsions:
REMARK  status: ('A' for Active; 'I' for Inactive)
REMARK    1  A    between atoms: N_2  and  C_4 
REMARK    2  A    between atoms: C_7  and  C_21 
REMARK    3  A    between atoms: C_12  and  C_15 
REMARK    4  A    between atoms: C_27  and  C_28 
ROOT
HETATM    1  C   UNL     1     -41.725  56.867 -53.510  1.00  0.00     0.116 A 
HETATM    2  N   UNL     1     -41.569  56.271 -52.317  1.00  0.00    -0.330 N 
HETATM    3  H   UNL     1     -41.275  56.855 -51.542  1.00  0.00     0.168 HD
HETATM    4  C   UNL     1     -41.844  54.973 -52.146  1.00  0.00     0.112 A 
HETATM    5  N   UNL     1     -42.339  54.192 -53.125  1.00  0.00    -0.234 NA
HETATM    6  C   UNL     1     -42.528  54.748 -54.328  1.00  0.00     0.072 A 
HETATM    7  C   UNL     1     -43.035  53.959 -55.349  1.00  0.00     0.033 A 
HETATM    8  C   UNL     1     -43.221  54.459 -56.643  1.00  0.00     0.014 A 
HETATM    9  C   UNL     1     -42.881  55.776 -56.950  1.00  0.00    -0.022 A 
HETATM   10  C   UNL     1     -42.378  56.580 -55.919  1.00  0.00     0.030 A 
HETATM   11  C   UNL     1     -42.216  56.090 -54.595  1.00  0.00     0.037 A 
ENDROOT
BRANCH   4  12
HETATM   12  C   UNL     1     -41.632  54.320 -50.802  1.00  0.00     0.091 C 
HETATM   13  C   UNL     1     -41.762  55.313 -49.644  1.00  0.00     0.245 C 
HETATM   14  N   UNL     1     -41.018  54.667 -48.515  1.00  0.00    -0.074 N 
HETATM   15  H   UNL     1     -40.599  55.377 -47.890  1.00  0.00     0.277 HD
HETATM   16  H   UNL     1     -41.644  54.116 -47.904  1.00  0.00     0.277 HD
HETATM   17  C   UNL     1     -39.951  53.783 -49.100  1.00  0.00     0.242 C 
HETATM   18  C   UNL     1     -40.196  53.795 -50.621  1.00  0.00     0.057 C 
BRANCH  18  19
HETATM   19  C   UNL     1     -39.991  52.456 -51.288  1.00  0.00    -0.052 A 
HETATM   20  C   UNL     1     -39.742  52.339 -52.666  1.00  0.00     0.007 A 
HETATM   21  C   UNL     1     -39.576  51.084 -53.254  1.00  0.00     0.001 A 
HETATM   22  C   UNL     1     -39.650  49.933 -52.475  1.00  0.00     0.000 A 
HETATM   23  C   UNL     1     -39.885  50.033 -51.107  1.00  0.00     0.001 A 
HETATM   24  C   UNL     1     -40.054  51.286 -50.515  1.00  0.00     0.007 A 
ENDBRANCH  18  19
ENDBRANCH   4  12
BRANCH   1  25
HETATM   25  N   UNL     1     -41.393  58.209 -53.641  1.00  0.00    -0.375 N 
HETATM   26  C   UNL     1     -40.140  58.707 -53.075  1.00  0.00     0.150 C 
HETATM   27  C   UNL     1     -42.523  59.145 -53.564  1.00  0.00     0.150 C 
ENDBRANCH   1  25
BRANCH   9  28
HETATM   28  C   UNL     1     -43.046  56.312 -58.292  1.00  0.00     0.010 A 
HETATM   29  C   UNL     1     -43.447  55.687 -59.498  1.00  0.00     0.152 A 
HETATM   30  N   UNL     1     -43.490  56.528 -60.530  1.00  0.00    -0.187 NA
HETATM   31  N   UNL     1     -43.115  57.702 -60.002  1.00  0.00    -0.289 N 
HETATM   32  H   UNL     1     -43.069  58.514 -60.612  1.00  0.00     0.188 HD
HETATM   33  C   UNL     1     -42.843  57.626 -58.664  1.00  0.00     0.123 A 
ENDBRANCH   9  28
TORSDOF 4
ENDMDL
MODEL 2
REMARK VINA RESULT:      -9.5      2.221      7.378
REMARK  4 active torsions:
REMARK  status: ('A' for Active; 'I' for Inactive)
REMARK    1  A    between atoms: N_2  and  C_4 
REMARK    2  A    between atoms: C_7  and  C_21 
REMARK    3  A    between atoms: C_12  and  C_15 
REMARK    4  A    between atoms: C_27  and  C_28 
ROOT
HETATM    1  C   UNL     1     -41.854  55.791 -52.463  1.00  0.00     0.116 A 
HETATM    2  N   UNL     1     -42.153  56.942 -53.089  1.00  0.00    -0.330 N 
HETATM    3  H   UNL     1     -42.562  57.680 -52.528  1.00  0.00     0.168 HD
HETATM    4  C   UNL     1     -41.871  57.123 -54.384  1.00  0.00     0.112 A 
HETATM    5  N   UNL     1     -41.230  56.205 -55.133  1.00  0.00    -0.234 NA
HETATM    6  C   UNL     1     -40.896  55.049 -54.547  1.00  0.00     0.072 A 
HETATM    7  C   UNL     1     -40.238  54.090 -55.302  1.00  0.00     0.033 A 
HETATM    8  C   UNL     1     -39.894  52.842 -54.770  1.00  0.00     0.014 A 
HETATM    9  C   UNL     1     -40.222  52.517 -53.455  1.00  0.00    -0.022 A 
HETATM   10  C   UNL     1     -40.878  53.487 -52.684  1.00  0.00     0.030 A 
HETATM   11  C   UNL     1     -41.203  54.767 -53.206  1.00  0.00     0.037 A 
ENDROOT
BRANCH   4  12
HETATM   12  C   UNL     1     -42.244  58.415 -55.071  1.00  0.00     0.091 C 
HETATM   13  C   UNL     1     -42.735  59.478 -54.086  1.00  0.00     0.245 C 
HETATM   14  N   UNL     1     -43.539  60.422 -54.927  1.00  0.00    -0.074 N 
HETATM   15  H   UNL     1     -44.302  60.854 -54.379  1.00  0.00     0.277 HD
HETATM   16  H   UNL     1     -42.973  61.220 -55.261  1.00  0.00     0.277 HD
HETATM   17  C   UNL     1     -44.095  59.654 -56.095  1.00  0.00     0.242 C 
HETATM   18  C   UNL     1     -43.455  58.256 -56.008  1.00  0.00     0.057 C 
BRANCH  18  19
HETATM   19  C   UNL     1     -43.067  57.673 -57.346  1.00  0.00    -0.052 A 
HETATM   20  C   UNL     1     -43.488  56.397 -57.754  1.00  0.00     0.007 A 
HETATM   21  C   UNL     1     -43.095  55.880 -58.990  1.00  0.00     0.001 A 
HETATM   22  C   UNL     1     -42.283  56.632 -59.835  1.00  0.00     0.000 A 
HETATM   23  C   UNL     1     -41.866  57.902 -59.448  1.00  0.00     0.001 A 
HETATM   24  C   UNL     1     -42.255  58.422 -58.213  1.00  0.00     0.007 A 
ENDBRANCH  18  19
ENDBRANCH   4  12
BRANCH   1  25
HETATM   25  N   UNL     1     -42.198  55.642 -51.127  1.00  0.00    -0.375 N 
HETATM   26  C   UNL     1     -43.607  55.567 -50.743  1.00  0.00     0.150 C 
HETATM   27  C   UNL     1     -41.332  56.350 -50.173  1.00  0.00     0.150 C 
ENDBRANCH   1  25
BRANCH   9  28
HETATM   28  C   UNL     1     -39.892  51.220 -52.886  1.00  0.00     0.010 A 
HETATM   29  C   UNL     1     -39.761  49.947 -53.493  1.00  0.00     0.152 A 
HETATM   30  N   UNL     1     -39.431  48.990 -52.628  1.00  0.00    -0.187 NA
HETATM   31  N   UNL     1     -39.349  49.633 -51.454  1.00  0.00    -0.289 N 
HETATM   32  H   UNL     1     -39.106  49.099 -50.624  1.00  0.00     0.188 HD
HETATM   33  C   UNL     1     -39.612  50.972 -51.557  1.00  0.00     0.123 A 
ENDBRANCH   9  28
TORSDOF 4
ENDMDL
MODEL 3
REMARK VINA RESULT:      -8.8      2.859      5.447
REMARK  4 active torsions:
REMARK  status: ('A' for Active; 'I' for Inactive)
REMARK    1  A    between atoms: N_2  and  C_4 
REMARK    2  A    between atoms: C_7  and  C_21 
REMARK    3  A    between atoms: C_12  and  C_15 
REMARK    4  A    between atoms: C_27  and  C_28 
ROOT
HETATM    1  C   UNL     1     -43.756  57.187 -58.109  1.00  0.00     0.116 A 
HETATM    2  N   UNL     1     -43.998  56.636 -56.907  1.00  0.00    -0.330 N 
HETATM    3  H   UNL     1     -44.478  55.743 -56.896  1.00  0.00     0.168 HD
HETATM    4  C   UNL     1     -43.575  57.216 -55.778  1.00  0.00     0.112 A 
HETATM    5  N   UNL     1     -42.842  58.345 -55.762  1.00  0.00    -0.234 NA
HETATM    6  C   UNL     1     -42.560  58.920 -56.937  1.00  0.00     0.072 A 
HETATM    7  C   UNL     1     -41.808  60.085 -56.940  1.00  0.00     0.033 A 
HETATM    8  C   UNL     1     -41.509  60.765 -58.126  1.00  0.00     0.014 A 
HETATM    9  C   UNL     1     -41.978  60.294 -59.352  1.00  0.00    -0.022 A 
HETATM   10  C   UNL     1     -42.730  59.112 -59.354  1.00  0.00     0.030 A 
HETATM   11  C   UNL     1     -43.012  58.397 -58.159  1.00  0.00     0.037 A 
ENDROOT
BRANCH   4  12
HETATM   12  C   UNL     1     -43.886  56.592 -54.439  1.00  0.00     0.091 C 
HETATM   13  C   UNL     1     -44.783  57.481 -53.575  1.00  0.00     0.245 C 
HETATM   14  N   UNL     1     -44.542  57.004 -52.175  1.00  0.00    -0.074 N 
HETATM   15  H   UNL     1     -44.654  57.775 -51.495  1.00  0.00     0.277 HD
HETATM   16  H   UNL     1     -45.235  56.295 -51.884  1.00  0.00     0.277 HD
HETATM   17  C   UNL     1     -43.152  56.434 -52.105  1.00  0.00     0.242 C 
HETATM   18  C   UNL     1     -42.635  56.436 -53.556  1.00  0.00     0.057 C 
BRANCH  18  19
HETATM   19  C   UNL     1     -41.827  55.213 -53.922  1.00  0.00    -0.052 A 
HETATM   20  C   UNL     1     -42.187  53.925 -53.493  1.00  0.00     0.007 A 
HETATM   21  C   UNL     1     -41.407  52.819 -53.834  1.00  0.00     0.001 A 
HETATM   22  C   UNL     1     -40.264  52.983 -54.611  1.00  0.00     0.000 A 
HETATM   23  C   UNL     1     -39.901  54.252 -55.053  1.00  0.00     0.001 A 
HETATM   24  C   UNL     1     -40.677  55.361 -54.713  1.00  0.00     0.007 A 
ENDBRANCH  18  19
ENDBRANCH   4  12
BRANCH   1  25
HETATM   25  N   UNL     1     -44.246  56.562 -59.247  1.00  0.00    -0.375 N 
HETATM   26  C   UNL     1     -45.659  56.699 -59.601  1.00  0.00     0.150 C 
HETATM   27  C   UNL     1     -43.657  55.248 -59.545  1.00  0.00     0.150 C 
ENDBRANCH   1  25
BRANCH   9  28
HETATM   28  C   UNL     1     -41.697  60.994 -60.595  1.00  0.00     0.010 A 
HETATM   29  C   UNL     1     -40.975  62.186 -60.845  1.00  0.00     0.152 A 
HETATM   30  N   UNL     1     -40.927  62.504 -62.138  1.00  0.00    -0.187 NA
HETATM   31  N   UNL     1     -41.620  61.523 -62.735  1.00  0.00    -0.289 N 
HETATM   32  H   UNL     1     -41.725  61.549 -63.745  1.00  0.00     0.188 HD
HETATM   33  C   UNL     1     -42.098  60.592 -61.854  1.00  0.00     0.123 A 
ENDBRANCH   9  28
TORSDOF 4
ENDMDL
MODEL 4
REMARK VINA RESULT:      -8.7      2.447      7.579
REMARK  4 active torsions:
REMARK  status: ('A' for Active; 'I' for Inactive)
REMARK    1  A    between atoms: N_2  and  C_4 
REMARK    2  A    between atoms: C_7  and  C_21 
REMARK    3  A    between atoms: C_12  and  C_15 
REMARK    4  A    between atoms: C_27  and  C_28 
ROOT
HETATM    1  C   UNL     1     -42.218  55.483 -52.219  1.00  0.00     0.116 A 
HETATM    2  N   UNL     1     -42.606  56.611 -52.836  1.00  0.00    -0.330 N 
HETATM    3  H   UNL     1     -43.087  57.304 -52.274  1.00  0.00     0.168 HD
HETATM    4  C   UNL     1     -42.318  56.835 -54.123  1.00  0.00     0.112 A 
HETATM    5  N   UNL     1     -41.587  55.986 -54.871  1.00  0.00    -0.234 NA
HETATM    6  C   UNL     1     -41.164  54.855 -54.293  1.00  0.00     0.072 A 
HETATM    7  C   UNL     1     -40.412  53.968 -55.048  1.00  0.00     0.033 A 
HETATM    8  C   UNL     1     -39.970  52.747 -54.525  1.00  0.00     0.014 A 
HETATM    9  C   UNL     1     -40.291  52.377 -53.220  1.00  0.00    -0.022 A 
HETATM   10  C   UNL     1     -41.043  53.275 -52.450  1.00  0.00     0.030 A 
HETATM   11  C   UNL     1     -41.469  54.530 -52.961  1.00  0.00     0.037 A 
ENDROOT
BRANCH   4  12
HETATM   12  C   UNL     1     -42.790  58.098 -54.801  1.00  0.00     0.091 C 
HETATM   13  C   UNL     1     -42.686  58.016 -56.326  1.00  0.00     0.245 C 
HETATM   14  N   UNL     1     -42.659  59.446 -56.774  1.00  0.00    -0.074 N 
HETATM   15  H   UNL     1     -42.109  59.554 -57.643  1.00  0.00     0.277 HD
HETATM   16  H   UNL     1     -43.602  59.794 -57.016  1.00  0.00     0.277 HD
HETATM   17  C   UNL     1     -42.066  60.275 -55.667  1.00  0.00     0.242 C 
HETATM   18  C   UNL     1     -41.897  59.310 -54.479  1.00  0.00     0.057 C 
BRANCH  18  19
HETATM   19  C   UNL     1     -42.228  59.921 -53.138  1.00  0.00    -0.052 A 
HETATM   20  C   UNL     1     -43.355  60.739 -52.949  1.00  0.00     0.007 A 
HETATM   21  C   UNL     1     -43.621  61.304 -51.701  1.00  0.00     0.001 A 
HETATM   22  C   UNL     1     -42.772  61.055 -50.626  1.00  0.00     0.000 A 
HETATM   23  C   UNL     1     -41.658  60.238 -50.795  1.00  0.00     0.001 A 
HETATM   24  C   UNL     1     -41.387  59.673 -52.042  1.00  0.00     0.007 A 
ENDBRANCH  18  19
ENDBRANCH   4  12
BRANCH   1  25
HETATM   25  N   UNL     1     -42.572  55.286 -50.891  1.00  0.00    -0.375 N 
HETATM   26  C   UNL     1     -43.980  55.330 -50.498  1.00  0.00     0.150 C 
HETATM   27  C   UNL     1     -41.635  55.842 -49.904  1.00  0.00     0.150 C 
ENDBRANCH   1  25
BRANCH   9  28
HETATM   28  C   UNL     1     -39.860  51.105 -52.661  1.00  0.00     0.010 A 
HETATM   29  C   UNL     1     -39.565  50.731 -51.327  1.00  0.00     0.152 A 
HETATM   30  N   UNL     1     -39.209  49.452 -51.212  1.00  0.00    -0.187 NA
HETATM   31  N   UNL     1     -39.267  48.990 -52.470  1.00  0.00    -0.289 N 
HETATM   32  H   UNL     1     -39.031  48.016 -52.638  1.00  0.00     0.188 HD
HETATM   33  C   UNL     1     -39.656  49.940 -53.373  1.00  0.00     0.123 A 
ENDBRANCH   9  28
TORSDOF 4
ENDMDL
MODEL 5
REMARK VINA RESULT:      -8.7      2.649      7.195
REMARK  4 active torsions:
REMARK  status: ('A' for Active; 'I' for Inactive)
REMARK    1  A    between atoms: N_2  and  C_4 
REMARK    2  A    between atoms: C_7  and  C_21 
REMARK    3  A    between atoms: C_12  and  C_15 
REMARK    4  A    between atoms: C_27  and  C_28 
ROOT
HETATM    1  C   UNL     1     -42.005  55.863 -51.645  1.00  0.00     0.116 A 
HETATM    2  N   UNL     1     -42.273  57.160 -51.871  1.00  0.00    -0.330 N 
HETATM    3  H   UNL     1     -42.688  57.686 -51.111  1.00  0.00     0.168 HD
HETATM    4  C   UNL     1     -41.955  57.744 -53.032  1.00  0.00     0.112 A 
HETATM    5  N   UNL     1     -41.306  57.103 -54.023  1.00  0.00    -0.234 NA
HETATM    6  C   UNL     1     -41.002  55.813 -53.835  1.00  0.00     0.072 A 
HETATM    7  C   UNL     1     -40.335  55.137 -54.845  1.00  0.00     0.033 A 
HETATM    8  C   UNL     1     -40.021  53.777 -54.737  1.00  0.00     0.014 A 
HETATM    9  C   UNL     1     -40.387  53.052 -53.605  1.00  0.00    -0.022 A 
HETATM   10  C   UNL     1     -41.052  53.734 -52.577  1.00  0.00     0.030 A 
HETATM   11  C   UNL     1     -41.347  55.121 -52.664  1.00  0.00     0.037 A 
ENDROOT
BRANCH   4  12
HETATM   12  C   UNL     1     -42.294  59.194 -53.273  1.00  0.00     0.091 C 
HETATM   13  C   UNL     1     -42.085  60.057 -52.026  1.00  0.00     0.245 C 
HETATM   14  N   UNL     1     -42.944  61.263 -52.259  1.00  0.00    -0.074 N 
HETATM   15  H   UNL     1     -43.295  61.650 -51.366  1.00  0.00     0.277 HD
HETATM   16  H   UNL     1     -42.413  62.038 -52.690  1.00  0.00     0.277 HD
HETATM   17  C   UNL     1     -44.090  60.860 -53.147  1.00  0.00     0.242 C 
HETATM   18  C   UNL     1     -43.789  59.409 -53.570  1.00  0.00     0.057 C 
BRANCH  18  19
HETATM   19  C   UNL     1     -44.134  59.105 -55.009  1.00  0.00    -0.052 A 
HETATM   20  C   UNL     1     -43.297  59.483 -56.072  1.00  0.00     0.007 A 
HETATM   21  C   UNL     1     -43.655  59.203 -57.392  1.00  0.00     0.001 A 
HETATM   22  C   UNL     1     -44.847  58.537 -57.666  1.00  0.00     0.000 A 
HETATM   23  C   UNL     1     -45.680  58.147 -56.623  1.00  0.00     0.001 A 
HETATM   24  C   UNL     1     -45.327  58.427 -55.302  1.00  0.00     0.007 A 
ENDBRANCH  18  19
ENDBRANCH   4  12
BRANCH   1  25
HETATM   25  N   UNL     1     -42.386  55.298 -50.435  1.00  0.00    -0.375 N 
HETATM   26  C   UNL     1     -41.367  54.838 -49.493  1.00  0.00     0.150 C 
HETATM   27  C   UNL     1     -43.603  54.474 -50.484  1.00  0.00     0.150 C 
ENDBRANCH   1  25
BRANCH   9  28
HETATM   28  C   UNL     1     -40.089  51.634 -53.478  1.00  0.00     0.010 A 
HETATM   29  C   UNL     1     -40.128  50.589 -54.433  1.00  0.00     0.152 A 
HETATM   30  N   UNL     1     -39.767  49.410 -53.929  1.00  0.00    -0.187 NA
HETATM   31  N   UNL     1     -39.495  49.681 -52.644  1.00  0.00    -0.289 N 
HETATM   32  H   UNL     1     -39.194  48.919 -52.042  1.00  0.00     0.188 HD
HETATM   33  C   UNL     1     -39.668  51.000 -52.326  1.00  0.00     0.123 A 
ENDBRANCH   9  28
TORSDOF 4
ENDMDL
MODEL 6
REMARK VINA RESULT:      -8.5      2.913      5.561
REMARK  4 active torsions:
REMARK  status: ('A' for Active; 'I' for Inactive)
REMARK    1  A    between atoms: N_2  and  C_4 
REMARK    2  A    between atoms: C_7  and  C_21 
REMARK    3  A    between atoms: C_12  and  C_15 
REMARK    4  A    between atoms: C_27  and  C_28 
ROOT
HETATM    1  C   UNL     1     -41.728  55.941 -54.947  1.00  0.00     0.116 A 
HETATM    2  N   UNL     1     -41.304  56.733 -53.948  1.00  0.00    -0.330 N 
HETATM    3  H   UNL     1     -40.798  56.291 -53.189  1.00  0.00     0.168 HD
HETATM    4  C   UNL     1     -41.493  58.057 -53.982  1.00  0.00     0.112 A 
HETATM    5  N   UNL     1     -42.065  58.691 -55.024  1.00  0.00    -0.234 NA
HETATM    6  C   UNL     1     -42.487  57.944 -56.050  1.00  0.00     0.072 A 
HETATM    7  C   UNL     1     -43.080  58.579 -57.131  1.00  0.00     0.033 A 
HETATM    8  C   UNL     1     -43.583  57.860 -58.222  1.00  0.00     0.014 A 
HETATM    9  C   UNL     1     -43.516  56.468 -58.246  1.00  0.00    -0.022 A 
HETATM   10  C   UNL     1     -42.909  55.823 -57.160  1.00  0.00     0.030 A 
HETATM   11  C   UNL     1     -42.367  56.545 -56.064  1.00  0.00     0.037 A 
ENDROOT
BRANCH   4  12
HETATM   12  C   UNL     1     -41.034  58.922 -52.833  1.00  0.00     0.091 C 
HETATM   13  C   UNL     1     -39.517  58.868 -52.633  1.00  0.00     0.245 C 
HETATM   14  N   UNL     1     -39.314  59.296 -51.211  1.00  0.00    -0.074 N 
HETATM   15  H   UNL     1     -38.479  58.846 -50.801  1.00  0.00     0.277 HD
HETATM   16  H   UNL     1     -39.129  60.311 -51.136  1.00  0.00     0.277 HD
HETATM   17  C   UNL     1     -40.548  58.934 -50.430  1.00  0.00     0.242 C 
HETATM   18  C   UNL     1     -41.559  58.425 -51.474  1.00  0.00     0.057 C 
BRANCH  18  19
HETATM   19  C   UNL     1     -42.981  58.865 -51.218  1.00  0.00    -0.052 A 
HETATM   20  C   UNL     1     -43.298  60.179 -50.834  1.00  0.00     0.007 A 
HETATM   21  C   UNL     1     -44.621  60.547 -50.586  1.00  0.00     0.001 A 
HETATM   22  C   UNL     1     -45.644  59.613 -50.725  1.00  0.00     0.000 A 
HETATM   23  C   UNL     1     -45.347  58.311 -51.116  1.00  0.00     0.001 A 
HETATM   24  C   UNL     1     -44.025  57.938 -51.363  1.00  0.00     0.007 A 
ENDBRANCH  18  19
ENDBRANCH   4  12
BRANCH   1  25
HETATM   25  N   UNL     1     -41.536  54.570 -54.846  1.00  0.00    -0.375 N 
HETATM   26  C   UNL     1     -42.210  53.816 -53.790  1.00  0.00     0.150 C 
HETATM   27  C   UNL     1     -40.182  54.100 -55.175  1.00  0.00     0.150 C 
ENDBRANCH   1  25
BRANCH   9  28
HETATM   28  C   UNL     1     -44.050  55.699 -59.359  1.00  0.00     0.010 A 
HETATM   29  C   UNL     1     -44.415  56.094 -60.669  1.00  0.00     0.152 A 
HETATM   30  N   UNL     1     -44.858  55.082 -61.413  1.00  0.00    -0.187 NA
HETATM   31  N   UNL     1     -44.787  54.025 -60.591  1.00  0.00    -0.289 N 
HETATM   32  H   UNL     1     -45.079  53.117 -60.943  1.00  0.00     0.188 HD
HETATM   33  C   UNL     1     -44.304  54.341 -59.351  1.00  0.00     0.123 A 
ENDBRANCH   9  28
TORSDOF 4
ENDMDL
MODEL 7
REMARK VINA RESULT:      -8.1      2.823      7.457
REMARK  4 active torsions:
REMARK  status: ('A' for Active; 'I' for Inactive)
REMARK    1  A    between atoms: N_2  and  C_4 
REMARK    2  A    between atoms: C_7  and  C_21 
REMARK    3  A    between atoms: C_12  and  C_15 
REMARK    4  A    between atoms: C_27  and  C_28 
ROOT
HETATM    1  C   UNL     1     -43.333  55.527 -52.009  1.00  0.00     0.116 A 
HETATM    2  N   UNL     1     -44.028  56.629 -52.336  1.00  0.00    -0.330 N 
HETATM    3  H   UNL     1     -44.479  57.133 -51.581  1.00  0.00     0.168 HD
HETATM    4  C   UNL     1     -44.076  57.072 -53.598  1.00  0.00     0.112 A 
HETATM    5  N   UNL     1     -43.401  56.490 -54.607  1.00  0.00    -0.234 NA
HETATM    6  C   UNL     1     -42.680  55.398 -54.325  1.00  0.00     0.072 A 
HETATM    7  C   UNL     1     -41.979  54.784 -55.352  1.00  0.00     0.033 A 
HETATM    8  C   UNL     1     -41.237  53.616 -55.141  1.00  0.00     0.014 A 
HETATM    9  C   UNL     1     -41.193  53.021 -53.882  1.00  0.00    -0.022 A 
HETATM   10  C   UNL     1     -41.891  53.644 -52.838  1.00  0.00     0.030 A 
HETATM   11  C   UNL     1     -42.621  54.847 -53.035  1.00  0.00     0.037 A 
ENDROOT
BRANCH   4  12
HETATM   12  C   UNL     1     -44.889  58.296 -53.944  1.00  0.00     0.091 C 
HETATM   13  C   UNL     1     -45.362  58.289 -55.400  1.00  0.00     0.245 C 
HETATM   14  N   UNL     1     -45.644  59.729 -55.706  1.00  0.00    -0.074 N 
HETATM   15  H   UNL     1     -45.477  59.937 -56.705  1.00  0.00     0.277 HD
HETATM   16  H   UNL     1     -46.637  59.970 -55.551  1.00  0.00     0.277 HD
HETATM   17  C   UNL     1     -44.760  60.577 -54.834  1.00  0.00     0.242 C 
HETATM   18  C   UNL     1     -44.061  59.592 -53.877  1.00  0.00     0.057 C 
BRANCH  18  19
HETATM   19  C   UNL     1     -43.919  60.104 -52.464  1.00  0.00    -0.052 A 
HETATM   20  C   UNL     1     -45.023  60.245 -51.607  1.00  0.00     0.007 A 
HETATM   21  C   UNL     1     -44.858  60.740 -50.312  1.00  0.00     0.001 A 
HETATM   22  C   UNL     1     -43.591  61.093 -49.855  1.00  0.00     0.000 A 
HETATM   23  C   UNL     1     -42.486  60.949 -50.689  1.00  0.00     0.001 A 
HETATM   24  C   UNL     1     -42.647  60.456 -51.985  1.00  0.00     0.007 A 
ENDBRANCH  18  19
ENDBRANCH   4  12
BRANCH   1  25
HETATM   25  N   UNL     1     -43.343  55.091 -50.691  1.00  0.00    -0.375 N 
HETATM   26  C   UNL     1     -42.093  55.025 -49.936  1.00  0.00     0.150 C 
HETATM   27  C   UNL     1     -44.305  54.021 -50.391  1.00  0.00     0.150 C 
ENDBRANCH   1  25
BRANCH   9  28
HETATM   28  C   UNL     1     -40.445  51.797 -53.643  1.00  0.00     0.010 A 
HETATM   29  C   UNL     1     -40.285  50.638 -54.440  1.00  0.00     0.152 A 
HETATM   30  N   UNL     1     -39.501  49.721 -53.874  1.00  0.00    -0.187 NA
HETATM   31  N   UNL     1     -39.150  50.278 -52.705  1.00  0.00    -0.289 N 
HETATM   32  H   UNL     1     -38.540  49.755 -52.083  1.00  0.00     0.188 HD
HETATM   33  C   UNL     1     -39.686  51.524 -52.522  1.00  0.00     0.123 A 
ENDBRANCH   9  28
TORSDOF 4
ENDMDL
MODEL 8
REMARK VINA RESULT:      -8.0      1.869      8.403
REMARK  4 active torsions:
REMARK  status: ('A' for Active; 'I' for Inactive)
REMARK    1  A    between atoms: N_2  and  C_4 
REMARK    2  A    between atoms: C_7  and  C_21 
REMARK    3  A    between atoms: C_12  and  C_15 
REMARK    4  A    between atoms: C_27  and  C_28 
ROOT
HETATM    1  C   UNL     1     -42.621  57.483 -54.244  1.00  0.00     0.116 A 
HETATM    2  N   UNL     1     -42.963  57.636 -55.534  1.00  0.00    -0.330 N 
HETATM    3  H   UNL     1     -43.154  58.579 -55.854  1.00  0.00     0.168 HD
HETATM    4  C   UNL     1     -42.996  56.594 -56.373  1.00  0.00     0.112 A 
HETATM    5  N   UNL     1     -42.645  55.347 -56.010  1.00  0.00    -0.234 NA
HETATM    6  C   UNL     1     -42.279  55.149 -54.737  1.00  0.00     0.072 A 
HETATM    7  C   UNL     1     -41.916  53.870 -54.344  1.00  0.00     0.033 A 
HETATM    8  C   UNL     1     -41.562  53.579 -53.022  1.00  0.00     0.014 A 
HETATM    9  C   UNL     1     -41.581  54.576 -52.047  1.00  0.00    -0.022 A 
HETATM   10  C   UNL     1     -41.938  55.872 -52.442  1.00  0.00     0.030 A 
HETATM   11  C   UNL     1     -42.268  56.184 -53.788  1.00  0.00     0.037 A 
ENDROOT
BRANCH   4  12
HETATM   12  C   UNL     1     -43.413  56.789 -57.811  1.00  0.00     0.091 C 
HETATM   13  C   UNL     1     -43.401  55.479 -58.604  1.00  0.00     0.245 C 
HETATM   14  N   UNL     1     -43.294  55.912 -60.035  1.00  0.00    -0.074 N 
HETATM   15  H   UNL     1     -42.788  55.210 -60.600  1.00  0.00     0.277 HD
HETATM   16  H   UNL     1     -44.222  55.991 -60.485  1.00  0.00     0.277 HD
HETATM   17  C   UNL     1     -42.582  57.236 -60.074  1.00  0.00     0.242 C 
HETATM   18  C   UNL     1     -42.417  57.657 -58.602  1.00  0.00     0.057 C 
BRANCH  18  19
HETATM   19  C   UNL     1     -42.628  59.132 -58.356  1.00  0.00    -0.052 A 
HETATM   20  C   UNL     1     -43.893  59.733 -58.465  1.00  0.00     0.007 A 
HETATM   21  C   UNL     1     -44.049  61.104 -58.250  1.00  0.00     0.001 A 
HETATM   22  C   UNL     1     -42.948  61.889 -57.918  1.00  0.00     0.000 A 
HETATM   23  C   UNL     1     -41.691  61.305 -57.795  1.00  0.00     0.001 A 
HETATM   24  C   UNL     1     -41.530  59.936 -58.011  1.00  0.00     0.007 A 
ENDBRANCH  18  19
ENDBRANCH   4  12
BRANCH   1  25
HETATM   25  N   UNL     1     -42.635  58.591 -53.408  1.00  0.00    -0.375 N 
HETATM   26  C   UNL     1     -43.906  59.100 -52.895  1.00  0.00     0.150 C 
HETATM   27  C   UNL     1     -41.634  59.622 -53.716  1.00  0.00     0.150 C 
ENDBRANCH   1  25
BRANCH   9  28
HETATM   28  C   UNL     1     -41.236  54.293 -50.663  1.00  0.00     0.010 A 
HETATM   29  C   UNL     1     -41.442  55.049 -49.483  1.00  0.00     0.152 A 
HETATM   30  N   UNL     1     -40.990  54.439 -48.388  1.00  0.00    -0.187 NA
HETATM   31  N   UNL     1     -40.484  53.286 -48.850  1.00  0.00    -0.289 N 
HETATM   32  H   UNL     1     -40.071  52.638 -48.186  1.00  0.00     0.188 HD
HETATM   33  C   UNL     1     -40.612  53.150 -50.205  1.00  0.00     0.123 A 
ENDBRANCH   9  28
TORSDOF 4
ENDMDL
MODEL 9
REMARK VINA RESULT:      -7.9      2.232      7.764
REMARK  4 active torsions:
REMARK  status: ('A' for Active; 'I' for Inactive)
REMARK    1  A    between atoms: N_2  and  C_4 
REMARK    2  A    between atoms: C_7  and  C_21 
REMARK    3  A    between atoms: C_12  and  C_15 
REMARK    4  A    between atoms: C_27  and  C_28 
ROOT
HETATM    1  C   UNL     1     -42.714  57.234 -53.459  1.00  0.00     0.116 A 
HETATM    2  N   UNL     1     -43.020  58.081 -54.456  1.00  0.00    -0.330 N 
HETATM    3  H   UNL     1     -43.508  58.933 -54.206  1.00  0.00     0.168 HD
HETATM    4  C   UNL     1     -42.645  57.836 -55.717  1.00  0.00     0.112 A 
HETATM    5  N   UNL     1     -41.902  56.769 -56.069  1.00  0.00    -0.234 NA
HETATM    6  C   UNL     1     -41.559  55.905 -55.105  1.00  0.00     0.072 A 
HETATM    7  C   UNL     1     -40.796  54.800 -55.448  1.00  0.00     0.033 A 
HETATM    8  C   UNL     1     -40.434  53.833 -54.503  1.00  0.00     0.014 A 
HETATM    9  C   UNL     1     -40.849  53.947 -53.177  1.00  0.00    -0.022 A 
HETATM   10  C   UNL     1     -41.611  55.069 -52.823  1.00  0.00     0.030 A 
HETATM   11  C   UNL     1     -41.957  56.071 -53.769  1.00  0.00     0.037 A 
ENDROOT
BRANCH   4  12
HETATM   12  C   UNL     1     -43.026  58.789 -56.823  1.00  0.00     0.091 C 
HETATM   13  C   UNL     1     -43.188  60.227 -56.325  1.00  0.00     0.245 C 
HETATM   14  N   UNL     1     -44.055  60.883 -57.356  1.00  0.00    -0.074 N 
HETATM   15  H   UNL     1     -44.637  61.627 -56.935  1.00  0.00     0.277 HD
HETATM   16  H   UNL     1     -43.497  61.365 -58.080  1.00  0.00     0.277 HD
HETATM   17  C   UNL     1     -44.921  59.826 -57.984  1.00  0.00     0.242 C 
HETATM   18  C   UNL     1     -44.419  58.489 -57.407  1.00  0.00     0.057 C 
BRANCH  18  19
HETATM   19  C   UNL     1     -44.384  57.360 -58.410  1.00  0.00    -0.052 A 
HETATM   20  C   UNL     1     -43.183  56.743 -58.798  1.00  0.00     0.007 A 
HETATM   21  C   UNL     1     -43.186  55.715 -59.743  1.00  0.00     0.001 A 
HETATM   22  C   UNL     1     -44.385  55.287 -60.306  1.00  0.00     0.000 A 
HETATM   23  C   UNL     1     -45.583  55.881 -59.923  1.00  0.00     0.001 A 
HETATM   24  C   UNL     1     -45.586  56.910 -58.981  1.00  0.00     0.007 A 
ENDBRANCH  18  19
ENDBRANCH   4  12
BRANCH   1  25
HETATM   25  N   UNL     1     -43.156  57.519 -52.175  1.00  0.00    -0.375 N 
HETATM   26  C   UNL     1     -44.587  57.495 -51.875  1.00  0.00     0.150 C 
HETATM   27  C   UNL     1     -42.391  58.553 -51.463  1.00  0.00     0.150 C 
ENDBRANCH   1  25
BRANCH   9  28
HETATM   28  C   UNL     1     -40.501  52.946 -52.182  1.00  0.00     0.010 A 
HETATM   29  C   UNL     1     -40.801  52.869 -50.800  1.00  0.00     0.152 A 
HETATM   30  N   UNL     1     -40.310  51.774 -50.221  1.00  0.00    -0.187 NA
HETATM   31  N   UNL     1     -39.685  51.136 -51.221  1.00  0.00    -0.289 N 
HETATM   32  H   UNL     1     -39.221  50.255 -51.018  1.00  0.00     0.188 HD
HETATM   33  C   UNL     1     -39.775  51.795 -52.416  1.00  0.00     0.123 A 
ENDBRANCH   9  28
TORSDOF 4
ENDMDL
MODEL 10
REMARK VINA RESULT:      -7.8      3.196      5.901
REMARK  4 active torsions:
REMARK  status: ('A' for Active; 'I' for Inactive)
REMARK    1  A    between atoms: N_2  and  C_4 
REMARK    2  A    between atoms: C_7  and  C_21 
REMARK    3  A    between atoms: C_12  and  C_15 
REMARK    4  A    between atoms: C_27  and  C_28 
ROOT
HETATM    1  C   UNL     1     -42.941  58.265 -57.881  1.00  0.00     0.116 A 
HETATM    2  N   UNL     1     -42.892  58.036 -56.558  1.00  0.00    -0.330 N 
HETATM    3  H   UNL     1     -43.278  57.159 -56.226  1.00  0.00     0.168 HD
HETATM    4  C   UNL     1     -42.308  58.903 -55.723  1.00  0.00     0.112 A 
HETATM    5  N   UNL     1     -41.691  60.024 -56.141  1.00  0.00    -0.234 NA
HETATM    6  C   UNL     1     -41.699  60.286 -57.453  1.00  0.00     0.072 A 
HETATM    7  C   UNL     1     -41.070  61.437 -57.902  1.00  0.00     0.033 A 
HETATM    8  C   UNL     1     -41.073  61.798 -59.255  1.00  0.00     0.014 A 
HETATM    9  C   UNL     1     -41.730  61.009 -60.198  1.00  0.00    -0.022 A 
HETATM   10  C   UNL     1     -42.358  59.839 -59.750  1.00  0.00     0.030 A 
HETATM   11  C   UNL     1     -42.334  59.448 -58.385  1.00  0.00     0.037 A 
ENDROOT
BRANCH   4  12
HETATM   12  C   UNL     1     -42.293  58.635 -54.237  1.00  0.00     0.091 C 
HETATM   13  C   UNL     1     -42.083  59.910 -53.417  1.00  0.00     0.245 C 
HETATM   14  N   UNL     1     -41.563  59.423 -52.099  1.00  0.00    -0.074 N 
HETATM   15  H   UNL     1     -40.932  60.119 -51.667  1.00  0.00     0.277 HD
HETATM   16  H   UNL     1     -42.322  59.293 -51.408  1.00  0.00     0.277 HD
HETATM   17  C   UNL     1     -40.841  58.124 -52.329  1.00  0.00     0.242 C 
HETATM   18  C   UNL     1     -41.094  57.770 -53.806  1.00  0.00     0.057 C 
BRANCH  18  19
HETATM   19  C   UNL     1     -41.334  56.300 -54.055  1.00  0.00    -0.052 A 
HETATM   20  C   UNL     1     -40.380  55.485 -54.686  1.00  0.00     0.007 A 
HETATM   21  C   UNL     1     -40.642  54.134 -54.917  1.00  0.00     0.001 A 
HETATM   22  C   UNL     1     -41.855  53.578 -54.517  1.00  0.00     0.000 A 
HETATM   23  C   UNL     1     -42.805  54.371 -53.882  1.00  0.00     0.001 A 
HETATM   24  C   UNL     1     -42.548  55.723 -53.650  1.00  0.00     0.007 A 
ENDBRANCH  18  19
ENDBRANCH   4  12
BRANCH   1  25
HETATM   25  N   UNL     1     -43.588  57.350 -58.700  1.00  0.00    -0.375 N 
HETATM   26  C   UNL     1     -45.045  57.385 -58.823  1.00  0.00     0.150 C 
HETATM   27  C   UNL     1     -42.997  56.004 -58.726  1.00  0.00     0.150 C 
ENDBRANCH   1  25
BRANCH   9  28
HETATM   28  C   UNL     1     -41.763  61.374 -61.605  1.00  0.00     0.010 A 
HETATM   29  C   UNL     1     -41.118  62.421 -62.308  1.00  0.00     0.152 A 
HETATM   30  N   UNL     1     -41.392  62.418 -63.611  1.00  0.00    -0.187 NA
HETATM   31  N   UNL     1     -42.219  61.373 -63.763  1.00  0.00    -0.289 N 
HETATM   32  H   UNL     1     -42.572  61.167 -64.693  1.00  0.00     0.188 HD
HETATM   33  C   UNL     1     -42.468  60.713 -62.592  1.00  0.00     0.123 A 
ENDBRANCH   9  28
TORSDOF 4
ENDMDL
