MODEL 1
REMARK VINA RESULT:      -8.5      0.000      0.000
REMARK  8 active torsions:
REMARK  status: ('A' for Active; 'I' for Inactive)
REMARK    1  A    between atoms: C_5  and  O_6 
REMARK    2  A    between atoms: O_6  and  C_7 
REMARK    3  A    between atoms: C_7  and  C_8 
REMARK    4  A    between atoms: C_12  and  S_13 
REMARK    5  A    between atoms: S_13  and  C_14 
REMARK    6  A    between atoms: C_14  and  C_15 
REMARK       I    between atoms: C_15  and  N_16 
REMARK    7  A    between atoms: N_16  and  C_17 
REMARK    8  A    between atoms: C_20  and  C_21 
REMARK       I    between atoms: C_21  and  N_22 
ROOT
HETATM    1  S   UNL     1     -42.960  59.706 -52.289  1.00  0.00    -0.081 SA
ENDROOT
BRANCH   1   2
HETATM    2  C   UNL     1     -43.132  58.113 -51.670  1.00  0.00     0.185 A 
HETATM    3  N   UNL     1     -44.238  57.707 -50.997  1.00  0.00    -0.254 N 
HETATM    4  N   UNL     1     -44.145  56.407 -50.662  1.00  0.00    -0.155 NA
HETATM    5  H   UNL     1     -45.063  58.239 -50.744  1.00  0.00     0.191 HD
HETATM    6  C   UNL     1     -42.961  56.074 -51.206  1.00  0.00     0.172 A 
HETATM    7  N   UNL     1     -42.298  57.118 -51.810  1.00  0.00    -0.204 NA
BRANCH   6   8
HETATM    8  C   UNL     1     -42.391  54.690 -51.171  1.00  0.00     0.258 C 
BRANCH   8   9
HETATM    9  O   UNL     1     -41.067  54.664 -51.715  1.00  0.00    -0.344 OA
BRANCH   9  10
HETATM   10  C   UNL     1     -40.646  53.489 -52.274  1.00  0.00     0.069 A 
HETATM   11  C   UNL     1     -40.988  53.331 -53.619  1.00  0.00     0.037 A 
HETATM   12  C   UNL     1     -40.613  52.183 -54.320  1.00  0.00     0.009 A 
HETATM   13  C   UNL     1     -39.893  51.170 -53.681  1.00  0.00    -0.062 A 
HETATM   14  C   UNL     1     -39.453  49.951 -54.436  1.00  0.00     0.048 C 
HETATM   15  C   UNL     1     -39.537  51.338 -52.339  1.00  0.00     0.009 A 
HETATM   16  C   UNL     1     -39.916  52.488 -51.636  1.00  0.00     0.037 A 
ENDBRANCH   9  10
ENDBRANCH   8   9
ENDBRANCH   6   8
ENDBRANCH   1   2
BRANCH   1  17
HETATM   17  C   UNL     1     -41.575  59.475 -53.446  1.00  0.00     0.185 C 
BRANCH  17  18
HETATM   18  C   UNL     1     -41.938  59.117 -54.886  1.00  0.00     0.231 C 
HETATM   19  N   UNL     1     -42.618  57.930 -55.063  1.00  0.00    -0.327 N 
HETATM   20  H   UNL     1     -42.714  57.359 -54.231  1.00  0.00     0.169 HD
HETATM   21  O   UNL     1     -41.656  59.914 -55.782  1.00  0.00    -0.272 OA
BRANCH  19  22
HETATM   22  C   UNL     1     -43.042  57.340 -56.268  1.00  0.00     0.034 A 
HETATM   23  C   UNL     1     -43.836  57.982 -57.219  1.00  0.00     0.030 A 
HETATM   24  C   UNL     1     -44.200  57.329 -58.405  1.00  0.00     0.019 A 
HETATM   25  C   UNL     1     -43.766  56.023 -58.651  1.00  0.00     0.032 A 
HETATM   26  C   UNL     1     -42.988  55.369 -57.693  1.00  0.00     0.019 A 
HETATM   27  C   UNL     1     -42.625  56.025 -56.512  1.00  0.00     0.030 A 
BRANCH  25  28
HETATM   28  C   UNL     1     -44.120  55.289 -59.895  1.00  0.00     0.249 C 
HETATM   29  N   UNL     1     -44.574  54.006 -59.767  1.00  0.00    -0.366 N 
HETATM   30  H   UNL     1     -44.885  53.625 -58.884  1.00  0.00     0.159 HD
HETATM   31  H   UNL     1     -44.914  53.566 -60.612  1.00  0.00     0.159 HD
HETATM   32  O   UNL     1     -44.042  55.818 -60.998  1.00  0.00    -0.268 OA
ENDBRANCH  25  28
ENDBRANCH  19  22
ENDBRANCH  17  18
ENDBRANCH   1  17
TORSDOF 8
ENDMDL
MODEL 2
REMARK VINA RESULT:      -8.3      2.676      5.196
REMARK  8 active torsions:
REMARK  status: ('A' for Active; 'I' for Inactive)
REMARK    1  A    between atoms: C_5  and  O_6 
REMARK    2  A    between atoms: O_6  and  C_7 
REMARK    3  A    between atoms: C_7  and  C_8 
REMARK    4  A    between atoms: C_12  and  S_13 
REMARK    5  A    between atoms: S_13  and  C_14 
REMARK    6  A    between atoms: C_14  and  C_15 
REMARK       I    between atoms: C_15  and  N_16 
REMARK    7  A    between atoms: N_16  and  C_17 
REMARK    8  A    between atoms: C_20  and  C_21 
REMARK       I    between atoms: C_21  and  N_22 
ROOT
HETATM    1  S   UNL     1     -42.137  59.443 -56.998  1.00  0.00    -0.081 SA
ENDROOT
BRANCH   1   2
HETATM    2  C   UNL     1     -42.029  59.834 -55.329  1.00  0.00     0.185 A 
HETATM    3  N   UNL     1     -42.437  61.028 -54.830  1.00  0.00    -0.254 N 
HETATM    4  N   UNL     1     -42.290  61.065 -53.493  1.00  0.00    -0.155 NA
HETATM    5  H   UNL     1     -42.814  61.830 -55.322  1.00  0.00     0.191 HD
HETATM    6  C   UNL     1     -41.822  59.829 -53.241  1.00  0.00     0.172 A 
HETATM    7  N   UNL     1     -41.622  59.056 -54.362  1.00  0.00    -0.204 NA
BRANCH   6   8
HETATM    8  C   UNL     1     -41.536  59.315 -51.864  1.00  0.00     0.258 C 
BRANCH   8   9
HETATM    9  O   UNL     1     -42.587  58.456 -51.406  1.00  0.00    -0.344 OA
BRANCH   9  10
HETATM   10  C   UNL     1     -42.289  57.129 -51.268  1.00  0.00     0.069 A 
HETATM   11  C   UNL     1     -41.073  56.870 -50.634  1.00  0.00     0.037 A 
HETATM   12  C   UNL     1     -40.646  55.557 -50.416  1.00  0.00     0.009 A 
HETATM   13  C   UNL     1     -41.434  54.481 -50.836  1.00  0.00    -0.062 A 
HETATM   14  C   UNL     1     -41.003  53.069 -50.572  1.00  0.00     0.048 C 
HETATM   15  C   UNL     1     -42.660  54.744 -51.456  1.00  0.00     0.009 A 
HETATM   16  C   UNL     1     -43.084  56.059 -51.677  1.00  0.00     0.037 A 
ENDBRANCH   9  10
ENDBRANCH   8   9
ENDBRANCH   6   8
ENDBRANCH   1   2
BRANCH   1  17
HETATM   17  C   UNL     1     -43.412  58.146 -56.964  1.00  0.00     0.185 C 
BRANCH  17  18
HETATM   18  C   UNL     1     -42.923  56.709 -56.798  1.00  0.00     0.231 C 
HETATM   19  N   UNL     1     -42.462  56.365 -55.544  1.00  0.00    -0.327 N 
HETATM   20  H   UNL     1     -42.391  57.131 -54.885  1.00  0.00     0.169 HD
HETATM   21  O   UNL     1     -43.015  55.939 -57.756  1.00  0.00    -0.272 OA
BRANCH  19  22
HETATM   22  C   UNL     1     -41.925  55.135 -55.120  1.00  0.00     0.034 A 
HETATM   23  C   UNL     1     -42.676  53.971 -54.940  1.00  0.00     0.030 A 
HETATM   24  C   UNL     1     -42.060  52.780 -54.532  1.00  0.00     0.019 A 
HETATM   25  C   UNL     1     -40.681  52.742 -54.302  1.00  0.00     0.032 A 
HETATM   26  C   UNL     1     -39.929  53.910 -54.461  1.00  0.00     0.019 A 
HETATM   27  C   UNL     1     -40.548  55.096 -54.871  1.00  0.00     0.030 A 
BRANCH  25  28
HETATM   28  C   UNL     1     -39.981  51.503 -53.874  1.00  0.00     0.249 C 
HETATM   29  N   UNL     1     -40.286  50.343 -54.530  1.00  0.00    -0.366 N 
HETATM   30  H   UNL     1     -40.780  50.331 -55.411  1.00  0.00     0.159 HD
HETATM   31  H   UNL     1     -39.719  49.537 -54.299  1.00  0.00     0.159 HD
HETATM   32  O   UNL     1     -39.134  51.517 -52.988  1.00  0.00    -0.268 OA
ENDBRANCH  25  28
ENDBRANCH  19  22
ENDBRANCH  17  18
ENDBRANCH   1  17
TORSDOF 8
ENDMDL
MODEL 3
REMARK VINA RESULT:      -8.2      2.586      7.200
REMARK  8 active torsions:
REMARK  status: ('A' for Active; 'I' for Inactive)
REMARK    1  A    between atoms: C_5  and  O_6 
REMARK    2  A    between atoms: O_6  and  C_7 
REMARK    3  A    between atoms: C_7  and  C_8 
REMARK    4  A    between atoms: C_12  and  S_13 
REMARK    5  A    between atoms: S_13  and  C_14 
REMARK    6  A    between atoms: C_14  and  C_15 
REMARK       I    between atoms: C_15  and  N_16 
REMARK    7  A    between atoms: N_16  and  C_17 
REMARK    8  A    between atoms: C_20  and  C_21 
REMARK       I    between atoms: C_21  and  N_22 
ROOT
HETATM    1  S   UNL     1     -43.220  58.129 -51.734  1.00  0.00    -0.081 SA
ENDROOT
BRANCH   1   2
HETATM    2  C   UNL     1     -43.364  57.193 -53.167  1.00  0.00     0.185 A 
HETATM    3  N   UNL     1     -44.484  56.488 -53.469  1.00  0.00    -0.254 N 
HETATM    4  N   UNL     1     -44.361  55.882 -54.665  1.00  0.00    -0.155 NA
HETATM    5  H   UNL     1     -45.336  56.382 -52.932  1.00  0.00     0.191 HD
HETATM    6  C   UNL     1     -43.144  56.303 -55.054  1.00  0.00     0.172 A 
HETATM    7  N   UNL     1     -42.492  57.091 -54.133  1.00  0.00    -0.204 NA
BRANCH   6   8
HETATM    8  C   UNL     1     -42.529  55.957 -56.375  1.00  0.00     0.258 C 
BRANCH   8   9
HETATM    9  O   UNL     1     -42.736  57.004 -57.330  1.00  0.00    -0.344 OA
BRANCH   9  10
HETATM   10  C   UNL     1     -43.861  56.927 -58.103  1.00  0.00     0.069 A 
HETATM   11  C   UNL     1     -43.847  55.899 -59.048  1.00  0.00     0.037 A 
HETATM   12  C   UNL     1     -44.936  55.697 -59.900  1.00  0.00     0.009 A 
HETATM   13  C   UNL     1     -46.056  56.529 -59.820  1.00  0.00    -0.062 A 
HETATM   14  C   UNL     1     -47.245  56.296 -60.704  1.00  0.00     0.048 C 
HETATM   15  C   UNL     1     -46.075  57.548 -58.861  1.00  0.00     0.009 A 
HETATM   16  C   UNL     1     -44.982  57.751 -58.011  1.00  0.00     0.037 A 
ENDBRANCH   9  10
ENDBRANCH   8   9
ENDBRANCH   6   8
ENDBRANCH   1   2
BRANCH   1  17
HETATM   17  C   UNL     1     -41.943  57.191 -50.841  1.00  0.00     0.185 C 
BRANCH  17  18
HETATM   18  C   UNL     1     -41.884  55.688 -51.105  1.00  0.00     0.231 C 
HETATM   19  N   UNL     1     -40.875  55.258 -51.941  1.00  0.00    -0.327 N 
HETATM   20  H   UNL     1     -40.339  55.994 -52.385  1.00  0.00     0.169 HD
HETATM   21  O   UNL     1     -42.690  54.956 -50.528  1.00  0.00    -0.272 OA
BRANCH  19  22
HETATM   22  C   UNL     1     -40.608  53.948 -52.382  1.00  0.00     0.034 A 
HETATM   23  C   UNL     1     -40.946  53.462 -53.646  1.00  0.00     0.030 A 
HETATM   24  C   UNL     1     -40.627  52.148 -54.016  1.00  0.00     0.019 A 
HETATM   25  C   UNL     1     -39.961  51.306 -53.120  1.00  0.00     0.032 A 
HETATM   26  C   UNL     1     -39.639  51.782 -51.846  1.00  0.00     0.019 A 
HETATM   27  C   UNL     1     -39.957  53.095 -51.482  1.00  0.00     0.030 A 
BRANCH  25  28
HETATM   28  C   UNL     1     -39.596  49.907 -53.465  1.00  0.00     0.249 C 
HETATM   29  N   UNL     1     -39.346  49.045 -52.435  1.00  0.00    -0.366 N 
HETATM   30  H   UNL     1     -39.610  49.247 -51.481  1.00  0.00     0.159 HD
HETATM   31  H   UNL     1     -39.210  48.074 -52.687  1.00  0.00     0.159 HD
HETATM   32  O   UNL     1     -39.551  49.523 -54.628  1.00  0.00    -0.268 OA
ENDBRANCH  25  28
ENDBRANCH  19  22
ENDBRANCH  17  18
ENDBRANCH   1  17
TORSDOF 8
ENDMDL
MODEL 4
REMARK VINA RESULT:      -7.8      2.424      6.998
REMARK  8 active torsions:
REMARK  status: ('A' for Active; 'I' for Inactive)
REMARK    1  A    between atoms: C_5  and  O_6 
REMARK    2  A    between atoms: O_6  and  C_7 
REMARK    3  A    between atoms: C_7  and  C_8 
REMARK    4  A    between atoms: C_12  and  S_13 
REMARK    5  A    between atoms: S_13  and  C_14 
REMARK    6  A    between atoms: C_14  and  C_15 
REMARK       I    between atoms: C_15  and  N_16 
REMARK    7  A    between atoms: N_16  and  C_17 
REMARK    8  A    between atoms: C_20  and  C_21 
REMARK       I    between atoms: C_21  and  N_22 
ROOT
HETATM    1  S   UNL     1     -44.004  57.996 -52.330  1.00  0.00    -0.081 SA
ENDROOT
BRANCH   1   2
HETATM    2  C   UNL     1     -43.169  58.690 -53.661  1.00  0.00     0.185 A 
HETATM    3  N   UNL     1     -41.873  59.086 -53.584  1.00  0.00    -0.254 N 
HETATM    4  N   UNL     1     -41.443  59.550 -54.772  1.00  0.00    -0.155 NA
HETATM    5  H   UNL     1     -41.246  59.066 -52.789  1.00  0.00     0.191 HD
HETATM    6  C   UNL     1     -42.530  59.365 -55.542  1.00  0.00     0.172 A 
HETATM    7  N   UNL     1     -43.623  58.861 -54.873  1.00  0.00    -0.204 NA
BRANCH   6   8
HETATM    8  C   UNL     1     -42.572  59.671 -57.007  1.00  0.00     0.258 C 
BRANCH   8   9
HETATM    9  O   UNL     1     -41.830  58.703 -57.757  1.00  0.00    -0.344 OA
BRANCH   9  10
HETATM   10  C   UNL     1     -42.541  57.702 -58.358  1.00  0.00     0.069 A 
HETATM   11  C   UNL     1     -42.959  57.988 -59.660  1.00  0.00     0.037 A 
HETATM   12  C   UNL     1     -43.686  57.051 -60.398  1.00  0.00     0.009 A 
HETATM   13  C   UNL     1     -44.012  55.812 -59.839  1.00  0.00    -0.062 A 
HETATM   14  C   UNL     1     -44.759  54.786 -60.637  1.00  0.00     0.048 C 
HETATM   15  C   UNL     1     -43.578  55.522 -58.541  1.00  0.00     0.009 A 
HETATM   16  C   UNL     1     -42.852  56.463 -57.802  1.00  0.00     0.037 A 
ENDBRANCH   9  10
ENDBRANCH   8   9
ENDBRANCH   6   8
ENDBRANCH   1   2
BRANCH   1  17
HETATM   17  C   UNL     1     -42.629  57.207 -51.438  1.00  0.00     0.185 C 
BRANCH  17  18
HETATM   18  C   UNL     1     -42.463  55.701 -51.626  1.00  0.00     0.231 C 
HETATM   19  N   UNL     1     -41.360  55.297 -52.347  1.00  0.00    -0.327 N 
HETATM   20  H   UNL     1     -40.826  56.044 -52.775  1.00  0.00     0.169 HD
HETATM   21  O   UNL     1     -43.277  54.946 -51.090  1.00  0.00    -0.272 OA
BRANCH  19  22
HETATM   22  C   UNL     1     -40.981  53.988 -52.702  1.00  0.00     0.034 A 
HETATM   23  C   UNL     1     -41.345  53.363 -53.895  1.00  0.00     0.030 A 
HETATM   24  C   UNL     1     -40.910  52.061 -54.182  1.00  0.00     0.019 A 
HETATM   25  C   UNL     1     -40.100  51.373 -53.273  1.00  0.00     0.032 A 
HETATM   26  C   UNL     1     -39.750  51.988 -52.068  1.00  0.00     0.019 A 
HETATM   27  C   UNL     1     -40.184  53.288 -51.787  1.00  0.00     0.030 A 
BRANCH  25  28
HETATM   28  C   UNL     1     -39.609  49.994 -53.532  1.00  0.00     0.249 C 
HETATM   29  N   UNL     1     -39.512  49.145 -52.466  1.00  0.00    -0.366 N 
HETATM   30  H   UNL     1     -39.956  49.333 -51.579  1.00  0.00     0.159 HD
HETATM   31  H   UNL     1     -39.283  48.183 -52.680  1.00  0.00     0.159 HD
HETATM   32  O   UNL     1     -39.331  49.613 -54.663  1.00  0.00    -0.268 OA
ENDBRANCH  25  28
ENDBRANCH  19  22
ENDBRANCH  17  18
ENDBRANCH   1  17
TORSDOF 8
ENDMDL
MODEL 5
REMARK VINA RESULT:      -7.5      2.518      6.283
REMARK  8 active torsions:
REMARK  status: ('A' for Active; 'I' for Inactive)
REMARK    1  A    between atoms: C_5  and  O_6 
REMARK    2  A    between atoms: O_6  and  C_7 
REMARK    3  A    between atoms: C_7  and  C_8 
REMARK    4  A    between atoms: C_12  and  S_13 
REMARK    5  A    between atoms: S_13  and  C_14 
REMARK    6  A    between atoms: C_14  and  C_15 
REMARK       I    between atoms: C_15  and  N_16 
REMARK    7  A    between atoms: N_16  and  C_17 
REMARK    8  A    between atoms: C_20  and  C_21 
REMARK       I    between atoms: C_21  and  N_22 
ROOT
HETATM    1  S   UNL     1     -44.445  60.672 -53.151  1.00  0.00    -0.081 SA
ENDROOT
BRANCH   1   2
HETATM    2  C   UNL     1     -43.778  60.008 -54.588  1.00  0.00     0.185 A 
HETATM    3  N   UNL     1     -43.228  60.778 -55.561  1.00  0.00    -0.254 N 
HETATM    4  N   UNL     1     -42.736  60.015 -56.554  1.00  0.00    -0.155 NA
HETATM    5  H   UNL     1     -43.153  61.787 -55.610  1.00  0.00     0.191 HD
HETATM    6  C   UNL     1     -42.988  58.778 -56.092  1.00  0.00     0.172 A 
HETATM    7  N   UNL     1     -43.659  58.743 -54.890  1.00  0.00    -0.204 NA
BRANCH   6   8
HETATM    8  C   UNL     1     -42.581  57.526 -56.806  1.00  0.00     0.258 C 
BRANCH   8   9
HETATM    9  O   UNL     1     -43.215  56.377 -56.234  1.00  0.00    -0.344 OA
BRANCH   9  10
HETATM   10  C   UNL     1     -42.430  55.533 -55.500  1.00  0.00     0.069 A 
HETATM   11  C   UNL     1     -42.936  54.238 -55.366  1.00  0.00     0.037 A 
HETATM   12  C   UNL     1     -42.232  53.267 -54.650  1.00  0.00     0.009 A 
HETATM   13  C   UNL     1     -41.009  53.581 -54.050  1.00  0.00    -0.062 A 
HETATM   14  C   UNL     1     -40.228  52.535 -53.312  1.00  0.00     0.048 C 
HETATM   15  C   UNL     1     -40.496  54.874 -54.200  1.00  0.00     0.009 A 
HETATM   16  C   UNL     1     -41.204  55.847 -54.915  1.00  0.00     0.037 A 
ENDBRANCH   9  10
ENDBRANCH   8   9
ENDBRANCH   6   8
ENDBRANCH   1   2
BRANCH   1  17
HETATM   17  C   UNL     1     -45.464  59.280 -52.573  1.00  0.00     0.185 C 
BRANCH  17  18
HETATM   18  C   UNL     1     -44.794  58.286 -51.628  1.00  0.00     0.231 C 
HETATM   19  N   UNL     1     -43.641  57.690 -52.093  1.00  0.00    -0.327 N 
HETATM   20  H   UNL     1     -43.412  57.887 -53.060  1.00  0.00     0.169 HD
HETATM   21  O   UNL     1     -45.279  58.116 -50.508  1.00  0.00    -0.272 OA
BRANCH  19  22
HETATM   22  C   UNL     1     -42.844  56.719 -51.457  1.00  0.00     0.034 A 
HETATM   23  C   UNL     1     -41.639  56.995 -50.808  1.00  0.00     0.030 A 
HETATM   24  C   UNL     1     -40.913  55.973 -50.182  1.00  0.00     0.019 A 
HETATM   25  C   UNL     1     -41.391  54.659 -50.198  1.00  0.00     0.032 A 
HETATM   26  C   UNL     1     -42.586  54.373 -50.864  1.00  0.00     0.019 A 
HETATM   27  C   UNL     1     -43.308  55.398 -51.485  1.00  0.00     0.030 A 
BRANCH  25  28
HETATM   28  C   UNL     1     -40.662  53.540 -49.545  1.00  0.00     0.249 C 
HETATM   29  N   UNL     1     -40.065  53.790 -48.341  1.00  0.00    -0.366 N 
HETATM   30  H   UNL     1     -40.281  54.606 -47.786  1.00  0.00     0.159 HD
HETATM   31  H   UNL     1     -39.672  52.989 -47.862  1.00  0.00     0.159 HD
HETATM   32  O   UNL     1     -40.620  52.422 -50.044  1.00  0.00    -0.268 OA
ENDBRANCH  25  28
ENDBRANCH  19  22
ENDBRANCH  17  18
ENDBRANCH   1  17
TORSDOF 8
ENDMDL
MODEL 6
REMARK VINA RESULT:      -7.4      1.573      2.070
REMARK  8 active torsions:
REMARK  status: ('A' for Active; 'I' for Inactive)
REMARK    1  A    between atoms: C_5  and  O_6 
REMARK    2  A    between atoms: O_6  and  C_7 
REMARK    3  A    between atoms: C_7  and  C_8 
REMARK    4  A    between atoms: C_12  and  S_13 
REMARK    5  A    between atoms: S_13  and  C_14 
REMARK    6  A    between atoms: C_14  and  C_15 
REMARK       I    between atoms: C_15  and  N_16 
REMARK    7  A    between atoms: N_16  and  C_17 
REMARK    8  A    between atoms: C_20  and  C_21 
REMARK       I    between atoms: C_21  and  N_22 
ROOT
HETATM    1  S   UNL     1     -42.518  60.763 -53.880  1.00  0.00    -0.081 SA
ENDROOT
BRANCH   1   2
HETATM    2  C   UNL     1     -42.320  59.130 -53.384  1.00  0.00     0.185 A 
HETATM    3  N   UNL     1     -42.612  58.709 -52.127  1.00  0.00    -0.254 N 
HETATM    4  N   UNL     1     -42.416  57.383 -52.009  1.00  0.00    -0.155 NA
HETATM    5  H   UNL     1     -42.940  59.246 -51.333  1.00  0.00     0.191 HD
HETATM    6  C   UNL     1     -42.041  57.055 -53.259  1.00  0.00     0.172 A 
HETATM    7  N   UNL     1     -41.944  58.122 -54.123  1.00  0.00    -0.204 NA
BRANCH   6   8
HETATM    8  C   UNL     1     -41.750  55.654 -53.697  1.00  0.00     0.258 C 
BRANCH   8   9
HETATM    9  O   UNL     1     -40.944  54.968 -52.733  1.00  0.00    -0.344 OA
BRANCH   9  10
HETATM   10  C   UNL     1     -40.587  53.680 -53.022  1.00  0.00     0.069 A 
HETATM   11  C   UNL     1     -40.083  52.960 -51.937  1.00  0.00     0.037 A 
HETATM   12  C   UNL     1     -39.688  51.628 -52.085  1.00  0.00     0.009 A 
HETATM   13  C   UNL     1     -39.789  50.998 -53.328  1.00  0.00    -0.062 A 
HETATM   14  C   UNL     1     -39.405  49.557 -53.488  1.00  0.00     0.048 C 
HETATM   15  C   UNL     1     -40.311  51.716 -54.410  1.00  0.00     0.009 A 
HETATM   16  C   UNL     1     -40.702  53.051 -54.260  1.00  0.00     0.037 A 
ENDBRANCH   9  10
ENDBRANCH   8   9
ENDBRANCH   6   8
ENDBRANCH   1   2
BRANCH   1  17
HETATM   17  C   UNL     1     -44.225  60.726 -54.505  1.00  0.00     0.185 C 
BRANCH  17  18
HETATM   18  C   UNL     1     -44.650  59.471 -55.266  1.00  0.00     0.231 C 
HETATM   19  N   UNL     1     -44.017  59.249 -56.471  1.00  0.00    -0.327 N 
HETATM   20  H   UNL     1     -43.412  59.998 -56.786  1.00  0.00     0.169 HD
HETATM   21  O   UNL     1     -45.475  58.717 -54.748  1.00  0.00    -0.272 OA
BRANCH  19  22
HETATM   22  C   UNL     1     -44.233  58.204 -57.389  1.00  0.00     0.034 A 
HETATM   23  C   UNL     1     -45.274  58.179 -58.318  1.00  0.00     0.030 A 
HETATM   24  C   UNL     1     -45.409  57.108 -59.213  1.00  0.00     0.019 A 
HETATM   25  C   UNL     1     -44.495  56.049 -59.186  1.00  0.00     0.032 A 
HETATM   26  C   UNL     1     -43.463  56.060 -58.244  1.00  0.00     0.019 A 
HETATM   27  C   UNL     1     -43.331  57.132 -57.355  1.00  0.00     0.030 A 
BRANCH  25  28
HETATM   28  C   UNL     1     -44.591  54.893 -60.116  1.00  0.00     0.249 C 
HETATM   29  N   UNL     1     -44.772  53.654 -59.569  1.00  0.00    -0.366 N 
HETATM   30  H   UNL     1     -45.060  53.519 -58.611  1.00  0.00     0.159 HD
HETATM   31  H   UNL     1     -44.946  52.899 -60.221  1.00  0.00     0.159 HD
HETATM   32  O   UNL     1     -44.544  55.041 -61.331  1.00  0.00    -0.268 OA
ENDBRANCH  25  28
ENDBRANCH  19  22
ENDBRANCH  17  18
ENDBRANCH   1  17
TORSDOF 8
ENDMDL
MODEL 7
REMARK VINA RESULT:      -7.4      3.937      8.595
REMARK  8 active torsions:
REMARK  status: ('A' for Active; 'I' for Inactive)
REMARK    1  A    between atoms: C_5  and  O_6 
REMARK    2  A    between atoms: O_6  and  C_7 
REMARK    3  A    between atoms: C_7  and  C_8 
REMARK    4  A    between atoms: C_12  and  S_13 
REMARK    5  A    between atoms: S_13  and  C_14 
REMARK    6  A    between atoms: C_14  and  C_15 
REMARK       I    between atoms: C_15  and  N_16 
REMARK    7  A    between atoms: N_16  and  C_17 
REMARK    8  A    between atoms: C_20  and  C_21 
REMARK       I    between atoms: C_21  and  N_22 
ROOT
HETATM    1  S   UNL     1     -41.370  58.362 -52.529  1.00  0.00    -0.081 SA
ENDROOT
BRANCH   1   2
HETATM    2  C   UNL     1     -41.708  58.845 -54.143  1.00  0.00     0.185 A 
HETATM    3  N   UNL     1     -42.108  57.969 -55.099  1.00  0.00    -0.254 N 
HETATM    4  N   UNL     1     -42.353  58.605 -56.259  1.00  0.00    -0.155 NA
HETATM    5  H   UNL     1     -42.235  56.966 -55.032  1.00  0.00     0.191 HD
HETATM    6  C   UNL     1     -42.118  59.884 -55.918  1.00  0.00     0.172 A 
HETATM    7  N   UNL     1     -41.689  60.060 -54.622  1.00  0.00    -0.204 NA
BRANCH   6   8
HETATM    8  C   UNL     1     -42.304  61.039 -56.853  1.00  0.00     0.258 C 
BRANCH   8   9
HETATM    9  O   UNL     1     -42.143  60.631 -58.216  1.00  0.00    -0.344 OA
BRANCH   9  10
HETATM   10  C   UNL     1     -41.340  61.404 -59.007  1.00  0.00     0.069 A 
HETATM   11  C   UNL     1     -41.645  61.353 -60.369  1.00  0.00     0.037 A 
HETATM   12  C   UNL     1     -40.912  62.102 -61.293  1.00  0.00     0.009 A 
HETATM   13  C   UNL     1     -39.857  62.912 -60.865  1.00  0.00    -0.062 A 
HETATM   14  C   UNL     1     -39.090  63.749 -61.845  1.00  0.00     0.048 C 
HETATM   15  C   UNL     1     -39.565  62.975 -59.499  1.00  0.00     0.009 A 
HETATM   16  C   UNL     1     -40.297  62.222 -58.575  1.00  0.00     0.037 A 
ENDBRANCH   9  10
ENDBRANCH   8   9
ENDBRANCH   6   8
ENDBRANCH   1   2
BRANCH   1  17
HETATM   17  C   UNL     1     -42.817  57.319 -52.174  1.00  0.00     0.185 C 
BRANCH  17  18
HETATM   18  C   UNL     1     -42.594  55.808 -52.190  1.00  0.00     0.231 C 
HETATM   19  N   UNL     1     -41.367  55.381 -52.653  1.00  0.00    -0.327 N 
HETATM   20  H   UNL     1     -40.775  56.106 -53.041  1.00  0.00     0.169 HD
HETATM   21  O   UNL     1     -43.481  55.076 -51.749  1.00  0.00    -0.272 OA
BRANCH  19  22
HETATM   22  C   UNL     1     -40.906  54.060 -52.810  1.00  0.00     0.034 A 
HETATM   23  C   UNL     1     -40.229  53.343 -51.823  1.00  0.00     0.030 A 
HETATM   24  C   UNL     1     -39.819  52.022 -52.052  1.00  0.00     0.019 A 
HETATM   25  C   UNL     1     -40.088  51.405 -53.278  1.00  0.00     0.032 A 
HETATM   26  C   UNL     1     -40.748  52.125 -54.277  1.00  0.00     0.019 A 
HETATM   27  C   UNL     1     -41.158  53.442 -54.042  1.00  0.00     0.030 A 
BRANCH  25  28
HETATM   28  C   UNL     1     -39.680  50.005 -53.569  1.00  0.00     0.249 C 
HETATM   29  N   UNL     1     -39.498  49.657 -54.878  1.00  0.00    -0.366 N 
HETATM   30  H   UNL     1     -39.411  50.342 -55.615  1.00  0.00     0.159 HD
HETATM   31  H   UNL     1     -39.113  48.736 -55.046  1.00  0.00     0.159 HD
HETATM   32  O   UNL     1     -39.478  49.195 -52.672  1.00  0.00    -0.268 OA
ENDBRANCH  25  28
ENDBRANCH  19  22
ENDBRANCH  17  18
ENDBRANCH   1  17
TORSDOF 8
ENDMDL
MODEL 8
REMARK VINA RESULT:      -7.2      4.683      8.977
REMARK  8 active torsions:
REMARK  status: ('A' for Active; 'I' for Inactive)
REMARK    1  A    between atoms: C_5  and  O_6 
REMARK    2  A    between atoms: O_6  and  C_7 
REMARK    3  A    between atoms: C_7  and  C_8 
REMARK    4  A    between atoms: C_12  and  S_13 
REMARK    5  A    between atoms: S_13  and  C_14 
REMARK    6  A    between atoms: C_14  and  C_15 
REMARK       I    between atoms: C_15  and  N_16 
REMARK    7  A    between atoms: N_16  and  C_17 
REMARK    8  A    between atoms: C_20  and  C_21 
REMARK       I    between atoms: C_21  and  N_22 
ROOT
HETATM    1  S   UNL     1     -41.612  58.283 -53.744  1.00  0.00    -0.081 SA
ENDROOT
BRANCH   1   2
HETATM    2  C   UNL     1     -42.609  59.032 -52.562  1.00  0.00     0.185 A 
HETATM    3  N   UNL     1     -43.908  58.685 -52.377  1.00  0.00    -0.254 N 
HETATM    4  N   UNL     1     -44.450  59.384 -51.363  1.00  0.00    -0.155 NA
HETATM    5  H   UNL     1     -44.466  58.006 -52.881  1.00  0.00     0.191 HD
HETATM    6  C   UNL     1     -43.399  60.113 -50.947  1.00  0.00     0.172 A 
HETATM    7  N   UNL     1     -42.254  59.938 -51.691  1.00  0.00    -0.204 NA
BRANCH   6   8
HETATM    8  C   UNL     1     -43.445  61.044 -49.776  1.00  0.00     0.258 C 
BRANCH   8   9
HETATM    9  O   UNL     1     -44.706  60.963 -49.102  1.00  0.00    -0.344 OA
BRANCH   9  10
HETATM   10  C   UNL     1     -44.889  61.782 -48.023  1.00  0.00     0.069 A 
HETATM   11  C   UNL     1     -45.023  61.114 -46.804  1.00  0.00     0.037 A 
HETATM   12  C   UNL     1     -45.205  61.826 -45.616  1.00  0.00     0.009 A 
HETATM   13  C   UNL     1     -45.260  63.222 -45.632  1.00  0.00    -0.062 A 
HETATM   14  C   UNL     1     -45.417  63.996 -44.357  1.00  0.00     0.048 C 
HETATM   15  C   UNL     1     -45.109  63.890 -46.853  1.00  0.00     0.009 A 
HETATM   16  C   UNL     1     -44.930  63.175 -48.042  1.00  0.00     0.037 A 
ENDBRANCH   9  10
ENDBRANCH   8   9
ENDBRANCH   6   8
ENDBRANCH   1   2
BRANCH   1  17
HETATM   17  C   UNL     1     -42.692  56.924 -54.290  1.00  0.00     0.185 C 
BRANCH  17  18
HETATM   18  C   UNL     1     -42.453  55.559 -53.649  1.00  0.00     0.231 C 
HETATM   19  N   UNL     1     -41.193  55.023 -53.813  1.00  0.00    -0.327 N 
HETATM   20  H   UNL     1     -40.583  55.538 -54.437  1.00  0.00     0.169 HD
HETATM   21  O   UNL     1     -43.361  55.049 -52.991  1.00  0.00    -0.272 OA
BRANCH  19  22
HETATM   22  C   UNL     1     -40.710  53.779 -53.366  1.00  0.00     0.034 A 
HETATM   23  C   UNL     1     -40.219  53.544 -52.080  1.00  0.00     0.030 A 
HETATM   24  C   UNL     1     -39.773  52.269 -51.708  1.00  0.00     0.019 A 
HETATM   25  C   UNL     1     -39.817  51.212 -52.623  1.00  0.00     0.032 A 
HETATM   26  C   UNL     1     -40.288  51.447 -53.917  1.00  0.00     0.019 A 
HETATM   27  C   UNL     1     -40.735  52.721 -54.284  1.00  0.00     0.030 A 
BRANCH  25  28
HETATM   28  C   UNL     1     -39.361  49.840 -52.275  1.00  0.00     0.249 C 
HETATM   29  N   UNL     1     -39.020  49.597 -50.974  1.00  0.00    -0.366 N 
HETATM   30  H   UNL     1     -39.270  50.221 -50.220  1.00  0.00     0.159 HD
HETATM   31  H   UNL     1     -38.820  48.633 -50.737  1.00  0.00     0.159 HD
HETATM   32  O   UNL     1     -39.320  48.945 -53.111  1.00  0.00    -0.268 OA
ENDBRANCH  25  28
ENDBRANCH  19  22
ENDBRANCH  17  18
ENDBRANCH   1  17
TORSDOF 8
ENDMDL
MODEL 9
REMARK VINA RESULT:      -7.2      2.791      3.740
REMARK  8 active torsions:
REMARK  status: ('A' for Active; 'I' for Inactive)
REMARK    1  A    between atoms: C_5  and  O_6 
REMARK    2  A    between atoms: O_6  and  C_7 
REMARK    3  A    between atoms: C_7  and  C_8 
REMARK    4  A    between atoms: C_12  and  S_13 
REMARK    5  A    between atoms: S_13  and  C_14 
REMARK    6  A    between atoms: C_14  and  C_15 
REMARK       I    between atoms: C_15  and  N_16 
REMARK    7  A    between atoms: N_16  and  C_17 
REMARK    8  A    between atoms: C_20  and  C_21 
REMARK       I    between atoms: C_21  and  N_22 
ROOT
HETATM    1  S   UNL     1     -42.474  59.015 -56.076  1.00  0.00    -0.081 SA
ENDROOT
BRANCH   1   2
HETATM    2  C   UNL     1     -42.310  58.423 -54.472  1.00  0.00     0.185 A 
HETATM    3  N   UNL     1     -43.024  58.923 -53.432  1.00  0.00    -0.254 N 
HETATM    4  N   UNL     1     -42.746  58.257 -52.296  1.00  0.00    -0.155 NA
HETATM    5  H   UNL     1     -43.693  59.684 -53.425  1.00  0.00     0.191 HD
HETATM    6  C   UNL     1     -41.878  57.329 -52.735  1.00  0.00     0.172 A 
HETATM    7  N   UNL     1     -41.566  57.426 -54.072  1.00  0.00    -0.204 NA
BRANCH   6   8
HETATM    8  C   UNL     1     -41.287  56.266 -51.861  1.00  0.00     0.258 C 
BRANCH   8   9
HETATM    9  O   UNL     1     -42.053  55.059 -51.928  1.00  0.00    -0.344 OA
BRANCH   9  10
HETATM   10  C   UNL     1     -41.471  53.985 -52.542  1.00  0.00     0.069 A 
HETATM   11  C   UNL     1     -40.560  53.286 -51.748  1.00  0.00     0.037 A 
HETATM   12  C   UNL     1     -39.897  52.160 -52.243  1.00  0.00     0.009 A 
HETATM   13  C   UNL     1     -40.135  51.720 -53.548  1.00  0.00    -0.062 A 
HETATM   14  C   UNL     1     -39.458  50.490 -54.076  1.00  0.00     0.048 C 
HETATM   15  C   UNL     1     -41.062  52.412 -54.336  1.00  0.00     0.009 A 
HETATM   16  C   UNL     1     -41.722  53.541 -53.840  1.00  0.00     0.037 A 
ENDBRANCH   9  10
ENDBRANCH   8   9
ENDBRANCH   6   8
ENDBRANCH   1   2
BRANCH   1  17
HETATM   17  C   UNL     1     -42.583  57.457 -57.007  1.00  0.00     0.185 C 
BRANCH  17  18
HETATM   18  C   UNL     1     -43.360  57.495 -58.321  1.00  0.00     0.231 C 
HETATM   19  N   UNL     1     -44.699  57.175 -58.243  1.00  0.00    -0.327 N 
HETATM   20  H   UNL     1     -45.011  56.839 -57.340  1.00  0.00     0.169 HD
HETATM   21  O   UNL     1     -42.774  57.853 -59.344  1.00  0.00    -0.272 OA
BRANCH  19  22
HETATM   22  C   UNL     1     -45.638  57.095 -59.288  1.00  0.00     0.034 A 
HETATM   23  C   UNL     1     -45.912  55.932 -60.010  1.00  0.00     0.030 A 
HETATM   24  C   UNL     1     -46.878  55.931 -61.026  1.00  0.00     0.019 A 
HETATM   25  C   UNL     1     -47.584  57.100 -61.327  1.00  0.00     0.032 A 
HETATM   26  C   UNL     1     -47.299  58.272 -60.622  1.00  0.00     0.019 A 
HETATM   27  C   UNL     1     -46.336  58.267 -59.607  1.00  0.00     0.030 A 
BRANCH  25  28
HETATM   28  C   UNL     1     -48.621  57.150 -62.391  1.00  0.00     0.249 C 
HETATM   29  N   UNL     1     -49.528  58.171 -62.345  1.00  0.00    -0.366 N 
HETATM   30  H   UNL     1     -49.392  58.993 -61.773  1.00  0.00     0.159 HD
HETATM   31  H   UNL     1     -50.152  58.251 -63.137  1.00  0.00     0.159 HD
HETATM   32  O   UNL     1     -48.649  56.328 -63.300  1.00  0.00    -0.268 OA
ENDBRANCH  25  28
ENDBRANCH  19  22
ENDBRANCH  17  18
ENDBRANCH   1  17
TORSDOF 8
ENDMDL
MODEL 10
REMARK VINA RESULT:      -7.1      2.651      7.748
REMARK  8 active torsions:
REMARK  status: ('A' for Active; 'I' for Inactive)
REMARK    1  A    between atoms: C_5  and  O_6 
REMARK    2  A    between atoms: O_6  and  C_7 
REMARK    3  A    between atoms: C_7  and  C_8 
REMARK    4  A    between atoms: C_12  and  S_13 
REMARK    5  A    between atoms: S_13  and  C_14 
REMARK    6  A    between atoms: C_14  and  C_15 
REMARK       I    between atoms: C_15  and  N_16 
REMARK    7  A    between atoms: N_16  and  C_17 
REMARK    8  A    between atoms: C_20  and  C_21 
REMARK       I    between atoms: C_21  and  N_22 
ROOT
HETATM    1  S   UNL     1     -41.130  58.327 -52.498  1.00  0.00    -0.081 SA
ENDROOT
BRANCH   1   2
HETATM    2  C   UNL     1     -41.670  58.299 -54.128  1.00  0.00     0.185 A 
HETATM    3  N   UNL     1     -41.806  57.146 -54.832  1.00  0.00    -0.254 N 
HETATM    4  N   UNL     1     -42.288  57.392 -56.064  1.00  0.00    -0.155 NA
HETATM    5  H   UNL     1     -41.603  56.196 -54.546  1.00  0.00     0.191 HD
HETATM    6  C   UNL     1     -42.462  58.725 -56.023  1.00  0.00     0.172 A 
HETATM    7  N   UNL     1     -42.059  59.317 -54.847  1.00  0.00    -0.204 NA
BRANCH   6   8
HETATM    8  C   UNL     1     -43.044  59.521 -57.149  1.00  0.00     0.258 C 
BRANCH   8   9
HETATM    9  O   UNL     1     -44.474  59.443 -57.150  1.00  0.00    -0.344 OA
BRANCH   9  10
HETATM   10  C   UNL     1     -45.054  58.648 -58.099  1.00  0.00     0.069 A 
HETATM   11  C   UNL     1     -46.447  58.583 -58.030  1.00  0.00     0.037 A 
HETATM   12  C   UNL     1     -47.173  57.816 -58.945  1.00  0.00     0.009 A 
HETATM   13  C   UNL     1     -46.510  57.095 -59.942  1.00  0.00    -0.062 A 
HETATM   14  C   UNL     1     -47.282  56.300 -60.952  1.00  0.00     0.048 C 
HETATM   15  C   UNL     1     -45.115  57.175 -60.020  1.00  0.00     0.009 A 
HETATM   16  C   UNL     1     -44.390  57.941 -59.101  1.00  0.00     0.037 A 
ENDBRANCH   9  10
ENDBRANCH   8   9
ENDBRANCH   6   8
ENDBRANCH   1   2
BRANCH   1  17
HETATM   17  C   UNL     1     -42.388  57.281 -51.702  1.00  0.00     0.185 C 
BRANCH  17  18
HETATM   18  C   UNL     1     -42.292  55.779 -51.957  1.00  0.00     0.231 C 
HETATM   19  N   UNL     1     -41.018  55.264 -52.074  1.00  0.00    -0.327 N 
HETATM   20  H   UNL     1     -40.274  55.951 -52.090  1.00  0.00     0.169 HD
HETATM   21  O   UNL     1     -43.331  55.118 -51.989  1.00  0.00    -0.272 OA
BRANCH  19  22
HETATM   22  C   UNL     1     -40.636  53.936 -52.343  1.00  0.00     0.034 A 
HETATM   23  C   UNL     1     -40.019  53.094 -51.415  1.00  0.00     0.030 A 
HETATM   24  C   UNL     1     -39.687  51.776 -51.757  1.00  0.00     0.019 A 
HETATM   25  C   UNL     1     -39.973  51.286 -53.035  1.00  0.00     0.032 A 
HETATM   26  C   UNL     1     -40.572  52.131 -53.973  1.00  0.00     0.019 A 
HETATM   27  C   UNL     1     -40.904  53.445 -53.627  1.00  0.00     0.030 A 
BRANCH  25  28
HETATM   28  C   UNL     1     -39.646  49.895 -53.444  1.00  0.00     0.249 C 
HETATM   29  N   UNL     1     -39.249  49.024 -52.468  1.00  0.00    -0.366 N 
HETATM   30  H   UNL     1     -39.381  49.212 -51.485  1.00  0.00     0.159 HD
HETATM   31  H   UNL     1     -39.139  48.058 -52.749  1.00  0.00     0.159 HD
HETATM   32  O   UNL     1     -39.757  49.524 -54.607  1.00  0.00    -0.268 OA
ENDBRANCH  25  28
ENDBRANCH  19  22
ENDBRANCH  17  18
ENDBRANCH   1  17
TORSDOF 8
ENDMDL
