MODEL 1
REMARK VINA RESULT:      -7.7      0.000      0.000
REMARK  6 active torsions:
REMARK  status: ('A' for Active; 'I' for Inactive)
REMARK    1  A    between atoms: O_2  and  C_3 
REMARK    2  A    between atoms: C_6  and  C_7 
REMARK    3  A    between atoms: C_7  and  N_8 
REMARK    4  A    between atoms: N_8  and  C_9 
REMARK    5  A    between atoms: C_15  and  C_16 
REMARK       I    between atoms: C_16  and  N_17 
REMARK    6  A    between atoms: N_17  and  C_18 
ROOT
HETATM    1  C   UNL     1     -39.808  52.117 -52.244  1.00  0.00     0.096 A 
HETATM    2  N   UNL     1     -39.506  50.910 -51.731  1.00  0.00    -0.356 N 
HETATM    3  H   UNL     1     -39.165  50.894 -50.771  1.00  0.00     0.166 HD
HETATM    4  C   UNL     1     -39.570  49.765 -52.424  1.00  0.00     0.089 A 
HETATM    5  C   UNL     1     -39.940  49.785 -53.760  1.00  0.00     0.018 A 
HETATM    6  C   UNL     1     -40.201  51.008 -54.373  1.00  0.00     0.022 A 
HETATM    7  C   UNL     1     -40.101  52.190 -53.630  1.00  0.00     0.070 A 
ENDROOT
BRANCH   1   8
HETATM    8  N   UNL     1     -39.675  53.234 -51.416  1.00  0.00    -0.274 NA
HETATM    9  H   UNL     1     -39.911  54.078 -51.966  1.00  0.00     0.129 HD
BRANCH   8  10
HETATM   10  C   UNL     1     -40.466  53.275 -50.182  1.00  0.00     0.132 C 
BRANCH  10  11
HETATM   11  C   UNL     1     -41.606  54.251 -50.321  1.00  0.00    -0.045 A 
HETATM   12  C   UNL     1     -41.368  55.631 -50.227  1.00  0.00     0.011 A 
HETATM   13  C   UNL     1     -42.402  56.553 -50.409  1.00  0.00     0.037 A 
HETATM   14  C   UNL     1     -43.691  56.108 -50.692  1.00  0.00     0.068 A 
HETATM   15  C   UNL     1     -43.939  54.735 -50.770  1.00  0.00     0.037 A 
HETATM   16  C   UNL     1     -42.905  53.810 -50.600  1.00  0.00     0.011 A 
BRANCH  14  17
HETATM   17  O   UNL     1     -44.781  56.905 -50.902  1.00  0.00    -0.356 OA
HETATM   18  C   UNL     1     -44.672  57.861 -51.952  1.00  0.00     0.210 C 
ENDBRANCH  14  17
ENDBRANCH  10  11
ENDBRANCH   8  10
ENDBRANCH   1   8
BRANCH   7  19
HETATM   19  C   UNL     1     -40.337  53.528 -54.243  1.00  0.00     0.259 C 
HETATM   20  N   UNL     1     -41.244  54.352 -53.614  1.00  0.00    -0.320 N 
HETATM   21  H   UNL     1     -41.674  54.059 -52.742  1.00  0.00     0.169 HD
HETATM   22  O   UNL     1     -39.728  53.773 -55.280  1.00  0.00    -0.267 OA
BRANCH  20  23
HETATM   23  C   UNL     1     -41.726  55.607 -54.078  1.00  0.00     0.075 A 
HETATM   24  C   UNL     1     -42.800  55.644 -54.977  1.00  0.00     0.152 A 
HETATM   25 CL   UNL     1     -43.576  54.193 -55.501  1.00  0.00    -0.060 Cl
HETATM   26  N   UNL     1     -43.332  56.760 -55.520  1.00  0.00    -0.247 NA
HETATM   27  C   UNL     1     -42.765  57.927 -55.152  1.00  0.00     0.118 A 
HETATM   28  C   UNL     1     -41.700  58.014 -54.269  1.00  0.00     0.022 A 
HETATM   29  C   UNL     1     -41.178  56.839 -53.724  1.00  0.00     0.034 A 
ENDBRANCH  20  23
ENDBRANCH   7  19
TORSDOF 6
ENDMDL
MODEL 2
REMARK VINA RESULT:      -7.4      2.363      3.791
REMARK  6 active torsions:
REMARK  status: ('A' for Active; 'I' for Inactive)
REMARK    1  A    between atoms: O_2  and  C_3 
REMARK    2  A    between atoms: C_6  and  C_7 
REMARK    3  A    between atoms: C_7  and  N_8 
REMARK    4  A    between atoms: N_8  and  C_9 
REMARK    5  A    between atoms: C_15  and  C_16 
REMARK       I    between atoms: C_16  and  N_17 
REMARK    6  A    between atoms: N_17  and  C_18 
ROOT
HETATM    1  C   UNL     1     -39.727  51.758 -52.456  1.00  0.00     0.096 A 
HETATM    2  N   UNL     1     -39.512  50.464 -52.759  1.00  0.00    -0.356 N 
HETATM    3  H   UNL     1     -39.339  50.246 -53.739  1.00  0.00     0.166 HD
HETATM    4  C   UNL     1     -39.576  49.466 -51.866  1.00  0.00     0.089 A 
HETATM    5  C   UNL     1     -39.905  49.738 -50.546  1.00  0.00     0.018 A 
HETATM    6  C   UNL     1     -40.207  51.047 -50.179  1.00  0.00     0.022 A 
HETATM    7  C   UNL     1     -40.157  52.064 -51.140  1.00  0.00     0.070 A 
ENDROOT
BRANCH   1   8
HETATM    8  N   UNL     1     -39.653  52.694 -53.490  1.00  0.00    -0.274 NA
HETATM    9  H   UNL     1     -38.684  52.700 -53.857  1.00  0.00     0.129 HD
BRANCH   8  10
HETATM   10  C   UNL     1     -40.556  52.529 -54.634  1.00  0.00     0.132 C 
BRANCH  10  11
HETATM   11  C   UNL     1     -41.395  53.766 -54.824  1.00  0.00    -0.045 A 
HETATM   12  C   UNL     1     -42.786  53.710 -54.641  1.00  0.00     0.011 A 
HETATM   13  C   UNL     1     -43.573  54.859 -54.758  1.00  0.00     0.037 A 
HETATM   14  C   UNL     1     -42.979  56.083 -55.056  1.00  0.00     0.068 A 
HETATM   15  C   UNL     1     -41.597  56.143 -55.257  1.00  0.00     0.037 A 
HETATM   16  C   UNL     1     -40.806  54.999 -55.129  1.00  0.00     0.011 A 
BRANCH  14  17
HETATM   17  O   UNL     1     -43.634  57.275 -55.186  1.00  0.00    -0.356 OA
HETATM   18  C   UNL     1     -44.908  57.369 -54.554  1.00  0.00     0.210 C 
ENDBRANCH  14  17
ENDBRANCH  10  11
ENDBRANCH   8  10
ENDBRANCH   1   8
BRANCH   7  19
HETATM   19  C   UNL     1     -40.502  53.476 -50.810  1.00  0.00     0.259 C 
HETATM   20  N   UNL     1     -41.617  54.006 -51.422  1.00  0.00    -0.320 N 
HETATM   21  H   UNL     1     -42.191  53.421 -52.021  1.00  0.00     0.169 HD
HETATM   22  O   UNL     1     -39.744  54.064 -50.045  1.00  0.00    -0.267 OA
BRANCH  20  23
HETATM   23  C   UNL     1     -42.065  55.355 -51.367  1.00  0.00     0.075 A 
HETATM   24  C   UNL     1     -43.366  55.633 -50.924  1.00  0.00     0.152 A 
HETATM   25 CL   UNL     1     -44.421  54.368 -50.407  1.00  0.00    -0.060 Cl
HETATM   26  N   UNL     1     -43.926  56.859 -50.854  1.00  0.00    -0.247 NA
HETATM   27  C   UNL     1     -43.151  57.889 -51.250  1.00  0.00     0.118 A 
HETATM   28  C   UNL     1     -41.850  57.736 -51.704  1.00  0.00     0.022 A 
HETATM   29  C   UNL     1     -41.301  56.453 -51.760  1.00  0.00     0.034 A 
ENDBRANCH  20  23
ENDBRANCH   7  19
TORSDOF 6
ENDMDL
MODEL 3
REMARK VINA RESULT:      -7.3      2.689      5.516
REMARK  6 active torsions:
REMARK  status: ('A' for Active; 'I' for Inactive)
REMARK    1  A    between atoms: O_2  and  C_3 
REMARK    2  A    between atoms: C_6  and  C_7 
REMARK    3  A    between atoms: C_7  and  N_8 
REMARK    4  A    between atoms: N_8  and  C_9 
REMARK    5  A    between atoms: C_15  and  C_16 
REMARK       I    between atoms: C_16  and  N_17 
REMARK    6  A    between atoms: N_17  and  C_18 
ROOT
HETATM    1  C   UNL     1     -42.055  57.254 -51.779  1.00  0.00     0.096 A 
HETATM    2  N   UNL     1     -42.065  57.865 -50.580  1.00  0.00    -0.356 N 
HETATM    3  H   UNL     1     -42.833  57.631 -49.954  1.00  0.00     0.166 HD
HETATM    4  C   UNL     1     -41.170  58.790 -50.204  1.00  0.00     0.089 A 
HETATM    5  C   UNL     1     -40.175  59.187 -51.084  1.00  0.00     0.018 A 
HETATM    6  C   UNL     1     -40.148  58.646 -52.367  1.00  0.00     0.022 A 
HETATM    7  C   UNL     1     -41.111  57.701 -52.739  1.00  0.00     0.070 A 
ENDROOT
BRANCH   1   8
HETATM    8  N   UNL     1     -43.063  56.326 -52.051  1.00  0.00    -0.274 NA
HETATM    9  H   UNL     1     -43.061  56.130 -53.068  1.00  0.00     0.129 HD
BRANCH   8  10
HETATM   10  C   UNL     1     -43.018  55.038 -51.352  1.00  0.00     0.132 C 
BRANCH  10  11
HETATM   11  C   UNL     1     -42.010  54.124 -51.999  1.00  0.00    -0.045 A 
HETATM   12  C   UNL     1     -40.922  53.636 -51.258  1.00  0.00     0.011 A 
HETATM   13  C   UNL     1     -40.009  52.743 -51.824  1.00  0.00     0.037 A 
HETATM   14  C   UNL     1     -40.173  52.320 -53.141  1.00  0.00     0.068 A 
HETATM   15  C   UNL     1     -41.243  52.815 -53.891  1.00  0.00     0.037 A 
HETATM   16  C   UNL     1     -42.166  53.699 -53.324  1.00  0.00     0.011 A 
BRANCH  14  17
HETATM   17  O   UNL     1     -39.359  51.445 -53.803  1.00  0.00    -0.356 OA
HETATM   18  C   UNL     1     -39.975  50.260 -54.299  1.00  0.00     0.210 C 
ENDBRANCH  14  17
ENDBRANCH  10  11
ENDBRANCH   8  10
ENDBRANCH   1   8
BRANCH   7  19
HETATM   19  C   UNL     1     -41.149  57.113 -54.108  1.00  0.00     0.259 C 
HETATM   20  N   UNL     1     -42.147  57.555 -54.950  1.00  0.00    -0.320 N 
HETATM   21  H   UNL     1     -42.777  58.290 -54.645  1.00  0.00     0.169 HD
HETATM   22  O   UNL     1     -40.308  56.257 -54.364  1.00  0.00    -0.267 OA
BRANCH  20  23
HETATM   23  C   UNL     1     -42.462  57.052 -56.242  1.00  0.00     0.075 A 
HETATM   24  C   UNL     1     -42.403  57.909 -57.350  1.00  0.00     0.152 A 
HETATM   25 CL   UNL     1     -41.914  59.556 -57.179  1.00  0.00    -0.060 Cl
HETATM   26  N   UNL     1     -42.707  57.571 -58.621  1.00  0.00    -0.247 NA
HETATM   27  C   UNL     1     -43.100  56.297 -58.819  1.00  0.00     0.118 A 
HETATM   28  C   UNL     1     -43.195  55.360 -57.801  1.00  0.00     0.022 A 
HETATM   29  C   UNL     1     -42.869  55.744 -56.498  1.00  0.00     0.034 A 
ENDBRANCH  20  23
ENDBRANCH   7  19
TORSDOF 6
ENDMDL
MODEL 4
REMARK VINA RESULT:      -7.3      3.129      7.242
REMARK  6 active torsions:
REMARK  status: ('A' for Active; 'I' for Inactive)
REMARK    1  A    between atoms: O_2  and  C_3 
REMARK    2  A    between atoms: C_6  and  C_7 
REMARK    3  A    between atoms: C_7  and  N_8 
REMARK    4  A    between atoms: N_8  and  C_9 
REMARK    5  A    between atoms: C_15  and  C_16 
REMARK       I    between atoms: C_16  and  N_17 
REMARK    6  A    between atoms: N_17  and  C_18 
ROOT
HETATM    1  C   UNL     1     -43.515  56.722 -53.573  1.00  0.00     0.096 A 
HETATM    2  N   UNL     1     -43.963  57.991 -53.605  1.00  0.00    -0.356 N 
HETATM    3  H   UNL     1     -43.879  58.483 -54.494  1.00  0.00     0.166 HD
HETATM    4  C   UNL     1     -44.442  58.643 -52.536  1.00  0.00     0.089 A 
HETATM    5  C   UNL     1     -44.471  58.017 -51.300  1.00  0.00     0.018 A 
HETATM    6  C   UNL     1     -43.959  56.727 -51.181  1.00  0.00     0.022 A 
HETATM    7  C   UNL     1     -43.443  56.081 -52.310  1.00  0.00     0.070 A 
ENDROOT
BRANCH   1   8
HETATM    8  N   UNL     1     -43.018  56.172 -54.756  1.00  0.00    -0.274 NA
HETATM    9  H   UNL     1     -43.806  55.738 -55.270  1.00  0.00     0.129 HD
BRANCH   8  10
HETATM   10  C   UNL     1     -42.320  57.061 -55.689  1.00  0.00     0.132 C 
BRANCH  10  11
HETATM   11  C   UNL     1     -42.791  56.818 -57.100  1.00  0.00    -0.045 A 
HETATM   12  C   UNL     1     -42.763  57.858 -58.042  1.00  0.00     0.011 A 
HETATM   13  C   UNL     1     -43.143  57.637 -59.369  1.00  0.00     0.037 A 
HETATM   14  C   UNL     1     -43.552  56.369 -59.774  1.00  0.00     0.068 A 
HETATM   15  C   UNL     1     -43.599  55.332 -58.838  1.00  0.00     0.037 A 
HETATM   16  C   UNL     1     -43.209  55.547 -57.513  1.00  0.00     0.011 A 
BRANCH  14  17
HETATM   17  O   UNL     1     -43.935  56.023 -61.040  1.00  0.00    -0.356 OA
HETATM   18  C   UNL     1     -45.065  55.162 -61.145  1.00  0.00     0.210 C 
ENDBRANCH  14  17
ENDBRANCH  10  11
ENDBRANCH   8  10
ENDBRANCH   1   8
BRANCH   7  19
HETATM   19  C   UNL     1     -42.853  54.714 -52.233  1.00  0.00     0.259 C 
HETATM   20  N   UNL     1     -41.617  54.534 -52.815  1.00  0.00    -0.320 N 
HETATM   21  H   UNL     1     -41.128  55.325 -53.219  1.00  0.00     0.169 HD
HETATM   22  O   UNL     1     -43.533  53.851 -51.687  1.00  0.00    -0.267 OA
BRANCH  20  23
HETATM   23  C   UNL     1     -40.921  53.305 -52.982  1.00  0.00     0.075 A 
HETATM   24  C   UNL     1     -40.091  52.836 -51.954  1.00  0.00     0.152 A 
HETATM   25 CL   UNL     1     -39.930  53.705 -50.471  1.00  0.00    -0.060 Cl
HETATM   26  N   UNL     1     -39.351  51.708 -51.996  1.00  0.00    -0.247 NA
HETATM   27  C   UNL     1     -39.431  50.987 -53.132  1.00  0.00     0.118 A 
HETATM   28  C   UNL     1     -40.218  51.350 -54.214  1.00  0.00     0.022 A 
HETATM   29  C   UNL     1     -40.974  52.522 -54.135  1.00  0.00     0.034 A 
ENDBRANCH  20  23
ENDBRANCH   7  19
TORSDOF 6
ENDMDL
MODEL 5
REMARK VINA RESULT:      -7.3      3.157      6.266
REMARK  6 active torsions:
REMARK  status: ('A' for Active; 'I' for Inactive)
REMARK    1  A    between atoms: O_2  and  C_3 
REMARK    2  A    between atoms: C_6  and  C_7 
REMARK    3  A    between atoms: C_7  and  N_8 
REMARK    4  A    between atoms: N_8  and  C_9 
REMARK    5  A    between atoms: C_15  and  C_16 
REMARK       I    between atoms: C_16  and  N_17 
REMARK    6  A    between atoms: N_17  and  C_18 
ROOT
HETATM    1  C   UNL     1     -41.710  56.643 -54.114  1.00  0.00     0.096 A 
HETATM    2  N   UNL     1     -40.991  57.088 -53.067  1.00  0.00    -0.356 N 
HETATM    3  H   UNL     1     -40.722  56.396 -52.369  1.00  0.00     0.166 HD
HETATM    4  C   UNL     1     -40.674  58.376 -52.870  1.00  0.00     0.089 A 
HETATM    5  C   UNL     1     -41.116  59.341 -53.762  1.00  0.00     0.018 A 
HETATM    6  C   UNL     1     -41.923  58.958 -54.831  1.00  0.00     0.022 A 
HETATM    7  C   UNL     1     -42.258  57.610 -54.996  1.00  0.00     0.070 A 
ENDROOT
BRANCH   1   8
HETATM    8  N   UNL     1     -41.990  55.277 -54.184  1.00  0.00    -0.274 NA
HETATM    9  H   UNL     1     -42.902  55.154 -54.659  1.00  0.00     0.129 HD
BRANCH   8  10
HETATM   10  C   UNL     1     -41.020  54.409 -54.859  1.00  0.00     0.132 C 
BRANCH  10  11
HETATM   11  C   UNL     1     -40.546  53.324 -53.928  1.00  0.00    -0.045 A 
HETATM   12  C   UNL     1     -40.162  52.074 -54.438  1.00  0.00     0.011 A 
HETATM   13  C   UNL     1     -39.667  51.075 -53.596  1.00  0.00     0.037 A 
HETATM   14  C   UNL     1     -39.544  51.313 -52.229  1.00  0.00     0.068 A 
HETATM   15  C   UNL     1     -39.941  52.549 -51.711  1.00  0.00     0.037 A 
HETATM   16  C   UNL     1     -40.426  53.555 -52.552  1.00  0.00     0.011 A 
BRANCH  14  17
HETATM   17  O   UNL     1     -39.066  50.426 -51.306  1.00  0.00    -0.356 OA
HETATM   18  C   UNL     1     -40.034  49.802 -50.468  1.00  0.00     0.210 C 
ENDBRANCH  14  17
ENDBRANCH  10  11
ENDBRANCH   8  10
ENDBRANCH   1   8
BRANCH   7  19
HETATM   19  C   UNL     1     -43.145  57.148 -56.102  1.00  0.00     0.259 C 
HETATM   20  N   UNL     1     -42.539  56.511 -57.163  1.00  0.00    -0.320 N 
HETATM   21  H   UNL     1     -41.542  56.326 -57.140  1.00  0.00     0.169 HD
HETATM   22  O   UNL     1     -44.340  57.405 -55.993  1.00  0.00    -0.267 OA
BRANCH  20  23
HETATM   23  C   UNL     1     -43.152  56.104 -58.380  1.00  0.00     0.075 A 
HETATM   24  C   UNL     1     -43.055  56.926 -59.512  1.00  0.00     0.152 A 
HETATM   25 CL   UNL     1     -42.167  58.406 -59.465  1.00  0.00    -0.060 Cl
HETATM   26  N   UNL     1     -43.615  56.676 -60.714  1.00  0.00    -0.247 NA
HETATM   27  C   UNL     1     -44.325  55.534 -60.812  1.00  0.00     0.118 A 
HETATM   28  C   UNL     1     -44.490  54.644 -59.762  1.00  0.00     0.022 A 
HETATM   29  C   UNL     1     -43.893  54.933 -58.533  1.00  0.00     0.034 A 
ENDBRANCH  20  23
ENDBRANCH   7  19
TORSDOF 6
ENDMDL
MODEL 6
REMARK VINA RESULT:      -7.2      3.156      5.520
REMARK  6 active torsions:
REMARK  status: ('A' for Active; 'I' for Inactive)
REMARK    1  A    between atoms: O_2  and  C_3 
REMARK    2  A    between atoms: C_6  and  C_7 
REMARK    3  A    between atoms: C_7  and  N_8 
REMARK    4  A    between atoms: N_8  and  C_9 
REMARK    5  A    between atoms: C_15  and  C_16 
REMARK       I    between atoms: C_16  and  N_17 
REMARK    6  A    between atoms: N_17  and  C_18 
ROOT
HETATM    1  C   UNL     1     -42.483  55.965 -56.262  1.00  0.00     0.096 A 
HETATM    2  N   UNL     1     -42.479  55.633 -57.567  1.00  0.00    -0.356 N 
HETATM    3  H   UNL     1     -41.794  54.939 -57.860  1.00  0.00     0.166 HD
HETATM    4  C   UNL     1     -43.270  56.204 -58.486  1.00  0.00     0.089 A 
HETATM    5  C   UNL     1     -44.140  57.219 -58.117  1.00  0.00     0.018 A 
HETATM    6  C   UNL     1     -44.146  57.659 -56.796  1.00  0.00     0.022 A 
HETATM    7  C   UNL     1     -43.291  57.061 -55.863  1.00  0.00     0.070 A 
ENDROOT
BRANCH   1   8
HETATM    8  N   UNL     1     -41.588  55.307 -55.416  1.00  0.00    -0.274 NA
HETATM    9  H   UNL     1     -41.380  55.929 -54.614  1.00  0.00     0.129 HD
BRANCH   8  10
HETATM   10  C   UNL     1     -41.987  54.005 -54.871  1.00  0.00     0.132 C 
BRANCH  10  11
HETATM   11  C   UNL     1     -41.919  54.022 -53.366  1.00  0.00    -0.045 A 
HETATM   12  C   UNL     1     -40.688  53.857 -52.713  1.00  0.00     0.011 A 
HETATM   13  C   UNL     1     -40.598  53.925 -51.320  1.00  0.00     0.037 A 
HETATM   14  C   UNL     1     -41.740  54.164 -50.559  1.00  0.00     0.068 A 
HETATM   15  C   UNL     1     -42.972  54.312 -51.201  1.00  0.00     0.037 A 
HETATM   16  C   UNL     1     -43.064  54.256 -52.594  1.00  0.00     0.011 A 
BRANCH  14  17
HETATM   17  O   UNL     1     -41.782  54.265 -49.197  1.00  0.00    -0.356 OA
HETATM   18  C   UNL     1     -40.633  53.803 -48.493  1.00  0.00     0.210 C 
ENDBRANCH  14  17
ENDBRANCH  10  11
ENDBRANCH   8  10
ENDBRANCH   1   8
BRANCH   7  19
HETATM   19  C   UNL     1     -43.232  57.514 -54.445  1.00  0.00     0.259 C 
HETATM   20  N   UNL     1     -42.034  58.031 -54.003  1.00  0.00    -0.320 N 
HETATM   21  H   UNL     1     -41.260  58.140 -54.651  1.00  0.00     0.169 HD
HETATM   22  O   UNL     1     -44.248  57.358 -53.774  1.00  0.00    -0.267 OA
BRANCH  20  23
HETATM   23  C   UNL     1     -41.700  58.403 -52.671  1.00  0.00     0.075 A 
HETATM   24  C   UNL     1     -41.876  59.732 -52.261  1.00  0.00     0.152 A 
HETATM   25 CL   UNL     1     -42.530  60.918 -53.333  1.00  0.00    -0.060 Cl
HETATM   26  N   UNL     1     -41.571  60.224 -51.041  1.00  0.00    -0.247 NA
HETATM   27  C   UNL     1     -41.052  59.345 -50.160  1.00  0.00     0.118 A 
HETATM   28  C   UNL     1     -40.834  58.008 -50.452  1.00  0.00     0.022 A 
HETATM   29  C   UNL     1     -41.166  57.532 -51.723  1.00  0.00     0.034 A 
ENDBRANCH  20  23
ENDBRANCH   7  19
TORSDOF 6
ENDMDL
MODEL 7
REMARK VINA RESULT:      -7.2      2.493      6.582
REMARK  6 active torsions:
REMARK  status: ('A' for Active; 'I' for Inactive)
REMARK    1  A    between atoms: O_2  and  C_3 
REMARK    2  A    between atoms: C_6  and  C_7 
REMARK    3  A    between atoms: C_7  and  N_8 
REMARK    4  A    between atoms: N_8  and  C_9 
REMARK    5  A    between atoms: C_15  and  C_16 
REMARK       I    between atoms: C_16  and  N_17 
REMARK    6  A    between atoms: N_17  and  C_18 
ROOT
HETATM    1  C   UNL     1     -42.795  56.659 -52.105  1.00  0.00     0.096 A 
HETATM    2  N   UNL     1     -42.800  57.999 -51.982  1.00  0.00    -0.356 N 
HETATM    3  H   UNL     1     -43.443  58.511 -52.585  1.00  0.00     0.166 HD
HETATM    4  C   UNL     1     -41.978  58.679 -51.171  1.00  0.00     0.089 A 
HETATM    5  C   UNL     1     -41.033  58.001 -50.417  1.00  0.00     0.018 A 
HETATM    6  C   UNL     1     -40.926  56.619 -50.547  1.00  0.00     0.022 A 
HETATM    7  C   UNL     1     -41.783  55.938 -51.421  1.00  0.00     0.070 A 
ENDROOT
BRANCH   1   8
HETATM    8  N   UNL     1     -43.691  56.079 -53.006  1.00  0.00    -0.274 NA
HETATM    9  H   UNL     1     -44.408  55.563 -52.467  1.00  0.00     0.129 HD
BRANCH   8  10
HETATM   10  C   UNL     1     -44.393  56.963 -53.943  1.00  0.00     0.132 C 
BRANCH  10  11
HETATM   11  C   UNL     1     -43.923  56.715 -55.353  1.00  0.00    -0.045 A 
HETATM   12  C   UNL     1     -43.173  55.568 -55.656  1.00  0.00     0.011 A 
HETATM   13  C   UNL     1     -42.776  55.294 -56.967  1.00  0.00     0.037 A 
HETATM   14  C   UNL     1     -43.128  56.162 -57.998  1.00  0.00     0.068 A 
HETATM   15  C   UNL     1     -43.860  57.316 -57.701  1.00  0.00     0.037 A 
HETATM   16  C   UNL     1     -44.268  57.587 -56.393  1.00  0.00     0.011 A 
BRANCH  14  17
HETATM   17  O   UNL     1     -42.813  56.001 -59.317  1.00  0.00    -0.356 OA
HETATM   18  C   UNL     1     -42.119  57.079 -59.938  1.00  0.00     0.210 C 
ENDBRANCH  14  17
ENDBRANCH  10  11
ENDBRANCH   8  10
ENDBRANCH   1   8
BRANCH   7  19
HETATM   19  C   UNL     1     -41.691  54.464 -51.624  1.00  0.00     0.259 C 
HETATM   20  N   UNL     1     -40.442  53.947 -51.891  1.00  0.00    -0.320 N 
HETATM   21  H   UNL     1     -39.631  54.557 -51.886  1.00  0.00     0.169 HD
HETATM   22  O   UNL     1     -42.743  53.835 -51.571  1.00  0.00    -0.267 OA
BRANCH  20  23
HETATM   23  C   UNL     1     -40.129  52.606 -52.246  1.00  0.00     0.075 A 
HETATM   24  C   UNL     1     -40.088  52.241 -53.599  1.00  0.00     0.152 A 
HETATM   25 CL   UNL     1     -40.373  53.402 -54.845  1.00  0.00    -0.060 Cl
HETATM   26  N   UNL     1     -39.838  51.001 -54.070  1.00  0.00    -0.247 NA
HETATM   27  C   UNL     1     -39.611  50.048 -53.144  1.00  0.00     0.118 A 
HETATM   28  C   UNL     1     -39.624  50.291 -51.779  1.00  0.00     0.022 A 
HETATM   29  C   UNL     1     -39.883  51.587 -51.327  1.00  0.00     0.034 A 
ENDBRANCH  20  23
ENDBRANCH   7  19
TORSDOF 6
ENDMDL
MODEL 8
REMARK VINA RESULT:      -7.2      2.898      6.061
REMARK  6 active torsions:
REMARK  status: ('A' for Active; 'I' for Inactive)
REMARK    1  A    between atoms: O_2  and  C_3 
REMARK    2  A    between atoms: C_6  and  C_7 
REMARK    3  A    between atoms: C_7  and  N_8 
REMARK    4  A    between atoms: N_8  and  C_9 
REMARK    5  A    between atoms: C_15  and  C_16 
REMARK       I    between atoms: C_16  and  N_17 
REMARK    6  A    between atoms: N_17  and  C_18 
ROOT
HETATM    1  C   UNL     1     -43.287  56.058 -53.276  1.00  0.00     0.096 A 
HETATM    2  N   UNL     1     -43.577  55.734 -52.002  1.00  0.00    -0.356 N 
HETATM    3  H   UNL     1     -43.329  54.793 -51.702  1.00  0.00     0.166 HD
HETATM    4  C   UNL     1     -44.218  56.547 -51.150  1.00  0.00     0.089 A 
HETATM    5  C   UNL     1     -44.647  57.795 -51.575  1.00  0.00     0.018 A 
HETATM    6  C   UNL     1     -44.440  58.168 -52.901  1.00  0.00     0.022 A 
HETATM    7  C   UNL     1     -43.791  57.287 -53.774  1.00  0.00     0.070 A 
ENDROOT
BRANCH   1   8
HETATM    8  N   UNL     1     -42.637  55.106 -54.063  1.00  0.00    -0.274 NA
HETATM    9  H   UNL     1     -42.927  55.244 -55.048  1.00  0.00     0.129 HD
BRANCH   8  10
HETATM   10  C   UNL     1     -41.171  55.075 -54.036  1.00  0.00     0.132 C 
BRANCH  10  11
HETATM   11  C   UNL     1     -40.684  53.761 -53.481  1.00  0.00    -0.045 A 
HETATM   12  C   UNL     1     -40.367  52.703 -54.347  1.00  0.00     0.011 A 
HETATM   13  C   UNL     1     -39.860  51.498 -53.854  1.00  0.00     0.037 A 
HETATM   14  C   UNL     1     -39.658  51.334 -52.486  1.00  0.00     0.068 A 
HETATM   15  C   UNL     1     -39.987  52.377 -51.616  1.00  0.00     0.037 A 
HETATM   16  C   UNL     1     -40.483  53.588 -52.106  1.00  0.00     0.011 A 
BRANCH  14  17
HETATM   17  O   UNL     1     -39.159  50.214 -51.883  1.00  0.00    -0.356 OA
HETATM   18  C   UNL     1     -39.781  49.823 -50.662  1.00  0.00     0.210 C 
ENDBRANCH  14  17
ENDBRANCH  10  11
ENDBRANCH   8  10
ENDBRANCH   1   8
BRANCH   7  19
HETATM   19  C   UNL     1     -43.573  57.621 -55.210  1.00  0.00     0.259 C 
HETATM   20  N   UNL     1     -44.137  56.775 -56.140  1.00  0.00    -0.320 N 
HETATM   21  H   UNL     1     -44.717  56.001 -55.834  1.00  0.00     0.169 HD
HETATM   22  O   UNL     1     -42.879  58.605 -55.448  1.00  0.00    -0.267 OA
BRANCH  20  23
HETATM   23  C   UNL     1     -43.959  56.813 -57.551  1.00  0.00     0.075 A 
HETATM   24  C   UNL     1     -44.831  57.579 -58.337  1.00  0.00     0.152 A 
HETATM   25 CL   UNL     1     -46.094  58.511 -57.617  1.00  0.00    -0.060 Cl
HETATM   26  N   UNL     1     -44.795  57.676 -59.683  1.00  0.00    -0.247 NA
HETATM   27  C   UNL     1     -43.831  56.966 -60.303  1.00  0.00     0.118 A 
HETATM   28  C   UNL     1     -42.912  56.175 -59.631  1.00  0.00     0.022 A 
HETATM   29  C   UNL     1     -42.977  56.101 -58.238  1.00  0.00     0.034 A 
ENDBRANCH  20  23
ENDBRANCH   7  19
TORSDOF 6
ENDMDL
MODEL 9
REMARK VINA RESULT:      -7.0      2.218      2.889
REMARK  6 active torsions:
REMARK  status: ('A' for Active; 'I' for Inactive)
REMARK    1  A    between atoms: O_2  and  C_3 
REMARK    2  A    between atoms: C_6  and  C_7 
REMARK    3  A    between atoms: C_7  and  N_8 
REMARK    4  A    between atoms: N_8  and  C_9 
REMARK    5  A    between atoms: C_15  and  C_16 
REMARK       I    between atoms: C_16  and  N_17 
REMARK    6  A    between atoms: N_17  and  C_18 
ROOT
HETATM    1  C   UNL     1     -41.117  53.270 -52.145  1.00  0.00     0.096 A 
HETATM    2  N   UNL     1     -40.204  52.497 -51.529  1.00  0.00    -0.356 N 
HETATM    3  H   UNL     1     -40.077  52.648 -50.529  1.00  0.00     0.166 HD
HETATM    4  C   UNL     1     -39.429  51.605 -52.162  1.00  0.00     0.089 A 
HETATM    5  C   UNL     1     -39.525  51.458 -53.538  1.00  0.00     0.018 A 
HETATM    6  C   UNL     1     -40.401  52.276 -54.247  1.00  0.00     0.022 A 
HETATM    7  C   UNL     1     -41.179  53.216 -53.561  1.00  0.00     0.070 A 
ENDROOT
BRANCH   1   8
HETATM    8  N   UNL     1     -41.840  54.177 -51.368  1.00  0.00    -0.274 NA
HETATM    9  H   UNL     1     -42.437  53.642 -50.711  1.00  0.00     0.129 HD
BRANCH   8  10
HETATM   10  C   UNL     1     -41.090  55.160 -50.580  1.00  0.00     0.132 C 
BRANCH  10  11
HETATM   11  C   UNL     1     -41.616  56.549 -50.832  1.00  0.00    -0.045 A 
HETATM   12  C   UNL     1     -42.955  56.739 -51.210  1.00  0.00     0.011 A 
HETATM   13  C   UNL     1     -43.475  58.023 -51.394  1.00  0.00     0.037 A 
HETATM   14  C   UNL     1     -42.664  59.138 -51.197  1.00  0.00     0.068 A 
HETATM   15  C   UNL     1     -41.325  58.956 -50.838  1.00  0.00     0.037 A 
HETATM   16  C   UNL     1     -40.804  57.674 -50.642  1.00  0.00     0.011 A 
BRANCH  14  17
HETATM   17  O   UNL     1     -43.054  60.440 -51.333  1.00  0.00    -0.356 OA
HETATM   18  C   UNL     1     -42.912  61.011 -52.631  1.00  0.00     0.210 C 
ENDBRANCH  14  17
ENDBRANCH  10  11
ENDBRANCH   8  10
ENDBRANCH   1   8
BRANCH   7  19
HETATM   19  C   UNL     1     -42.108  54.139 -54.273  1.00  0.00     0.259 C 
HETATM   20  N   UNL     1     -41.612  54.792 -55.381  1.00  0.00    -0.320 N 
HETATM   21  H   UNL     1     -40.673  54.592 -55.708  1.00  0.00     0.169 HD
HETATM   22  O   UNL     1     -43.231  54.268 -53.794  1.00  0.00    -0.267 OA
BRANCH  20  23
HETATM   23  C   UNL     1     -42.260  55.808 -56.137  1.00  0.00     0.075 A 
HETATM   24  C   UNL     1     -42.211  57.137 -55.693  1.00  0.00     0.152 A 
HETATM   25 CL   UNL     1     -41.342  57.568 -54.264  1.00  0.00    -0.060 Cl
HETATM   26  N   UNL     1     -42.807  58.188 -56.294  1.00  0.00    -0.247 NA
HETATM   27  C   UNL     1     -43.505  57.914 -57.414  1.00  0.00     0.118 A 
HETATM   28  C   UNL     1     -43.623  56.640 -57.947  1.00  0.00     0.022 A 
HETATM   29  C   UNL     1     -42.990  55.576 -57.301  1.00  0.00     0.034 A 
ENDBRANCH  20  23
ENDBRANCH   7  19
TORSDOF 6
ENDMDL
MODEL 10
REMARK VINA RESULT:      -7.0      3.021      6.228
REMARK  6 active torsions:
REMARK  status: ('A' for Active; 'I' for Inactive)
REMARK    1  A    between atoms: O_2  and  C_3 
REMARK    2  A    between atoms: C_6  and  C_7 
REMARK    3  A    between atoms: C_7  and  N_8 
REMARK    4  A    between atoms: N_8  and  C_9 
REMARK    5  A    between atoms: C_15  and  C_16 
REMARK       I    between atoms: C_16  and  N_17 
REMARK    6  A    between atoms: N_17  and  C_18 
ROOT
HETATM    1  C   UNL     1     -42.614  56.202 -56.634  1.00  0.00     0.096 A 
HETATM    2  N   UNL     1     -42.605  55.970 -57.960  1.00  0.00    -0.356 N 
HETATM    3  H   UNL     1     -42.007  55.212 -58.287  1.00  0.00     0.166 HD
HETATM    4  C   UNL     1     -43.277  56.709 -58.854  1.00  0.00     0.089 A 
HETATM    5  C   UNL     1     -44.017  57.803 -58.431  1.00  0.00     0.018 A 
HETATM    6  C   UNL     1     -44.015  58.141 -57.081  1.00  0.00     0.022 A 
HETATM    7  C   UNL     1     -43.284  57.365 -56.174  1.00  0.00     0.070 A 
ENDROOT
BRANCH   1   8
HETATM    8  N   UNL     1     -41.849  55.368 -55.817  1.00  0.00    -0.274 NA
HETATM    9  H   UNL     1     -41.494  55.928 -55.021  1.00  0.00     0.129 HD
BRANCH   8  10
HETATM   10  C   UNL     1     -42.489  54.171 -55.263  1.00  0.00     0.132 C 
BRANCH  10  11
HETATM   11  C   UNL     1     -41.608  53.541 -54.215  1.00  0.00    -0.045 A 
HETATM   12  C   UNL     1     -41.701  53.951 -52.876  1.00  0.00     0.011 A 
HETATM   13  C   UNL     1     -40.934  53.339 -51.881  1.00  0.00     0.037 A 
HETATM   14  C   UNL     1     -40.063  52.303 -52.211  1.00  0.00     0.068 A 
HETATM   15  C   UNL     1     -39.952  51.901 -53.545  1.00  0.00     0.037 A 
HETATM   16  C   UNL     1     -40.727  52.502 -54.541  1.00  0.00     0.011 A 
BRANCH  14  17
HETATM   17  O   UNL     1     -39.271  51.619 -51.334  1.00  0.00    -0.356 OA
HETATM   18  C   UNL     1     -39.457  50.208 -51.280  1.00  0.00     0.210 C 
ENDBRANCH  14  17
ENDBRANCH  10  11
ENDBRANCH   8  10
ENDBRANCH   1   8
BRANCH   7  19
HETATM   19  C   UNL     1     -43.220  57.701 -54.723  1.00  0.00     0.259 C 
HETATM   20  N   UNL     1     -42.008  58.141 -54.236  1.00  0.00    -0.320 N 
HETATM   21  H   UNL     1     -41.228  58.276 -54.870  1.00  0.00     0.169 HD
HETATM   22  O   UNL     1     -44.245  57.524 -54.071  1.00  0.00    -0.267 OA
BRANCH  20  23
HETATM   23  C   UNL     1     -41.672  58.393 -52.877  1.00  0.00     0.075 A 
HETATM   24  C   UNL     1     -41.862  59.676 -52.345  1.00  0.00     0.152 A 
HETATM   25 CL   UNL     1     -42.537  60.946 -53.301  1.00  0.00    -0.060 Cl
HETATM   26  N   UNL     1     -41.556  60.058 -51.087  1.00  0.00    -0.247 NA
HETATM   27  C   UNL     1     -41.021  59.109 -50.293  1.00  0.00     0.118 A 
HETATM   28  C   UNL     1     -40.788  57.807 -50.708  1.00  0.00     0.022 A 
HETATM   29  C   UNL     1     -41.121  57.446 -52.016  1.00  0.00     0.034 A 
ENDBRANCH  20  23
ENDBRANCH   7  19
TORSDOF 6
ENDMDL
