MODEL 1
REMARK VINA RESULT:      -8.6      0.000      0.000
REMARK  7 active torsions:
REMARK  status: ('A' for Active; 'I' for Inactive)
REMARK    1  A    between atoms: C_4  and  C_5 
REMARK    2  A    between atoms: C_5  and  N_6 
REMARK       I    between atoms: N_6  and  C_7 
REMARK    3  A    between atoms: N_6  and  C_22 
REMARK    4  A    between atoms: C_7  and  C_8 
REMARK    5  A    between atoms: C_13  and  C_14 
REMARK    6  A    between atoms: C_15  and  O_16 
REMARK    7  A    between atoms: C_22  and  C_23 
ROOT
HETATM    1  N   UNL     1     -41.771  54.477 -53.412  1.00  0.00    -0.343 N 
HETATM    2  C   UNL     1     -42.073  54.921 -52.117  1.00  0.00     0.235 C 
HETATM    3  O   UNL     1     -43.242  55.116 -51.766  1.00  0.00    -0.272 OA
ENDROOT
BRANCH   2   4
HETATM    4  C   UNL     1     -40.935  55.210 -51.154  1.00  0.00     0.195 C 
HETATM    5  C   UNL     1     -41.157  54.553 -49.822  1.00  0.00     0.247 C 
HETATM    6  O   UNL     1     -41.111  53.355 -49.590  1.00  0.00    -0.271 OA
HETATM    7  N   UNL     1     -41.414  55.535 -48.888  1.00  0.00    -0.290 N 
HETATM    8  N   UNL     1     -41.432  56.821 -49.418  1.00  0.00    -0.228 NA
HETATM    9  H   UNL     1     -41.724  55.297 -47.951  1.00  0.00     0.183 HD
HETATM   10  C   UNL     1     -40.799  56.691 -50.757  1.00  0.00     0.134 C 
HETATM   11  H   UNL     1     -40.869  57.456 -48.847  1.00  0.00     0.147 HD
BRANCH  10  12
HETATM   12  C   UNL     1     -41.287  57.727 -51.744  1.00  0.00    -0.004 A 
HETATM   13  C   UNL     1     -42.569  58.280 -51.640  1.00  0.00     0.073 A 
HETATM   14  C   UNL     1     -43.020  59.244 -52.544  1.00  0.00     0.037 A 
HETATM   15  C   UNL     1     -42.176  59.691 -53.559  1.00  0.00     0.003 A 
HETATM   16  C   UNL     1     -40.890  59.170 -53.672  1.00  0.00     0.001 A 
HETATM   17  C   UNL     1     -40.451  58.195 -52.774  1.00  0.00     0.012 A 
BRANCH  13  18
HETATM   18  O   UNL     1     -43.382  57.873 -50.619  1.00  0.00    -0.360 OA
HETATM   19  H   UNL     1     -43.514  58.619 -50.010  1.00  0.00     0.217 HD
ENDBRANCH  13  18
ENDBRANCH  10  12
ENDBRANCH   2   4
BRANCH   1  20
HETATM   20  C   UNL     1     -42.912  54.150 -54.279  1.00  0.00     0.164 C 
BRANCH  20  21
HETATM   21  C   UNL     1     -43.214  55.195 -55.328  1.00  0.00    -0.040 A 
HETATM   22  C   UNL     1     -43.764  56.436 -54.973  1.00  0.00     0.009 A 
HETATM   23  C   UNL     1     -44.005  57.409 -55.944  1.00  0.00     0.001 A 
HETATM   24  C   UNL     1     -43.696  57.156 -57.280  1.00  0.00     0.000 A 
HETATM   25  C   UNL     1     -43.146  55.930 -57.645  1.00  0.00     0.001 A 
HETATM   26  C   UNL     1     -42.902  54.957 -56.675  1.00  0.00     0.009 A 
ENDBRANCH  20  21
ENDBRANCH   1  20
BRANCH   1  27
HETATM   27  C   UNL     1     -40.439  53.979 -53.781  1.00  0.00     0.164 C 
BRANCH  27  28
HETATM   28  C   UNL     1     -40.160  52.515 -53.542  1.00  0.00    -0.040 A 
HETATM   29  C   UNL     1     -39.684  52.066 -52.301  1.00  0.00     0.009 A 
HETATM   30  C   UNL     1     -39.455  50.707 -52.078  1.00  0.00     0.001 A 
HETATM   31  C   UNL     1     -39.707  49.782 -53.089  1.00  0.00     0.000 A 
HETATM   32  C   UNL     1     -40.189  50.214 -54.323  1.00  0.00     0.001 A 
HETATM   33  C   UNL     1     -40.418  51.572 -54.548  1.00  0.00     0.009 A 
ENDBRANCH  27  28
ENDBRANCH   1  27
TORSDOF 7
ENDMDL
MODEL 2
REMARK VINA RESULT:      -8.4      2.100      5.756
REMARK  7 active torsions:
REMARK  status: ('A' for Active; 'I' for Inactive)
REMARK    1  A    between atoms: C_4  and  C_5 
REMARK    2  A    between atoms: C_5  and  N_6 
REMARK       I    between atoms: N_6  and  C_7 
REMARK    3  A    between atoms: N_6  and  C_22 
REMARK    4  A    between atoms: C_7  and  C_8 
REMARK    5  A    between atoms: C_13  and  C_14 
REMARK    6  A    between atoms: C_15  and  O_16 
REMARK    7  A    between atoms: C_22  and  C_23 
ROOT
HETATM    1  N   UNL     1     -41.661  56.220 -54.635  1.00  0.00    -0.343 N 
HETATM    2  C   UNL     1     -41.435  57.363 -53.855  1.00  0.00     0.235 C 
HETATM    3  O   UNL     1     -40.313  57.615 -53.402  1.00  0.00    -0.272 OA
ENDROOT
BRANCH   2   4
HETATM    4  C   UNL     1     -42.605  58.273 -53.528  1.00  0.00     0.195 C 
HETATM    5  C   UNL     1     -42.255  59.720 -53.733  1.00  0.00     0.247 C 
HETATM    6  O   UNL     1     -42.065  60.273 -54.806  1.00  0.00    -0.271 OA
HETATM    7  N   UNL     1     -42.194  60.333 -52.500  1.00  0.00    -0.290 N 
HETATM    8  N   UNL     1     -42.429  59.472 -51.433  1.00  0.00    -0.228 NA
HETATM    9  H   UNL     1     -41.841  61.281 -52.404  1.00  0.00     0.183 HD
HETATM   10  C   UNL     1     -43.028  58.259 -52.048  1.00  0.00     0.134 C 
HETATM   11  H   UNL     1     -43.105  59.879 -50.782  1.00  0.00     0.147 HD
BRANCH  10  12
HETATM   12  C   UNL     1     -42.755  56.999 -51.256  1.00  0.00    -0.004 A 
HETATM   13  C   UNL     1     -41.604  56.873 -50.470  1.00  0.00     0.073 A 
HETATM   14  C   UNL     1     -41.353  55.716 -49.730  1.00  0.00     0.037 A 
HETATM   15  C   UNL     1     -42.273  54.669 -49.747  1.00  0.00     0.003 A 
HETATM   16  C   UNL     1     -43.435  54.779 -50.505  1.00  0.00     0.001 A 
HETATM   17  C   UNL     1     -43.672  55.932 -51.256  1.00  0.00     0.012 A 
BRANCH  13  18
HETATM   18  O   UNL     1     -40.721  57.916 -50.420  1.00  0.00    -0.360 OA
HETATM   19  H   UNL     1     -39.828  57.577 -50.601  1.00  0.00     0.217 HD
ENDBRANCH  13  18
ENDBRANCH  10  12
ENDBRANCH   2   4
BRANCH   1  20
HETATM   20  C   UNL     1     -40.482  55.412 -54.975  1.00  0.00     0.164 C 
BRANCH  20  21
HETATM   21  C   UNL     1     -40.399  54.094 -54.240  1.00  0.00    -0.040 A 
HETATM   22  C   UNL     1     -40.190  52.893 -54.934  1.00  0.00     0.009 A 
HETATM   23  C   UNL     1     -40.078  51.685 -54.244  1.00  0.00     0.001 A 
HETATM   24  C   UNL     1     -40.169  51.662 -52.854  1.00  0.00     0.000 A 
HETATM   25  C   UNL     1     -40.373  52.848 -52.152  1.00  0.00     0.001 A 
HETATM   26  C   UNL     1     -40.482  54.057 -52.841  1.00  0.00     0.009 A 
ENDBRANCH  20  21
ENDBRANCH   1  20
BRANCH   1  27
HETATM   27  C   UNL     1     -42.895  56.028 -55.408  1.00  0.00     0.164 C 
BRANCH  27  28
HETATM   28  C   UNL     1     -42.846  56.359 -56.880  1.00  0.00    -0.040 A 
HETATM   29  C   UNL     1     -42.397  57.612 -57.322  1.00  0.00     0.009 A 
HETATM   30  C   UNL     1     -42.326  57.900 -58.686  1.00  0.00     0.001 A 
HETATM   31  C   UNL     1     -42.695  56.937 -59.623  1.00  0.00     0.000 A 
HETATM   32  C   UNL     1     -43.133  55.685 -59.198  1.00  0.00     0.001 A 
HETATM   33  C   UNL     1     -43.204  55.395 -57.835  1.00  0.00     0.009 A 
ENDBRANCH  27  28
ENDBRANCH   1  27
TORSDOF 7
ENDMDL
MODEL 3
REMARK VINA RESULT:      -8.2      1.939      2.892
REMARK  7 active torsions:
REMARK  status: ('A' for Active; 'I' for Inactive)
REMARK    1  A    between atoms: C_4  and  C_5 
REMARK    2  A    between atoms: C_5  and  N_6 
REMARK       I    between atoms: N_6  and  C_7 
REMARK    3  A    between atoms: N_6  and  C_22 
REMARK    4  A    between atoms: C_7  and  C_8 
REMARK    5  A    between atoms: C_13  and  C_14 
REMARK    6  A    between atoms: C_15  and  O_16 
REMARK    7  A    between atoms: C_22  and  C_23 
ROOT
HETATM    1  N   UNL     1     -42.397  55.828 -54.614  1.00  0.00    -0.343 N 
HETATM    2  C   UNL     1     -43.276  56.314 -53.636  1.00  0.00     0.235 C 
HETATM    3  O   UNL     1     -44.499  56.299 -53.812  1.00  0.00    -0.272 OA
ENDROOT
BRANCH   2   4
HETATM    4  C   UNL     1     -42.702  56.910 -52.363  1.00  0.00     0.195 C 
HETATM    5  C   UNL     1     -43.373  56.353 -51.139  1.00  0.00     0.247 C 
HETATM    6  O   UNL     1     -43.265  55.214 -50.710  1.00  0.00    -0.271 OA
HETATM    7  N   UNL     1     -44.132  57.351 -50.565  1.00  0.00    -0.290 N 
HETATM    8  N   UNL     1     -44.101  58.551 -51.266  1.00  0.00    -0.228 NA
HETATM    9  H   UNL     1     -44.772  57.148 -49.803  1.00  0.00     0.183 HD
HETATM   10  C   UNL     1     -42.951  58.420 -52.199  1.00  0.00     0.134 C 
HETATM   11  H   UNL     1     -43.924  59.336 -50.634  1.00  0.00     0.147 HD
BRANCH  10  12
HETATM   12  C   UNL     1     -43.114  59.242 -53.458  1.00  0.00    -0.004 A 
HETATM   13  C   UNL     1     -42.002  59.698 -54.175  1.00  0.00     0.073 A 
HETATM   14  C   UNL     1     -42.148  60.449 -55.343  1.00  0.00     0.037 A 
HETATM   15  C   UNL     1     -43.424  60.734 -55.827  1.00  0.00     0.003 A 
HETATM   16  C   UNL     1     -44.545  60.276 -55.143  1.00  0.00     0.001 A 
HETATM   17  C   UNL     1     -44.392  59.539 -53.967  1.00  0.00     0.012 A 
BRANCH  13  18
HETATM   18  O   UNL     1     -40.750  59.382 -53.723  1.00  0.00    -0.360 OA
HETATM   19  H   UNL     1     -40.155  60.127 -53.909  1.00  0.00     0.217 HD
ENDBRANCH  13  18
ENDBRANCH  10  12
ENDBRANCH   2   4
BRANCH   1  20
HETATM   20  C   UNL     1     -43.009  55.203 -55.795  1.00  0.00     0.164 C 
BRANCH  20  21
HETATM   21  C   UNL     1     -42.854  56.000 -57.070  1.00  0.00    -0.040 A 
HETATM   22  C   UNL     1     -42.407  57.329 -57.040  1.00  0.00     0.009 A 
HETATM   23  C   UNL     1     -42.232  58.046 -58.224  1.00  0.00     0.001 A 
HETATM   24  C   UNL     1     -42.495  57.443 -59.453  1.00  0.00     0.000 A 
HETATM   25  C   UNL     1     -42.935  56.122 -59.498  1.00  0.00     0.001 A 
HETATM   26  C   UNL     1     -43.108  55.403 -58.314  1.00  0.00     0.009 A 
ENDBRANCH  20  21
ENDBRANCH   1  20
BRANCH   1  27
HETATM   27  C   UNL     1     -40.976  55.578 -54.339  1.00  0.00     0.164 C 
BRANCH  27  28
HETATM   28  C   UNL     1     -40.604  54.212 -53.814  1.00  0.00    -0.040 A 
HETATM   29  C   UNL     1     -40.276  53.168 -54.690  1.00  0.00     0.009 A 
HETATM   30  C   UNL     1     -39.905  51.917 -54.197  1.00  0.00     0.001 A 
HETATM   31  C   UNL     1     -39.851  51.697 -52.822  1.00  0.00     0.000 A 
HETATM   32  C   UNL     1     -40.165  52.729 -51.939  1.00  0.00     0.001 A 
HETATM   33  C   UNL     1     -40.535  53.981 -52.432  1.00  0.00     0.009 A 
ENDBRANCH  27  28
ENDBRANCH   1  27
TORSDOF 7
ENDMDL
MODEL 4
REMARK VINA RESULT:      -8.0     14.686     17.268
REMARK  7 active torsions:
REMARK  status: ('A' for Active; 'I' for Inactive)
REMARK    1  A    between atoms: C_4  and  C_5 
REMARK    2  A    between atoms: C_5  and  N_6 
REMARK       I    between atoms: N_6  and  C_7 
REMARK    3  A    between atoms: N_6  and  C_22 
REMARK    4  A    between atoms: C_7  and  C_8 
REMARK    5  A    between atoms: C_13  and  C_14 
REMARK    6  A    between atoms: C_15  and  O_16 
REMARK    7  A    between atoms: C_22  and  C_23 
ROOT
HETATM    1  N   UNL     1     -34.443  39.461 -52.503  1.00  0.00    -0.343 N 
HETATM    2  C   UNL     1     -35.839  39.335 -52.537  1.00  0.00     0.235 C 
HETATM    3  O   UNL     1     -36.383  38.431 -53.179  1.00  0.00    -0.272 OA
ENDROOT
BRANCH   2   4
HETATM    4  C   UNL     1     -36.687  40.361 -51.806  1.00  0.00     0.195 C 
HETATM    5  C   UNL     1     -37.794  39.711 -51.027  1.00  0.00     0.247 C 
HETATM    6  O   UNL     1     -37.666  39.031 -50.020  1.00  0.00    -0.271 OA
HETATM    7  N   UNL     1     -38.994  40.018 -51.633  1.00  0.00    -0.290 N 
HETATM    8  N   UNL     1     -38.860  40.790 -52.781  1.00  0.00    -0.228 NA
HETATM    9  H   UNL     1     -39.857  39.567 -51.342  1.00  0.00     0.183 HD
HETATM   10  C   UNL     1     -37.469  41.313 -52.729  1.00  0.00     0.134 C 
HETATM   11  H   UNL     1     -39.509  41.580 -52.764  1.00  0.00     0.147 HD
BRANCH  10  12
HETATM   12  C   UNL     1     -36.891  41.590 -54.099  1.00  0.00    -0.004 A 
HETATM   13  C   UNL     1     -35.782  42.430 -54.261  1.00  0.00     0.073 A 
HETATM   14  C   UNL     1     -35.239  42.680 -55.523  1.00  0.00     0.037 A 
HETATM   15  C   UNL     1     -35.789  42.067 -56.648  1.00  0.00     0.003 A 
HETATM   16  C   UNL     1     -36.880  41.214 -56.510  1.00  0.00     0.001 A 
HETATM   17  C   UNL     1     -37.428  40.980 -55.247  1.00  0.00     0.012 A 
BRANCH  13  18
HETATM   18  O   UNL     1     -35.216  42.997 -53.154  1.00  0.00    -0.360 OA
HETATM   19  H   UNL     1     -35.701  42.695 -52.367  1.00  0.00     0.217 HD
ENDBRANCH  13  18
ENDBRANCH  10  12
ENDBRANCH   2   4
BRANCH   1  20
HETATM   20  C   UNL     1     -33.671  38.403 -53.172  1.00  0.00     0.164 C 
BRANCH  20  21
HETATM   21  C   UNL     1     -32.886  38.873 -54.374  1.00  0.00    -0.040 A 
HETATM   22  C   UNL     1     -33.531  39.452 -55.477  1.00  0.00     0.009 A 
HETATM   23  C   UNL     1     -32.795  39.917 -56.566  1.00  0.00     0.001 A 
HETATM   24  C   UNL     1     -31.404  39.814 -56.567  1.00  0.00     0.000 A 
HETATM   25  C   UNL     1     -30.750  39.247 -55.477  1.00  0.00     0.001 A 
HETATM   26  C   UNL     1     -31.486  38.784 -54.384  1.00  0.00     0.009 A 
ENDBRANCH  20  21
ENDBRANCH   1  20
BRANCH   1  27
HETATM   27  C   UNL     1     -33.756  40.339 -51.548  1.00  0.00     0.164 C 
BRANCH  27  28
HETATM   28  C   UNL     1     -33.287  39.719 -50.254  1.00  0.00    -0.040 A 
HETATM   29  C   UNL     1     -32.007  39.988 -49.748  1.00  0.00     0.009 A 
HETATM   30  C   UNL     1     -31.591  39.435 -48.537  1.00  0.00     0.001 A 
HETATM   31  C   UNL     1     -32.452  38.613 -47.813  1.00  0.00     0.000 A 
HETATM   32  C   UNL     1     -33.730  38.345 -48.299  1.00  0.00     0.001 A 
HETATM   33  C   UNL     1     -34.148  38.898 -49.510  1.00  0.00     0.009 A 
ENDBRANCH  27  28
ENDBRANCH   1  27
TORSDOF 7
ENDMDL
MODEL 5
REMARK VINA RESULT:      -7.9      2.752      6.763
REMARK  7 active torsions:
REMARK  status: ('A' for Active; 'I' for Inactive)
REMARK    1  A    between atoms: C_4  and  C_5 
REMARK    2  A    between atoms: C_5  and  N_6 
REMARK       I    between atoms: N_6  and  C_7 
REMARK    3  A    between atoms: N_6  and  C_22 
REMARK    4  A    between atoms: C_7  and  C_8 
REMARK    5  A    between atoms: C_13  and  C_14 
REMARK    6  A    between atoms: C_15  and  O_16 
REMARK    7  A    between atoms: C_22  and  C_23 
ROOT
HETATM    1  N   UNL     1     -43.521  58.022 -53.320  1.00  0.00    -0.343 N 
HETATM    2  C   UNL     1     -44.064  57.401 -54.454  1.00  0.00     0.235 C 
HETATM    3  O   UNL     1     -44.959  56.556 -54.351  1.00  0.00    -0.272 OA
ENDROOT
BRANCH   2   4
HETATM    4  C   UNL     1     -43.501  57.746 -55.821  1.00  0.00     0.195 C 
HETATM    5  C   UNL     1     -44.593  58.008 -56.819  1.00  0.00     0.247 C 
HETATM    6  O   UNL     1     -45.343  58.972 -56.833  1.00  0.00    -0.271 OA
HETATM    7  N   UNL     1     -44.605  56.977 -57.735  1.00  0.00    -0.290 N 
HETATM    8  N   UNL     1     -43.660  55.989 -57.478  1.00  0.00    -0.228 NA
HETATM    9  H   UNL     1     -45.354  56.892 -58.416  1.00  0.00     0.183 HD
HETATM   10  C   UNL     1     -42.726  56.600 -56.497  1.00  0.00     0.134 C 
HETATM   11  H   UNL     1     -43.140  55.756 -58.328  1.00  0.00     0.147 HD
BRANCH  10  12
HETATM   12  C   UNL     1     -42.062  55.580 -55.599  1.00  0.00    -0.004 A 
HETATM   13  C   UNL     1     -42.651  54.332 -55.361  1.00  0.00     0.073 A 
HETATM   14  C   UNL     1     -42.037  53.384 -54.540  1.00  0.00     0.037 A 
HETATM   15  C   UNL     1     -40.801  53.666 -53.960  1.00  0.00     0.003 A 
HETATM   16  C   UNL     1     -40.187  54.893 -54.196  1.00  0.00     0.001 A 
HETATM   17  C   UNL     1     -40.814  55.843 -55.005  1.00  0.00     0.012 A 
BRANCH  13  18
HETATM   18  O   UNL     1     -43.842  54.039 -55.964  1.00  0.00    -0.360 OA
HETATM   19  H   UNL     1     -43.839  54.415 -56.860  1.00  0.00     0.217 HD
ENDBRANCH  13  18
ENDBRANCH  10  12
ENDBRANCH   2   4
BRANCH   1  20
HETATM   20  C   UNL     1     -44.148  57.701 -52.030  1.00  0.00     0.164 C 
BRANCH  20  21
HETATM   21  C   UNL     1     -43.581  56.475 -51.353  1.00  0.00    -0.040 A 
HETATM   22  C   UNL     1     -44.425  55.491 -50.817  1.00  0.00     0.009 A 
HETATM   23  C   UNL     1     -43.892  54.345 -50.227  1.00  0.00     0.001 A 
HETATM   24  C   UNL     1     -42.512  54.165 -50.167  1.00  0.00     0.000 A 
HETATM   25  C   UNL     1     -41.662  55.131 -50.698  1.00  0.00     0.001 A 
HETATM   26  C   UNL     1     -42.193  56.277 -51.292  1.00  0.00     0.009 A 
ENDBRANCH  20  21
ENDBRANCH   1  20
BRANCH   1  27
HETATM   27  C   UNL     1     -42.662  59.210 -53.411  1.00  0.00     0.164 C 
BRANCH  27  28
HETATM   28  C   UNL     1     -41.452  59.258 -52.509  1.00  0.00    -0.040 A 
HETATM   29  C   UNL     1     -40.194  58.844 -52.970  1.00  0.00     0.009 A 
HETATM   30  C   UNL     1     -39.074  58.919 -52.141  1.00  0.00     0.001 A 
HETATM   31  C   UNL     1     -39.198  59.414 -50.844  1.00  0.00     0.000 A 
HETATM   32  C   UNL     1     -40.440  59.837 -50.377  1.00  0.00     0.001 A 
HETATM   33  C   UNL     1     -41.561  59.764 -51.205  1.00  0.00     0.009 A 
ENDBRANCH  27  28
ENDBRANCH   1  27
TORSDOF 7
ENDMDL
MODEL 6
REMARK VINA RESULT:      -7.9      2.333      7.267
REMARK  7 active torsions:
REMARK  status: ('A' for Active; 'I' for Inactive)
REMARK    1  A    between atoms: C_4  and  C_5 
REMARK    2  A    between atoms: C_5  and  N_6 
REMARK       I    between atoms: N_6  and  C_7 
REMARK    3  A    between atoms: N_6  and  C_22 
REMARK    4  A    between atoms: C_7  and  C_8 
REMARK    5  A    between atoms: C_13  and  C_14 
REMARK    6  A    between atoms: C_15  and  O_16 
REMARK    7  A    between atoms: C_22  and  C_23 
ROOT
HETATM    1  N   UNL     1     -42.599  57.199 -52.416  1.00  0.00    -0.343 N 
HETATM    2  C   UNL     1     -43.384  56.876 -53.532  1.00  0.00     0.235 C 
HETATM    3  O   UNL     1     -44.333  56.092 -53.439  1.00  0.00    -0.272 OA
ENDROOT
BRANCH   2   4
HETATM    4  C   UNL     1     -43.022  57.470 -54.881  1.00  0.00     0.195 C 
HETATM    5  C   UNL     1     -44.227  58.034 -55.580  1.00  0.00     0.247 C 
HETATM    6  O   UNL     1     -44.849  59.034 -55.254  1.00  0.00    -0.271 OA
HETATM    7  N   UNL     1     -44.515  57.236 -56.667  1.00  0.00    -0.290 N 
HETATM    8  N   UNL     1     -43.664  56.144 -56.801  1.00  0.00    -0.228 NA
HETATM    9  H   UNL     1     -45.372  57.364 -57.197  1.00  0.00     0.183 HD
HETATM   10  C   UNL     1     -42.512  56.445 -55.911  1.00  0.00     0.134 C 
HETATM   11  H   UNL     1     -43.326  56.065 -57.763  1.00  0.00     0.147 HD
BRANCH  10  12
HETATM   12  C   UNL     1     -41.833  55.202 -55.382  1.00  0.00    -0.004 A 
HETATM   13  C   UNL     1     -42.545  54.010 -55.198  1.00  0.00     0.073 A 
HETATM   14  C   UNL     1     -41.920  52.857 -54.719  1.00  0.00     0.037 A 
HETATM   15  C   UNL     1     -40.554  52.875 -54.439  1.00  0.00     0.003 A 
HETATM   16  C   UNL     1     -39.821  54.042 -54.631  1.00  0.00     0.001 A 
HETATM   17  C   UNL     1     -40.456  55.196 -55.096  1.00  0.00     0.012 A 
BRANCH  13  18
HETATM   18  O   UNL     1     -43.875  53.981 -55.513  1.00  0.00    -0.360 OA
HETATM   19  H   UNL     1     -43.965  53.917 -56.478  1.00  0.00     0.217 HD
ENDBRANCH  13  18
ENDBRANCH  10  12
ENDBRANCH   2   4
BRANCH   1  20
HETATM   20  C   UNL     1     -43.034  56.648 -51.124  1.00  0.00     0.164 C 
BRANCH  20  21
HETATM   21  C   UNL     1     -42.178  55.514 -50.612  1.00  0.00    -0.040 A 
HETATM   22  C   UNL     1     -42.085  54.304 -51.318  1.00  0.00     0.009 A 
HETATM   23  C   UNL     1     -41.263  53.276 -50.857  1.00  0.00     0.001 A 
HETATM   24  C   UNL     1     -40.520  53.443 -49.690  1.00  0.00     0.000 A 
HETATM   25  C   UNL     1     -40.599  54.639 -48.982  1.00  0.00     0.001 A 
HETATM   26  C   UNL     1     -41.419  55.670 -49.443  1.00  0.00     0.009 A 
ENDBRANCH  20  21
ENDBRANCH   1  20
BRANCH   1  27
HETATM   27  C   UNL     1     -41.646  58.317 -52.422  1.00  0.00     0.164 C 
BRANCH  27  28
HETATM   28  C   UNL     1     -42.178  59.678 -52.041  1.00  0.00    -0.040 A 
HETATM   29  C   UNL     1     -42.143  60.118 -50.709  1.00  0.00     0.009 A 
HETATM   30  C   UNL     1     -42.609  61.388 -50.369  1.00  0.00     0.001 A 
HETATM   31  C   UNL     1     -43.107  62.236 -51.356  1.00  0.00     0.000 A 
HETATM   32  C   UNL     1     -43.138  61.816 -52.684  1.00  0.00     0.001 A 
HETATM   33  C   UNL     1     -42.672  60.546 -53.026  1.00  0.00     0.009 A 
ENDBRANCH  27  28
ENDBRANCH   1  27
TORSDOF 7
ENDMDL
MODEL 7
REMARK VINA RESULT:      -7.8     14.785     17.463
REMARK  7 active torsions:
REMARK  status: ('A' for Active; 'I' for Inactive)
REMARK    1  A    between atoms: C_4  and  C_5 
REMARK    2  A    between atoms: C_5  and  N_6 
REMARK       I    between atoms: N_6  and  C_7 
REMARK    3  A    between atoms: N_6  and  C_22 
REMARK    4  A    between atoms: C_7  and  C_8 
REMARK    5  A    between atoms: C_13  and  C_14 
REMARK    6  A    between atoms: C_15  and  O_16 
REMARK    7  A    between atoms: C_22  and  C_23 
ROOT
HETATM    1  N   UNL     1     -34.585  38.733 -54.050  1.00  0.00    -0.343 N 
HETATM    2  C   UNL     1     -35.738  39.363 -53.561  1.00  0.00     0.235 C 
HETATM    3  O   UNL     1     -36.863  38.909 -53.797  1.00  0.00    -0.272 OA
ENDROOT
BRANCH   2   4
HETATM    4  C   UNL     1     -35.593  40.651 -52.770  1.00  0.00     0.195 C 
HETATM    5  C   UNL     1     -36.412  40.622 -51.510  1.00  0.00     0.247 C 
HETATM    6  O   UNL     1     -36.196  39.936 -50.523  1.00  0.00    -0.271 OA
HETATM    7  N   UNL     1     -37.454  41.515 -51.647  1.00  0.00    -0.290 N 
HETATM    8  N   UNL     1     -37.487  42.153 -52.882  1.00  0.00    -0.228 NA
HETATM    9  H   UNL     1     -38.204  41.552 -50.962  1.00  0.00     0.183 HD
HETATM   10  C   UNL     1     -36.149  41.899 -53.479  1.00  0.00     0.134 C 
HETATM   11  H   UNL     1     -37.609  43.162 -52.765  1.00  0.00     0.147 HD
BRANCH  10  12
HETATM   12  C   UNL     1     -36.168  41.893 -54.991  1.00  0.00    -0.004 A 
HETATM   13  C   UNL     1     -37.346  41.628 -55.700  1.00  0.00     0.073 A 
HETATM   14  C   UNL     1     -37.370  41.632 -57.096  1.00  0.00     0.037 A 
HETATM   15  C   UNL     1     -36.209  41.927 -57.808  1.00  0.00     0.003 A 
HETATM   16  C   UNL     1     -35.030  42.212 -57.126  1.00  0.00     0.001 A 
HETATM   17  C   UNL     1     -35.009  42.192 -55.730  1.00  0.00     0.012 A 
BRANCH  13  18
HETATM   18  O   UNL     1     -38.495  41.380 -55.002  1.00  0.00    -0.360 OA
HETATM   19  H   UNL     1     -38.262  41.180 -54.079  1.00  0.00     0.217 HD
ENDBRANCH  13  18
ENDBRANCH  10  12
ENDBRANCH   2   4
BRANCH   1  20
HETATM   20  C   UNL     1     -34.781  37.456 -54.751  1.00  0.00     0.164 C 
BRANCH  20  21
HETATM   21  C   UNL     1     -34.564  37.529 -56.245  1.00  0.00    -0.040 A 
HETATM   22  C   UNL     1     -35.298  38.423 -57.038  1.00  0.00     0.009 A 
HETATM   23  C   UNL     1     -35.065  38.510 -58.411  1.00  0.00     0.001 A 
HETATM   24  C   UNL     1     -34.094  37.708 -59.008  1.00  0.00     0.000 A 
HETATM   25  C   UNL     1     -33.355  36.819 -58.232  1.00  0.00     0.001 A 
HETATM   26  C   UNL     1     -33.585  36.733 -56.858  1.00  0.00     0.009 A 
ENDBRANCH  20  21
ENDBRANCH   1  20
BRANCH   1  27
HETATM   27  C   UNL     1     -33.240  39.077 -53.573  1.00  0.00     0.164 C 
BRANCH  27  28
HETATM   28  C   UNL     1     -32.126  39.082 -54.592  1.00  0.00    -0.040 A 
HETATM   29  C   UNL     1     -31.092  38.137 -54.533  1.00  0.00     0.009 A 
HETATM   30  C   UNL     1     -30.081  38.129 -55.495  1.00  0.00     0.001 A 
HETATM   31  C   UNL     1     -30.098  39.060 -56.532  1.00  0.00     0.000 A 
HETATM   32  C   UNL     1     -31.125  39.998 -56.609  1.00  0.00     0.001 A 
HETATM   33  C   UNL     1     -32.136  40.007 -55.647  1.00  0.00     0.009 A 
ENDBRANCH  27  28
ENDBRANCH   1  27
TORSDOF 7
ENDMDL
MODEL 8
REMARK VINA RESULT:      -7.5      3.389      5.889
REMARK  7 active torsions:
REMARK  status: ('A' for Active; 'I' for Inactive)
REMARK    1  A    between atoms: C_4  and  C_5 
REMARK    2  A    between atoms: C_5  and  N_6 
REMARK       I    between atoms: N_6  and  C_7 
REMARK    3  A    between atoms: N_6  and  C_22 
REMARK    4  A    between atoms: C_7  and  C_8 
REMARK    5  A    between atoms: C_13  and  C_14 
REMARK    6  A    between atoms: C_15  and  O_16 
REMARK    7  A    between atoms: C_22  and  C_23 
ROOT
HETATM    1  N   UNL     1     -41.303  57.504 -54.013  1.00  0.00    -0.343 N 
HETATM    2  C   UNL     1     -42.307  57.891 -54.911  1.00  0.00     0.235 C 
HETATM    3  O   UNL     1     -42.374  59.051 -55.334  1.00  0.00    -0.272 OA
ENDROOT
BRANCH   2   4
HETATM    4  C   UNL     1     -43.354  56.873 -55.327  1.00  0.00     0.195 C 
HETATM    5  C   UNL     1     -43.587  56.893 -56.811  1.00  0.00     0.247 C 
HETATM    6  O   UNL     1     -42.807  56.512 -57.671  1.00  0.00    -0.271 OA
HETATM    7  N   UNL     1     -44.844  57.408 -57.049  1.00  0.00    -0.290 N 
HETATM    8  N   UNL     1     -45.520  57.789 -55.896  1.00  0.00    -0.228 NA
HETATM    9  H   UNL     1     -45.147  57.632 -57.992  1.00  0.00     0.183 HD
HETATM   10  C   UNL     1     -44.766  57.154 -54.783  1.00  0.00     0.134 C 
HETATM   11  H   UNL     1     -46.475  57.422 -55.898  1.00  0.00     0.147 HD
BRANCH  10  12
HETATM   12  C   UNL     1     -44.875  57.919 -53.483  1.00  0.00    -0.004 A 
HETATM   13  C   UNL     1     -45.114  59.299 -53.472  1.00  0.00     0.073 A 
HETATM   14  C   UNL     1     -45.225  60.007 -52.274  1.00  0.00     0.037 A 
HETATM   15  C   UNL     1     -45.121  59.333 -51.059  1.00  0.00     0.003 A 
HETATM   16  C   UNL     1     -44.901  57.959 -51.043  1.00  0.00     0.001 A 
HETATM   17  C   UNL     1     -44.776  57.259 -52.245  1.00  0.00     0.012 A 
BRANCH  13  18
HETATM   18  O   UNL     1     -45.258  59.953 -54.664  1.00  0.00    -0.360 OA
HETATM   19  H   UNL     1     -44.533  60.593 -54.757  1.00  0.00     0.217 HD
ENDBRANCH  13  18
ENDBRANCH  10  12
ENDBRANCH   2   4
BRANCH   1  20
HETATM   20  C   UNL     1     -40.279  58.511 -53.697  1.00  0.00     0.164 C 
BRANCH  20  21
HETATM   21  C   UNL     1     -40.322  59.014 -52.273  1.00  0.00    -0.040 A 
HETATM   22  C   UNL     1     -39.154  59.089 -51.499  1.00  0.00     0.009 A 
HETATM   23  C   UNL     1     -39.196  59.590 -50.198  1.00  0.00     0.001 A 
HETATM   24  C   UNL     1     -40.404  60.024 -49.654  1.00  0.00     0.000 A 
HETATM   25  C   UNL     1     -41.570  59.959 -50.412  1.00  0.00     0.001 A 
HETATM   26  C   UNL     1     -41.529  59.461 -51.716  1.00  0.00     0.009 A 
ENDBRANCH  20  21
ENDBRANCH   1  20
BRANCH   1  27
HETATM   27  C   UNL     1     -41.026  56.095 -53.703  1.00  0.00     0.164 C 
BRANCH  27  28
HETATM   28  C   UNL     1     -41.699  55.512 -52.485  1.00  0.00    -0.040 A 
HETATM   29  C   UNL     1     -42.658  54.496 -52.609  1.00  0.00     0.009 A 
HETATM   30  C   UNL     1     -43.255  53.940 -51.476  1.00  0.00     0.001 A 
HETATM   31  C   UNL     1     -42.895  54.389 -50.207  1.00  0.00     0.000 A 
HETATM   32  C   UNL     1     -41.937  55.390 -50.069  1.00  0.00     0.001 A 
HETATM   33  C   UNL     1     -41.339  55.946 -51.200  1.00  0.00     0.009 A 
ENDBRANCH  27  28
ENDBRANCH   1  27
TORSDOF 7
ENDMDL
MODEL 9
REMARK VINA RESULT:      -7.4      1.660      2.312
REMARK  7 active torsions:
REMARK  status: ('A' for Active; 'I' for Inactive)
REMARK    1  A    between atoms: C_4  and  C_5 
REMARK    2  A    between atoms: C_5  and  N_6 
REMARK       I    between atoms: N_6  and  C_7 
REMARK    3  A    between atoms: N_6  and  C_22 
REMARK    4  A    between atoms: C_7  and  C_8 
REMARK    5  A    between atoms: C_13  and  C_14 
REMARK    6  A    between atoms: C_15  and  O_16 
REMARK    7  A    between atoms: C_22  and  C_23 
ROOT
HETATM    1  N   UNL     1     -42.008  56.229 -53.855  1.00  0.00    -0.343 N 
HETATM    2  C   UNL     1     -42.282  57.078 -52.774  1.00  0.00     0.235 C 
HETATM    3  O   UNL     1     -43.444  57.334 -52.442  1.00  0.00    -0.272 OA
ENDROOT
BRANCH   2   4
HETATM    4  C   UNL     1     -41.124  57.727 -52.037  1.00  0.00     0.195 C 
HETATM    5  C   UNL     1     -41.183  57.452 -50.561  1.00  0.00     0.247 C 
HETATM    6  O   UNL     1     -40.987  56.376 -50.018  1.00  0.00    -0.271 OA
HETATM    7  N   UNL     1     -41.489  58.628 -49.910  1.00  0.00    -0.290 N 
HETATM    8  N   UNL     1     -41.687  59.707 -50.765  1.00  0.00    -0.228 NA
HETATM    9  H   UNL     1     -41.708  58.635 -48.918  1.00  0.00     0.183 HD
HETATM   10  C   UNL     1     -41.131  59.266 -52.071  1.00  0.00     0.134 C 
HETATM   11  H   UNL     1     -41.163  60.525 -50.443  1.00  0.00     0.147 HD
BRANCH  10  12
HETATM   12  C   UNL     1     -41.796  59.936 -53.252  1.00  0.00    -0.004 A 
HETATM   13  C   UNL     1     -42.683  61.005 -53.075  1.00  0.00     0.073 A 
HETATM   14  C   UNL     1     -43.292  61.633 -54.163  1.00  0.00     0.037 A 
HETATM   15  C   UNL     1     -42.999  61.210 -55.459  1.00  0.00     0.003 A 
HETATM   16  C   UNL     1     -42.107  60.161 -55.662  1.00  0.00     0.001 A 
HETATM   17  C   UNL     1     -41.513  59.528 -54.568  1.00  0.00     0.012 A 
BRANCH  13  18
HETATM   18  O   UNL     1     -42.937  61.448 -51.806  1.00  0.00    -0.360 OA
HETATM   19  H   UNL     1     -43.296  62.350 -51.858  1.00  0.00     0.217 HD
ENDBRANCH  13  18
ENDBRANCH  10  12
ENDBRANCH   2   4
BRANCH   1  20
HETATM   20  C   UNL     1     -43.163  55.578 -54.489  1.00  0.00     0.164 C 
BRANCH  20  21
HETATM   21  C   UNL     1     -43.474  56.080 -55.879  1.00  0.00    -0.040 A 
HETATM   22  C   UNL     1     -44.167  57.285 -56.073  1.00  0.00     0.009 A 
HETATM   23  C   UNL     1     -44.417  57.760 -57.361  1.00  0.00     0.001 A 
HETATM   24  C   UNL     1     -43.975  57.042 -58.471  1.00  0.00     0.000 A 
HETATM   25  C   UNL     1     -43.282  55.847 -58.293  1.00  0.00     0.001 A 
HETATM   26  C   UNL     1     -43.028  55.372 -57.005  1.00  0.00     0.009 A 
ENDBRANCH  20  21
ENDBRANCH   1  20
BRANCH   1  27
HETATM   27  C   UNL     1     -40.666  55.690 -54.110  1.00  0.00     0.164 C 
BRANCH  27  28
HETATM   28  C   UNL     1     -40.414  54.253 -53.723  1.00  0.00    -0.040 A 
HETATM   29  C   UNL     1     -40.392  53.863 -52.376  1.00  0.00     0.009 A 
HETATM   30  C   UNL     1     -40.188  52.528 -52.027  1.00  0.00     0.001 A 
HETATM   31  C   UNL     1     -40.013  51.565 -53.019  1.00  0.00     0.000 A 
HETATM   32  C   UNL     1     -40.043  51.937 -54.361  1.00  0.00     0.001 A 
HETATM   33  C   UNL     1     -40.247  53.272 -54.713  1.00  0.00     0.009 A 
ENDBRANCH  27  28
ENDBRANCH   1  27
TORSDOF 7
ENDMDL
MODEL 10
REMARK VINA RESULT:      -7.3      2.736      6.469
REMARK  7 active torsions:
REMARK  status: ('A' for Active; 'I' for Inactive)
REMARK    1  A    between atoms: C_4  and  C_5 
REMARK    2  A    between atoms: C_5  and  N_6 
REMARK       I    between atoms: N_6  and  C_7 
REMARK    3  A    between atoms: N_6  and  C_22 
REMARK    4  A    between atoms: C_7  and  C_8 
REMARK    5  A    between atoms: C_13  and  C_14 
REMARK    6  A    between atoms: C_15  and  O_16 
REMARK    7  A    between atoms: C_22  and  C_23 
ROOT
HETATM    1  N   UNL     1     -43.194  59.034 -55.359  1.00  0.00    -0.343 N 
HETATM    2  C   UNL     1     -42.618  58.637 -54.144  1.00  0.00     0.235 C 
HETATM    3  O   UNL     1     -41.411  58.385 -54.062  1.00  0.00    -0.272 OA
ENDROOT
BRANCH   2   4
HETATM    4  C   UNL     1     -43.511  58.470 -52.927  1.00  0.00     0.195 C 
HETATM    5  C   UNL     1     -43.128  59.418 -51.826  1.00  0.00     0.247 C 
HETATM    6  O   UNL     1     -43.281  60.631 -51.831  1.00  0.00    -0.271 OA
HETATM    7  N   UNL     1     -42.580  58.689 -50.793  1.00  0.00    -0.290 N 
HETATM    8  N   UNL     1     -42.499  57.325 -51.051  1.00  0.00    -0.228 NA
HETATM    9  H   UNL     1     -42.133  59.151 -50.006  1.00  0.00     0.183 HD
HETATM   10  C   UNL     1     -43.382  57.106 -52.226  1.00  0.00     0.134 C 
HETATM   11  H   UNL     1     -42.861  56.785 -50.261  1.00  0.00     0.147 HD
BRANCH  10  12
HETATM   12  C   UNL     1     -42.960  55.924 -53.070  1.00  0.00    -0.004 A 
HETATM   13  C   UNL     1     -43.792  55.417 -54.075  1.00  0.00     0.073 A 
HETATM   14  C   UNL     1     -43.402  54.332 -54.863  1.00  0.00     0.037 A 
HETATM   15  C   UNL     1     -42.151  53.750 -54.669  1.00  0.00     0.003 A 
HETATM   16  C   UNL     1     -41.298  54.247 -53.688  1.00  0.00     0.001 A 
HETATM   17  C   UNL     1     -41.701  55.323 -52.894  1.00  0.00     0.012 A 
BRANCH  13  18
HETATM   18  O   UNL     1     -45.002  56.015 -54.294  1.00  0.00    -0.360 OA
HETATM   19  H   UNL     1     -45.206  56.591 -53.538  1.00  0.00     0.217 HD
ENDBRANCH  13  18
ENDBRANCH  10  12
ENDBRANCH   2   4
BRANCH   1  20
HETATM   20  C   UNL     1     -42.273  59.243 -56.486  1.00  0.00     0.164 C 
BRANCH  20  21
HETATM   21  C   UNL     1     -42.391  58.211 -57.583  1.00  0.00    -0.040 A 
HETATM   22  C   UNL     1     -42.760  56.888 -57.294  1.00  0.00     0.009 A 
HETATM   23  C   UNL     1     -42.903  55.951 -58.318  1.00  0.00     0.001 A 
HETATM   24  C   UNL     1     -42.682  56.323 -59.643  1.00  0.00     0.000 A 
HETATM   25  C   UNL     1     -42.320  57.633 -59.945  1.00  0.00     0.001 A 
HETATM   26  C   UNL     1     -42.180  58.573 -58.922  1.00  0.00     0.009 A 
ENDBRANCH  20  21
ENDBRANCH   1  20
BRANCH   1  27
HETATM   27  C   UNL     1     -44.547  59.597 -55.440  1.00  0.00     0.164 C 
BRANCH  27  28
HETATM   28  C   UNL     1     -45.327  59.341 -56.707  1.00  0.00    -0.040 A 
HETATM   29  C   UNL     1     -46.096  58.178 -56.857  1.00  0.00     0.009 A 
HETATM   30  C   UNL     1     -46.838  57.962 -58.018  1.00  0.00     0.001 A 
HETATM   31  C   UNL     1     -46.826  58.909 -59.040  1.00  0.00     0.000 A 
HETATM   32  C   UNL     1     -46.074  60.074 -58.901  1.00  0.00     0.001 A 
HETATM   33  C   UNL     1     -45.332  60.292 -57.739  1.00  0.00     0.009 A 
ENDBRANCH  27  28
ENDBRANCH   1  27
TORSDOF 7
ENDMDL
