MODEL 1
REMARK VINA RESULT:      -8.5      0.000      0.000
REMARK  7 active torsions:
REMARK  status: ('A' for Active; 'I' for Inactive)
REMARK    1  A    between atoms: O_2  and  C_3 
REMARK    2  A    between atoms: C_4  and  N_5 
REMARK       I    between atoms: N_5  and  C_6 
REMARK    3  A    between atoms: C_6  and  C_7 
REMARK    4  A    between atoms: C_14  and  N_15 
REMARK       I    between atoms: N_15  and  C_16 
REMARK    5  A    between atoms: C_16  and  C_17 
REMARK    6  A    between atoms: C_17  and  C_18 
REMARK    7  A    between atoms: C_18  and  C_19 
ROOT
HETATM    1  C   UNL     1     -43.907  57.749 -56.450  1.00  0.00     0.095 A 
HETATM    2  C   UNL     1     -42.848  56.915 -56.827  1.00  0.00     0.070 A 
HETATM    3  C   UNL     1     -42.380  55.967 -55.898  1.00  0.00     0.062 A 
HETATM    4  C   UNL     1     -42.985  55.810 -54.647  1.00  0.00     0.037 A 
HETATM    5  C   UNL     1     -44.090  56.605 -54.325  1.00  0.00     0.032 A 
HETATM    6  C   UNL     1     -44.553  57.563 -55.225  1.00  0.00     0.041 A 
ENDROOT
BRANCH   4   7
HETATM    7  N   UNL     1     -42.534  54.913 -53.656  1.00  0.00    -0.327 N 
HETATM    8  C   UNL     1     -41.783  55.202 -52.529  1.00  0.00     0.222 C 
HETATM    9  O   UNL     1     -41.311  56.294 -52.228  1.00  0.00    -0.273 OA
HETATM   10  H   UNL     1     -42.782  53.942 -53.801  1.00  0.00     0.169 HD
BRANCH   8  11
HETATM   11  C   UNL     1     -41.614  54.002 -51.613  1.00  0.00     0.108 C 
BRANCH  11  12
HETATM   12  C   UNL     1     -40.172  53.486 -51.590  1.00  0.00     0.047 C 
BRANCH  12  13
HETATM   13  C   UNL     1     -39.965  52.164 -52.295  1.00  0.00    -0.058 A 
HETATM   14  C   UNL     1     -40.186  52.071 -53.676  1.00  0.00     0.007 A 
HETATM   15  C   UNL     1     -40.057  50.847 -54.339  1.00  0.00     0.001 A 
HETATM   16  C   UNL     1     -39.711  49.701 -53.629  1.00  0.00     0.000 A 
HETATM   17  C   UNL     1     -39.501  49.774 -52.255  1.00  0.00     0.001 A 
HETATM   18  C   UNL     1     -39.639  50.995 -51.589  1.00  0.00     0.007 A 
ENDBRANCH  12  13
ENDBRANCH  11  12
ENDBRANCH   8  11
ENDBRANCH   4   7
BRANCH   2  19
HETATM   19  N   UNL     1     -42.123  56.997 -58.033  1.00  0.00    -0.319 N 
HETATM   20  C   UNL     1     -42.490  56.862 -59.355  1.00  0.00     0.280 C 
HETATM   21  O   UNL     1     -41.804  57.481 -60.175  1.00  0.00    -0.265 OA
HETATM   22  H   UNL     1     -41.174  57.344 -57.957  1.00  0.00     0.169 HD
BRANCH  20  23
HETATM   23  C   UNL     1     -43.529  55.934 -59.754  1.00  0.00     0.142 A 
HETATM   24  O   UNL     1     -44.130  56.139 -60.972  1.00  0.00    -0.317 OA
HETATM   25  C   UNL     1     -45.032  55.146 -61.158  1.00  0.00     0.143 A 
HETATM   26  C   UNL     1     -45.023  54.280 -60.092  1.00  0.00     0.027 A 
HETATM   27  C   UNL     1     -44.046  54.777 -59.193  1.00  0.00     0.045 A 
ENDBRANCH  20  23
ENDBRANCH   2  19
BRANCH   1  28
HETATM   28  O   UNL     1     -44.352  58.795 -57.211  1.00  0.00    -0.354 OA
HETATM   29  C   UNL     1     -45.628  59.246 -56.750  1.00  0.00     0.210 C 
ENDBRANCH   1  28
TORSDOF 7
ENDMDL
MODEL 2
REMARK VINA RESULT:      -7.9      2.528      8.647
REMARK  7 active torsions:
REMARK  status: ('A' for Active; 'I' for Inactive)
REMARK    1  A    between atoms: O_2  and  C_3 
REMARK    2  A    between atoms: C_4  and  N_5 
REMARK       I    between atoms: N_5  and  C_6 
REMARK    3  A    between atoms: C_6  and  C_7 
REMARK    4  A    between atoms: C_14  and  N_15 
REMARK       I    between atoms: N_15  and  C_16 
REMARK    5  A    between atoms: C_16  and  C_17 
REMARK    6  A    between atoms: C_17  and  C_18 
REMARK    7  A    between atoms: C_18  and  C_19 
ROOT
HETATM    1  C   UNL     1     -41.898  53.825 -52.545  1.00  0.00     0.095 A 
HETATM    2  C   UNL     1     -43.090  54.547 -52.677  1.00  0.00     0.070 A 
HETATM    3  C   UNL     1     -43.574  54.808 -53.972  1.00  0.00     0.062 A 
HETATM    4  C   UNL     1     -42.924  54.314 -55.109  1.00  0.00     0.037 A 
HETATM    5  C   UNL     1     -41.777  53.532 -54.945  1.00  0.00     0.032 A 
HETATM    6  C   UNL     1     -41.271  53.282 -53.670  1.00  0.00     0.041 A 
ENDROOT
BRANCH   4   7
HETATM    7  N   UNL     1     -43.332  54.580 -56.432  1.00  0.00    -0.327 N 
HETATM    8  C   UNL     1     -43.022  55.683 -57.210  1.00  0.00     0.222 C 
HETATM    9  O   UNL     1     -42.388  56.670 -56.853  1.00  0.00    -0.273 OA
HETATM   10  H   UNL     1     -43.934  53.882 -56.852  1.00  0.00     0.169 HD
BRANCH   8  11
HETATM   11  C   UNL     1     -43.518  55.551 -58.640  1.00  0.00     0.108 C 
BRANCH  11  12
HETATM   12  C   UNL     1     -42.523  56.121 -59.656  1.00  0.00     0.047 C 
BRANCH  12  13
HETATM   13  C   UNL     1     -42.821  57.535 -60.104  1.00  0.00    -0.058 A 
HETATM   14  C   UNL     1     -44.151  57.966 -60.204  1.00  0.00     0.007 A 
HETATM   15  C   UNL     1     -44.452  59.250 -60.670  1.00  0.00     0.001 A 
HETATM   16  C   UNL     1     -43.428  60.114 -61.046  1.00  0.00     0.000 A 
HETATM   17  C   UNL     1     -42.102  59.696 -60.965  1.00  0.00     0.001 A 
HETATM   18  C   UNL     1     -41.801  58.410 -60.507  1.00  0.00     0.007 A 
ENDBRANCH  12  13
ENDBRANCH  11  12
ENDBRANCH   8  11
ENDBRANCH   4   7
BRANCH   2  19
HETATM   19  N   UNL     1     -43.817  55.137 -51.623  1.00  0.00    -0.319 N 
HETATM   20  C   UNL     1     -43.830  56.411 -51.096  1.00  0.00     0.280 C 
HETATM   21  O   UNL     1     -44.888  56.768 -50.567  1.00  0.00    -0.265 OA
HETATM   22  H   UNL     1     -44.571  54.581 -51.239  1.00  0.00     0.169 HD
BRANCH  20  23
HETATM   23  C   UNL     1     -42.627  57.215 -51.048  1.00  0.00     0.142 A 
HETATM   24  O   UNL     1     -42.712  58.513 -51.491  1.00  0.00    -0.317 OA
HETATM   25  C   UNL     1     -41.496  59.087 -51.322  1.00  0.00     0.143 A 
HETATM   26  C   UNL     1     -40.617  58.195 -50.759  1.00  0.00     0.027 A 
HETATM   27  C   UNL     1     -41.345  56.994 -50.569  1.00  0.00     0.045 A 
ENDBRANCH  20  23
ENDBRANCH   2  19
BRANCH   1  28
HETATM   28  O   UNL     1     -41.259  53.633 -51.351  1.00  0.00    -0.354 OA
HETATM   29  C   UNL     1     -40.131  52.771 -51.516  1.00  0.00     0.210 C 
ENDBRANCH   1  28
TORSDOF 7
ENDMDL
MODEL 3
REMARK VINA RESULT:      -7.6      2.257      8.262
REMARK  7 active torsions:
REMARK  status: ('A' for Active; 'I' for Inactive)
REMARK    1  A    between atoms: O_2  and  C_3 
REMARK    2  A    between atoms: C_4  and  N_5 
REMARK       I    between atoms: N_5  and  C_6 
REMARK    3  A    between atoms: C_6  and  C_7 
REMARK    4  A    between atoms: C_14  and  N_15 
REMARK       I    between atoms: N_15  and  C_16 
REMARK    5  A    between atoms: C_16  and  C_17 
REMARK    6  A    between atoms: C_17  and  C_18 
REMARK    7  A    between atoms: C_18  and  C_19 
ROOT
HETATM    1  C   UNL     1     -40.776  53.078 -53.135  1.00  0.00     0.095 A 
HETATM    2  C   UNL     1     -41.916  53.871 -52.952  1.00  0.00     0.070 A 
HETATM    3  C   UNL     1     -42.282  54.761 -53.979  1.00  0.00     0.062 A 
HETATM    4  C   UNL     1     -41.570  54.821 -55.183  1.00  0.00     0.037 A 
HETATM    5  C   UNL     1     -40.482  53.963 -55.368  1.00  0.00     0.032 A 
HETATM    6  C   UNL     1     -40.092  53.091 -54.353  1.00  0.00     0.041 A 
ENDROOT
BRANCH   4   7
HETATM    7  N   UNL     1     -41.858  55.722 -56.228  1.00  0.00    -0.327 N 
HETATM    8  C   UNL     1     -42.503  56.945 -56.141  1.00  0.00     0.222 C 
HETATM    9  O   UNL     1     -43.008  57.431 -55.135  1.00  0.00    -0.273 OA
HETATM   10  H   UNL     1     -41.566  55.427 -57.152  1.00  0.00     0.169 HD
BRANCH   8  11
HETATM   11  C   UNL     1     -42.498  57.706 -57.455  1.00  0.00     0.108 C 
BRANCH  11  12
HETATM   12  C   UNL     1     -42.373  56.775 -58.666  1.00  0.00     0.047 C 
BRANCH  12  13
HETATM   13  C   UNL     1     -43.689  56.406 -59.315  1.00  0.00    -0.058 A 
HETATM   14  C   UNL     1     -44.682  57.382 -59.477  1.00  0.00     0.007 A 
HETATM   15  C   UNL     1     -45.926  57.052 -60.022  1.00  0.00     0.001 A 
HETATM   16  C   UNL     1     -46.194  55.741 -60.407  1.00  0.00     0.000 A 
HETATM   17  C   UNL     1     -45.223  54.758 -60.241  1.00  0.00     0.001 A 
HETATM   18  C   UNL     1     -43.982  55.085 -59.688  1.00  0.00     0.007 A 
ENDBRANCH  12  13
ENDBRANCH  11  12
ENDBRANCH   8  11
ENDBRANCH   4   7
BRANCH   2  19
HETATM   19  N   UNL     1     -42.692  53.942 -51.778  1.00  0.00    -0.319 N 
HETATM   20  C   UNL     1     -43.172  55.001 -51.038  1.00  0.00     0.280 C 
HETATM   21  O   UNL     1     -44.211  54.793 -50.403  1.00  0.00    -0.265 OA
HETATM   22  H   UNL     1     -43.095  53.069 -51.460  1.00  0.00     0.169 HD
BRANCH  20  23
HETATM   23  C   UNL     1     -42.416  56.230 -50.909  1.00  0.00     0.142 A 
HETATM   24  O   UNL     1     -42.963  57.371 -51.443  1.00  0.00    -0.317 OA
HETATM   25  C   UNL     1     -42.118  58.396 -51.178  1.00  0.00     0.143 A 
HETATM   26  C   UNL     1     -41.032  57.953 -50.464  1.00  0.00     0.027 A 
HETATM   27  C   UNL     1     -41.228  56.562 -50.277  1.00  0.00     0.045 A 
ENDBRANCH  20  23
ENDBRANCH   2  19
BRANCH   1  28
HETATM   28  O   UNL     1     -40.245  52.284 -52.156  1.00  0.00    -0.354 OA
HETATM   29  C   UNL     1     -39.461  51.234 -52.728  1.00  0.00     0.210 C 
ENDBRANCH   1  28
TORSDOF 7
ENDMDL
MODEL 4
REMARK VINA RESULT:      -7.6      2.743      8.850
REMARK  7 active torsions:
REMARK  status: ('A' for Active; 'I' for Inactive)
REMARK    1  A    between atoms: O_2  and  C_3 
REMARK    2  A    between atoms: C_4  and  N_5 
REMARK       I    between atoms: N_5  and  C_6 
REMARK    3  A    between atoms: C_6  and  C_7 
REMARK    4  A    between atoms: C_14  and  N_15 
REMARK       I    between atoms: N_15  and  C_16 
REMARK    5  A    between atoms: C_16  and  C_17 
REMARK    6  A    between atoms: C_17  and  C_18 
REMARK    7  A    between atoms: C_18  and  C_19 
ROOT
HETATM    1  C   UNL     1     -39.749  51.752 -52.063  1.00  0.00     0.095 A 
HETATM    2  C   UNL     1     -40.204  53.011 -51.650  1.00  0.00     0.070 A 
HETATM    3  C   UNL     1     -40.624  53.926 -52.634  1.00  0.00     0.062 A 
HETATM    4  C   UNL     1     -40.648  53.581 -53.990  1.00  0.00     0.037 A 
HETATM    5  C   UNL     1     -40.260  52.292 -54.367  1.00  0.00     0.032 A 
HETATM    6  C   UNL     1     -39.821  51.380 -53.408  1.00  0.00     0.041 A 
ENDROOT
BRANCH   4   7
HETATM    7  N   UNL     1     -41.012  54.467 -55.025  1.00  0.00    -0.327 N 
HETATM    8  C   UNL     1     -42.281  54.716 -55.522  1.00  0.00     0.222 C 
HETATM    9  O   UNL     1     -43.316  54.147 -55.192  1.00  0.00    -0.273 OA
HETATM   10  H   UNL     1     -40.247  54.968 -55.460  1.00  0.00     0.169 HD
BRANCH   8  11
HETATM   11  C   UNL     1     -42.302  55.847 -56.536  1.00  0.00     0.108 C 
BRANCH  11  12
HETATM   12  C   UNL     1     -43.118  55.495 -57.783  1.00  0.00     0.047 C 
BRANCH  12  13
HETATM   13  C   UNL     1     -43.301  56.636 -58.759  1.00  0.00    -0.058 A 
HETATM   14  C   UNL     1     -42.197  57.126 -59.470  1.00  0.00     0.007 A 
HETATM   15  C   UNL     1     -42.331  58.217 -60.334  1.00  0.00     0.001 A 
HETATM   16  C   UNL     1     -43.569  58.834 -60.494  1.00  0.00     0.000 A 
HETATM   17  C   UNL     1     -44.673  58.367 -59.784  1.00  0.00     0.001 A 
HETATM   18  C   UNL     1     -44.538  57.282 -58.914  1.00  0.00     0.007 A 
ENDBRANCH  12  13
ENDBRANCH  11  12
ENDBRANCH   8  11
ENDBRANCH   4   7
BRANCH   2  19
HETATM   19  N   UNL     1     -40.190  53.499 -50.328  1.00  0.00    -0.319 N 
HETATM   20  C   UNL     1     -41.162  54.062 -49.530  1.00  0.00     0.280 C 
HETATM   21  O   UNL     1     -41.020  53.909 -48.312  1.00  0.00    -0.265 OA
HETATM   22  H   UNL     1     -39.354  53.300 -49.791  1.00  0.00     0.169 HD
BRANCH  20  23
HETATM   23  C   UNL     1     -42.202  54.900 -50.092  1.00  0.00     0.142 A 
HETATM   24  O   UNL     1     -41.880  56.203 -50.381  1.00  0.00    -0.317 OA
HETATM   25  C   UNL     1     -42.974  56.786 -50.928  1.00  0.00     0.143 A 
HETATM   26  C   UNL     1     -44.005  55.883 -51.020  1.00  0.00     0.027 A 
HETATM   27  C   UNL     1     -43.506  54.665 -50.497  1.00  0.00     0.045 A 
ENDBRANCH  20  23
ENDBRANCH   2  19
BRANCH   1  28
HETATM   28  O   UNL     1     -39.187  50.838 -51.216  1.00  0.00    -0.354 OA
HETATM   29  C   UNL     1     -39.731  49.536 -51.447  1.00  0.00     0.210 C 
ENDBRANCH   1  28
TORSDOF 7
ENDMDL
MODEL 5
REMARK VINA RESULT:      -7.5      2.021      2.746
REMARK  7 active torsions:
REMARK  status: ('A' for Active; 'I' for Inactive)
REMARK    1  A    between atoms: O_2  and  C_3 
REMARK    2  A    between atoms: C_4  and  N_5 
REMARK       I    between atoms: N_5  and  C_6 
REMARK    3  A    between atoms: C_6  and  C_7 
REMARK    4  A    between atoms: C_14  and  N_15 
REMARK       I    between atoms: N_15  and  C_16 
REMARK    5  A    between atoms: C_16  and  C_17 
REMARK    6  A    between atoms: C_17  and  C_18 
REMARK    7  A    between atoms: C_18  and  C_19 
ROOT
HETATM    1  C   UNL     1     -43.657  59.109 -53.554  1.00  0.00     0.095 A 
HETATM    2  C   UNL     1     -42.568  58.534 -54.220  1.00  0.00     0.070 A 
HETATM    3  C   UNL     1     -42.089  57.291 -53.767  1.00  0.00     0.062 A 
HETATM    4  C   UNL     1     -42.711  56.606 -52.718  1.00  0.00     0.037 A 
HETATM    5  C   UNL     1     -43.843  57.168 -52.120  1.00  0.00     0.032 A 
HETATM    6  C   UNL     1     -44.318  58.409 -52.541  1.00  0.00     0.041 A 
ENDROOT
BRANCH   4   7
HETATM    7  N   UNL     1     -42.250  55.382 -52.189  1.00  0.00    -0.327 N 
HETATM    8  C   UNL     1     -41.406  55.189 -51.108  1.00  0.00     0.222 C 
HETATM    9  O   UNL     1     -40.846  56.064 -50.457  1.00  0.00    -0.273 OA
HETATM   10  H   UNL     1     -42.570  54.551 -52.671  1.00  0.00     0.169 HD
BRANCH   8  11
HETATM   11  C   UNL     1     -41.253  53.724 -50.738  1.00  0.00     0.108 C 
BRANCH  11  12
HETATM   12  C   UNL     1     -39.884  53.163 -51.136  1.00  0.00     0.047 C 
BRANCH  12  13
HETATM   13  C   UNL     1     -39.933  52.029 -52.136  1.00  0.00    -0.058 A 
HETATM   14  C   UNL     1     -39.594  50.731 -51.731  1.00  0.00     0.007 A 
HETATM   15  C   UNL     1     -39.578  49.678 -52.650  1.00  0.00     0.001 A 
HETATM   16  C   UNL     1     -39.895  49.911 -53.986  1.00  0.00     0.000 A 
HETATM   17  C   UNL     1     -40.221  51.198 -54.406  1.00  0.00     0.001 A 
HETATM   18  C   UNL     1     -40.229  52.252 -53.490  1.00  0.00     0.007 A 
ENDBRANCH  12  13
ENDBRANCH  11  12
ENDBRANCH   8  11
ENDBRANCH   4   7
BRANCH   2  19
HETATM   19  N   UNL     1     -41.826  59.134 -55.257  1.00  0.00    -0.319 N 
HETATM   20  C   UNL     1     -42.101  59.372 -56.586  1.00  0.00     0.280 C 
HETATM   21  O   UNL     1     -41.524  60.338 -57.096  1.00  0.00    -0.265 OA
HETATM   22  H   UNL     1     -40.972  59.603 -54.977  1.00  0.00     0.169 HD
BRANCH  20  23
HETATM   23  C   UNL     1     -42.910  58.453 -57.361  1.00  0.00     0.142 A 
HETATM   24  O   UNL     1     -44.010  58.964 -58.006  1.00  0.00    -0.317 OA
HETATM   25  C   UNL     1     -44.592  57.951 -58.693  1.00  0.00     0.143 A 
HETATM   26  C   UNL     1     -43.883  56.787 -58.527  1.00  0.00     0.027 A 
HETATM   27  C   UNL     1     -42.792  57.110 -57.681  1.00  0.00     0.045 A 
ENDBRANCH  20  23
ENDBRANCH   2  19
BRANCH   1  28
HETATM   28  O   UNL     1     -44.119  60.371 -53.811  1.00  0.00    -0.354 OA
HETATM   29  C   UNL     1     -45.341  60.319 -54.551  1.00  0.00     0.210 C 
ENDBRANCH   1  28
TORSDOF 7
ENDMDL
MODEL 6
REMARK VINA RESULT:      -7.4      1.719      2.774
REMARK  7 active torsions:
REMARK  status: ('A' for Active; 'I' for Inactive)
REMARK    1  A    between atoms: O_2  and  C_3 
REMARK    2  A    between atoms: C_4  and  N_5 
REMARK       I    between atoms: N_5  and  C_6 
REMARK    3  A    between atoms: C_6  and  C_7 
REMARK    4  A    between atoms: C_14  and  N_15 
REMARK       I    between atoms: N_15  and  C_16 
REMARK    5  A    between atoms: C_16  and  C_17 
REMARK    6  A    between atoms: C_17  and  C_18 
REMARK    7  A    between atoms: C_18  and  C_19 
ROOT
HETATM    1  C   UNL     1     -44.845  57.976 -57.196  1.00  0.00     0.095 A 
HETATM    2  C   UNL     1     -43.846  57.031 -57.461  1.00  0.00     0.070 A 
HETATM    3  C   UNL     1     -43.197  56.421 -56.371  1.00  0.00     0.062 A 
HETATM    4  C   UNL     1     -43.571  56.695 -55.051  1.00  0.00     0.037 A 
HETATM    5  C   UNL     1     -44.623  57.586 -54.817  1.00  0.00     0.032 A 
HETATM    6  C   UNL     1     -45.262  58.216 -55.884  1.00  0.00     0.041 A 
ENDROOT
BRANCH   4   7
HETATM    7  N   UNL     1     -42.930  56.153 -53.918  1.00  0.00    -0.327 N 
HETATM    8  C   UNL     1     -41.705  56.515 -53.382  1.00  0.00     0.222 C 
HETATM    9  O   UNL     1     -40.920  57.334 -53.848  1.00  0.00    -0.273 OA
HETATM   10  H   UNL     1     -43.425  55.401 -53.454  1.00  0.00     0.169 HD
BRANCH   8  11
HETATM   11  C   UNL     1     -41.409  55.813 -52.068  1.00  0.00     0.108 C 
BRANCH  11  12
HETATM   12  C   UNL     1     -41.999  54.400 -52.018  1.00  0.00     0.047 C 
BRANCH  12  13
HETATM   13  C   UNL     1     -41.084  53.316 -52.542  1.00  0.00    -0.058 A 
HETATM   14  C   UNL     1     -41.181  52.911 -53.880  1.00  0.00     0.007 A 
HETATM   15  C   UNL     1     -40.385  51.872 -54.371  1.00  0.00     0.001 A 
HETATM   16  C   UNL     1     -39.487  51.222 -53.529  1.00  0.00     0.000 A 
HETATM   17  C   UNL     1     -39.388  51.603 -52.194  1.00  0.00     0.001 A 
HETATM   18  C   UNL     1     -40.190  52.636 -51.700  1.00  0.00     0.007 A 
ENDBRANCH  12  13
ENDBRANCH  11  12
ENDBRANCH   8  11
ENDBRANCH   4   7
BRANCH   2  19
HETATM   19  N   UNL     1     -43.345  56.696 -58.735  1.00  0.00    -0.319 N 
HETATM   20  C   UNL     1     -42.381  57.266 -59.539  1.00  0.00     0.280 C 
HETATM   21  O   UNL     1     -41.801  56.502 -60.316  1.00  0.00    -0.265 OA
HETATM   22  H   UNL     1     -43.639  55.801 -59.106  1.00  0.00     0.169 HD
BRANCH  20  23
HETATM   23  C   UNL     1     -42.174  58.700 -59.559  1.00  0.00     0.142 A 
HETATM   24  O   UNL     1     -41.708  59.291 -58.410  1.00  0.00    -0.317 OA
HETATM   25  C   UNL     1     -41.551  60.613 -58.661  1.00  0.00     0.143 A 
HETATM   26  C   UNL     1     -41.888  60.900 -59.961  1.00  0.00     0.027 A 
HETATM   27  C   UNL     1     -42.276  59.669 -60.545  1.00  0.00     0.045 A 
ENDBRANCH  20  23
ENDBRANCH   2  19
BRANCH   1  28
HETATM   28  O   UNL     1     -45.443  58.733 -58.165  1.00  0.00    -0.354 OA
HETATM   29  C   UNL     1     -46.115  59.854 -57.585  1.00  0.00     0.210 C 
ENDBRANCH   1  28
TORSDOF 7
ENDMDL
MODEL 7
REMARK VINA RESULT:      -7.3      2.337      3.839
REMARK  7 active torsions:
REMARK  status: ('A' for Active; 'I' for Inactive)
REMARK    1  A    between atoms: O_2  and  C_3 
REMARK    2  A    between atoms: C_4  and  N_5 
REMARK       I    between atoms: N_5  and  C_6 
REMARK    3  A    between atoms: C_6  and  C_7 
REMARK    4  A    between atoms: C_14  and  N_15 
REMARK       I    between atoms: N_15  and  C_16 
REMARK    5  A    between atoms: C_16  and  C_17 
REMARK    6  A    between atoms: C_17  and  C_18 
REMARK    7  A    between atoms: C_18  and  C_19 
ROOT
HETATM    1  C   UNL     1     -43.984  57.038 -58.346  1.00  0.00     0.095 A 
HETATM    2  C   UNL     1     -43.990  57.918 -57.257  1.00  0.00     0.070 A 
HETATM    3  C   UNL     1     -43.396  57.495 -56.053  1.00  0.00     0.062 A 
HETATM    4  C   UNL     1     -42.759  56.254 -55.949  1.00  0.00     0.037 A 
HETATM    5  C   UNL     1     -42.702  55.426 -57.074  1.00  0.00     0.032 A 
HETATM    6  C   UNL     1     -43.305  55.820 -58.268  1.00  0.00     0.041 A 
ENDROOT
BRANCH   4   7
HETATM    7  N   UNL     1     -42.189  55.755 -54.760  1.00  0.00    -0.327 N 
HETATM    8  C   UNL     1     -42.752  54.870 -53.854  1.00  0.00     0.222 C 
HETATM    9  O   UNL     1     -43.890  54.416 -53.893  1.00  0.00    -0.273 OA
HETATM   10  H   UNL     1     -41.261  56.099 -54.543  1.00  0.00     0.169 HD
BRANCH   8  11
HETATM   11  C   UNL     1     -41.779  54.444 -52.769  1.00  0.00     0.108 C 
BRANCH  11  12
HETATM   12  C   UNL     1     -40.441  53.966 -53.341  1.00  0.00     0.047 C 
BRANCH  12  13
HETATM   13  C   UNL     1     -40.231  52.469 -53.287  1.00  0.00    -0.058 A 
HETATM   14  C   UNL     1     -39.723  51.880 -52.121  1.00  0.00     0.007 A 
HETATM   15  C   UNL     1     -39.468  50.507 -52.068  1.00  0.00     0.001 A 
HETATM   16  C   UNL     1     -39.710  49.707 -53.181  1.00  0.00     0.000 A 
HETATM   17  C   UNL     1     -40.202  50.280 -54.352  1.00  0.00     0.001 A 
HETATM   18  C   UNL     1     -40.449  51.654 -54.409  1.00  0.00     0.007 A 
ENDBRANCH  12  13
ENDBRANCH  11  12
ENDBRANCH   8  11
ENDBRANCH   4   7
BRANCH   2  19
HETATM   19  N   UNL     1     -44.632  59.172 -57.214  1.00  0.00    -0.319 N 
HETATM   20  C   UNL     1     -44.407  60.360 -57.877  1.00  0.00     0.280 C 
HETATM   21  O   UNL     1     -45.393  61.086 -58.038  1.00  0.00    -0.265 OA
HETATM   22  H   UNL     1     -45.505  59.206 -56.702  1.00  0.00     0.169 HD
BRANCH  20  23
HETATM   23  C   UNL     1     -43.066  60.780 -58.229  1.00  0.00     0.142 A 
HETATM   24  O   UNL     1     -42.819  61.075 -59.547  1.00  0.00    -0.317 OA
HETATM   25  C   UNL     1     -41.529  61.479 -59.644  1.00  0.00     0.143 A 
HETATM   26  C   UNL     1     -40.928  61.472 -58.409  1.00  0.00     0.027 A 
HETATM   27  C   UNL     1     -41.919  61.036 -57.495  1.00  0.00     0.045 A 
ENDBRANCH  20  23
ENDBRANCH   2  19
BRANCH   1  28
HETATM   28  O   UNL     1     -44.650  57.281 -59.516  1.00  0.00    -0.354 OA
HETATM   29  C   UNL     1     -45.370  56.119 -59.936  1.00  0.00     0.210 C 
ENDBRANCH   1  28
TORSDOF 7
ENDMDL
MODEL 8
REMARK VINA RESULT:      -7.3      2.159      8.330
REMARK  7 active torsions:
REMARK  status: ('A' for Active; 'I' for Inactive)
REMARK    1  A    between atoms: O_2  and  C_3 
REMARK    2  A    between atoms: C_4  and  N_5 
REMARK       I    between atoms: N_5  and  C_6 
REMARK    3  A    between atoms: C_6  and  C_7 
REMARK    4  A    between atoms: C_14  and  N_15 
REMARK       I    between atoms: N_15  and  C_16 
REMARK    5  A    between atoms: C_16  and  C_17 
REMARK    6  A    between atoms: C_17  and  C_18 
REMARK    7  A    between atoms: C_18  and  C_19 
ROOT
HETATM    1  C   UNL     1     -41.470  56.684 -54.402  1.00  0.00     0.095 A 
HETATM    2  C   UNL     1     -41.335  55.350 -54.806  1.00  0.00     0.070 A 
HETATM    3  C   UNL     1     -42.088  54.906 -55.908  1.00  0.00     0.062 A 
HETATM    4  C   UNL     1     -42.911  55.777 -56.630  1.00  0.00     0.037 A 
HETATM    5  C   UNL     1     -42.970  57.121 -56.251  1.00  0.00     0.032 A 
HETATM    6  C   UNL     1     -42.247  57.574 -55.148  1.00  0.00     0.041 A 
ENDROOT
BRANCH   4   7
HETATM    7  N   UNL     1     -43.725  55.382 -57.712  1.00  0.00    -0.327 N 
HETATM    8  C   UNL     1     -43.418  55.417 -59.062  1.00  0.00     0.222 C 
HETATM    9  O   UNL     1     -42.396  55.872 -59.564  1.00  0.00    -0.273 OA
HETATM   10  H   UNL     1     -44.647  55.045 -57.463  1.00  0.00     0.169 HD
BRANCH   8  11
HETATM   11  C   UNL     1     -44.488  54.769 -59.923  1.00  0.00     0.108 C 
BRANCH  11  12
HETATM   12  C   UNL     1     -45.247  55.791 -60.775  1.00  0.00     0.047 C 
BRANCH  12  13
HETATM   13  C   UNL     1     -45.621  57.064 -60.048  1.00  0.00    -0.058 A 
HETATM   14  C   UNL     1     -46.717  57.068 -59.174  1.00  0.00     0.007 A 
HETATM   15  C   UNL     1     -47.115  58.246 -58.535  1.00  0.00     0.001 A 
HETATM   16  C   UNL     1     -46.428  59.434 -58.767  1.00  0.00     0.000 A 
HETATM   17  C   UNL     1     -45.346  59.449 -59.643  1.00  0.00     0.001 A 
HETATM   18  C   UNL     1     -44.952  58.274 -60.289  1.00  0.00     0.007 A 
ENDBRANCH  12  13
ENDBRANCH  11  12
ENDBRANCH   8  11
ENDBRANCH   4   7
BRANCH   2  19
HETATM   19  N   UNL     1     -40.579  54.362 -54.144  1.00  0.00    -0.319 N 
HETATM   20  C   UNL     1     -40.861  53.521 -53.088  1.00  0.00     0.280 C 
HETATM   21  O   UNL     1     -40.246  52.450 -53.068  1.00  0.00    -0.265 OA
HETATM   22  H   UNL     1     -39.701  54.108 -54.581  1.00  0.00     0.169 HD
BRANCH  20  23
HETATM   23  C   UNL     1     -41.722  53.944 -52.002  1.00  0.00     0.142 A 
HETATM   24  O   UNL     1     -41.120  54.445 -50.874  1.00  0.00    -0.317 OA
HETATM   25  C   UNL     1     -42.100  54.811 -50.013  1.00  0.00     0.143 A 
HETATM   26  C   UNL     1     -43.337  54.576 -50.562  1.00  0.00     0.027 A 
HETATM   27  C   UNL     1     -43.096  54.031 -51.848  1.00  0.00     0.045 A 
ENDBRANCH  20  23
ENDBRANCH   2  19
BRANCH   1  28
HETATM   28  O   UNL     1     -40.901  57.191 -53.266  1.00  0.00    -0.354 OA
HETATM   29  C   UNL     1     -41.901  57.734 -52.401  1.00  0.00     0.210 C 
ENDBRANCH   1  28
TORSDOF 7
ENDMDL
MODEL 9
REMARK VINA RESULT:      -7.3      3.361      6.038
REMARK  7 active torsions:
REMARK  status: ('A' for Active; 'I' for Inactive)
REMARK    1  A    between atoms: O_2  and  C_3 
REMARK    2  A    between atoms: C_4  and  N_5 
REMARK       I    between atoms: N_5  and  C_6 
REMARK    3  A    between atoms: C_6  and  C_7 
REMARK    4  A    between atoms: C_14  and  N_15 
REMARK       I    between atoms: N_15  and  C_16 
REMARK    5  A    between atoms: C_16  and  C_17 
REMARK    6  A    between atoms: C_17  and  C_18 
REMARK    7  A    between atoms: C_18  and  C_19 
ROOT
HETATM    1  C   UNL     1     -45.137  59.224 -53.569  1.00  0.00     0.095 A 
HETATM    2  C   UNL     1     -44.358  58.740 -52.511  1.00  0.00     0.070 A 
HETATM    3  C   UNL     1     -43.768  57.469 -52.642  1.00  0.00     0.062 A 
HETATM    4  C   UNL     1     -43.898  56.721 -53.817  1.00  0.00     0.037 A 
HETATM    5  C   UNL     1     -44.618  57.260 -54.886  1.00  0.00     0.032 A 
HETATM    6  C   UNL     1     -45.228  58.508 -54.766  1.00  0.00     0.041 A 
ENDROOT
BRANCH   4   7
HETATM    7  N   UNL     1     -43.371  55.424 -53.990  1.00  0.00    -0.327 N 
HETATM    8  C   UNL     1     -42.228  55.058 -54.681  1.00  0.00     0.222 C 
HETATM    9  O   UNL     1     -41.502  55.801 -55.334  1.00  0.00    -0.273 OA
HETATM   10  H   UNL     1     -43.906  54.676 -53.566  1.00  0.00     0.169 HD
BRANCH   8  11
HETATM   11  C   UNL     1     -41.894  53.585 -54.524  1.00  0.00     0.108 C 
BRANCH  11  12
HETATM   12  C   UNL     1     -40.395  53.346 -54.321  1.00  0.00     0.047 C 
BRANCH  12  13
HETATM   13  C   UNL     1     -40.051  52.032 -53.654  1.00  0.00    -0.058 A 
HETATM   14  C   UNL     1     -40.039  50.852 -54.409  1.00  0.00     0.007 A 
HETATM   15  C   UNL     1     -39.780  49.619 -53.802  1.00  0.00     0.001 A 
HETATM   16  C   UNL     1     -39.536  49.551 -52.433  1.00  0.00     0.000 A 
HETATM   17  C   UNL     1     -39.557  50.714 -51.667  1.00  0.00     0.001 A 
HETATM   18  C   UNL     1     -39.825  51.945 -52.271  1.00  0.00     0.007 A 
ENDBRANCH  12  13
ENDBRANCH  11  12
ENDBRANCH   8  11
ENDBRANCH   4   7
BRANCH   2  19
HETATM   19  N   UNL     1     -44.184  59.369 -51.262  1.00  0.00    -0.319 N 
HETATM   20  C   UNL     1     -43.143  60.089 -50.715  1.00  0.00     0.280 C 
HETATM   21  O   UNL     1     -43.453  60.930 -49.865  1.00  0.00    -0.265 OA
HETATM   22  H   UNL     1     -45.009  59.429 -50.677  1.00  0.00     0.169 HD
BRANCH  20  23
HETATM   23  C   UNL     1     -41.765  59.767 -51.025  1.00  0.00     0.142 A 
HETATM   24  O   UNL     1     -40.912  59.550 -49.971  1.00  0.00    -0.317 OA
HETATM   25  C   UNL     1     -39.699  59.229 -50.483  1.00  0.00     0.143 A 
HETATM   26  C   UNL     1     -39.744  59.215 -51.856  1.00  0.00     0.027 A 
HETATM   27  C   UNL     1     -41.076  59.546 -52.207  1.00  0.00     0.045 A 
ENDBRANCH  20  23
ENDBRANCH   2  19
BRANCH   1  28
HETATM   28  O   UNL     1     -45.871  60.375 -53.501  1.00  0.00    -0.354 OA
HETATM   29  C   UNL     1     -45.478  61.285 -54.532  1.00  0.00     0.210 C 
ENDBRANCH   1  28
TORSDOF 7
ENDMDL
MODEL 10
REMARK VINA RESULT:      -7.1      2.287      3.363
REMARK  7 active torsions:
REMARK  status: ('A' for Active; 'I' for Inactive)
REMARK    1  A    between atoms: O_2  and  C_3 
REMARK    2  A    between atoms: C_4  and  N_5 
REMARK       I    between atoms: N_5  and  C_6 
REMARK    3  A    between atoms: C_6  and  C_7 
REMARK    4  A    between atoms: C_14  and  N_15 
REMARK       I    between atoms: N_15  and  C_16 
REMARK    5  A    between atoms: C_16  and  C_17 
REMARK    6  A    between atoms: C_17  and  C_18 
REMARK    7  A    between atoms: C_18  and  C_19 
ROOT
HETATM    1  C   UNL     1     -45.032  59.269 -53.099  1.00  0.00     0.095 A 
HETATM    2  C   UNL     1     -44.963  58.466 -54.244  1.00  0.00     0.070 A 
HETATM    3  C   UNL     1     -43.959  57.482 -54.310  1.00  0.00     0.062 A 
HETATM    4  C   UNL     1     -43.083  57.258 -53.243  1.00  0.00     0.037 A 
HETATM    5  C   UNL     1     -43.222  58.023 -52.082  1.00  0.00     0.032 A 
HETATM    6  C   UNL     1     -44.197  59.018 -52.007  1.00  0.00     0.041 A 
ENDROOT
BRANCH   4   7
HETATM    7  N   UNL     1     -42.029  56.321 -53.268  1.00  0.00    -0.327 N 
HETATM    8  C   UNL     1     -42.121  54.944 -53.385  1.00  0.00     0.222 C 
HETATM    9  O   UNL     1     -43.153  54.283 -53.416  1.00  0.00    -0.273 OA
HETATM   10  H   UNL     1     -41.098  56.709 -53.176  1.00  0.00     0.169 HD
BRANCH   8  11
HETATM   11  C   UNL     1     -40.764  54.276 -53.527  1.00  0.00     0.108 C 
BRANCH  11  12
HETATM   12  C   UNL     1     -40.317  53.586 -52.234  1.00  0.00     0.047 C 
BRANCH  12  13
HETATM   13  C   UNL     1     -40.002  52.114 -52.383  1.00  0.00    -0.058 A 
HETATM   14  C   UNL     1     -40.018  51.525 -53.654  1.00  0.00     0.007 A 
HETATM   15  C   UNL     1     -39.786  50.155 -53.810  1.00  0.00     0.001 A 
HETATM   16  C   UNL     1     -39.541  49.357 -52.696  1.00  0.00     0.000 A 
HETATM   17  C   UNL     1     -39.534  49.925 -51.424  1.00  0.00     0.001 A 
HETATM   18  C   UNL     1     -39.774  51.293 -51.267  1.00  0.00     0.007 A 
ENDBRANCH  12  13
ENDBRANCH  11  12
ENDBRANCH   8  11
ENDBRANCH   4   7
BRANCH   2  19
HETATM   19  N   UNL     1     -45.751  58.615 -55.403  1.00  0.00    -0.319 N 
HETATM   20  C   UNL     1     -45.527  58.316 -56.730  1.00  0.00     0.280 C 
HETATM   21  O   UNL     1     -46.529  58.065 -57.406  1.00  0.00    -0.265 OA
HETATM   22  H   UNL     1     -46.719  58.871 -55.250  1.00  0.00     0.169 HD
BRANCH  20  23
HETATM   23  C   UNL     1     -44.205  58.434 -57.312  1.00  0.00     0.142 A 
HETATM   24  O   UNL     1     -43.652  57.306 -57.865  1.00  0.00    -0.317 OA
HETATM   25  C   UNL     1     -42.446  57.648 -58.380  1.00  0.00     0.143 A 
HETATM   26  C   UNL     1     -42.204  58.986 -58.190  1.00  0.00     0.027 A 
HETATM   27  C   UNL     1     -43.340  59.498 -57.516  1.00  0.00     0.045 A 
ENDBRANCH  20  23
ENDBRANCH   2  19
BRANCH   1  28
HETATM   28  O   UNL     1     -45.868  60.345 -52.980  1.00  0.00    -0.354 OA
HETATM   29  C   UNL     1     -46.521  60.338 -51.708  1.00  0.00     0.210 C 
ENDBRANCH   1  28
TORSDOF 7
ENDMDL
