MODEL 1
REMARK VINA RESULT:      -8.1      0.000      0.000
REMARK  8 active torsions:
REMARK  status: ('A' for Active; 'I' for Inactive)
REMARK    1  A    between atoms: N_2  and  C_5 
REMARK    2  A    between atoms: C_5  and  C_6 
REMARK    3  A    between atoms: C_6  and  S_7 
REMARK    4  A    between atoms: S_7  and  C_8 
REMARK    5  A    between atoms: C_10  and  C_25 
REMARK    6  A    between atoms: C_13  and  N_14 
REMARK       I    between atoms: N_14  and  C_15 
REMARK       I    between atoms: C_15  and  N_17 
REMARK    7  A    between atoms: N_17  and  C_18 
REMARK    8  A    between atoms: C_18  and  C_19 
ROOT
HETATM    1  C   UNL     1     -41.834  56.433 -54.903  1.00  0.00     0.028 A 
HETATM    2  C   UNL     1     -42.276  56.787 -56.185  1.00  0.00     0.033 A 
HETATM    3  C   UNL     1     -42.969  55.869 -56.984  1.00  0.00    -0.022 A 
HETATM    4  C   UNL     1     -43.218  54.590 -56.472  1.00  0.00     0.014 A 
HETATM    5  C   UNL     1     -42.764  54.224 -55.199  1.00  0.00     0.032 A 
HETATM    6  C   UNL     1     -42.052  55.133 -54.415  1.00  0.00     0.053 A 
ENDROOT
BRANCH   6   7
HETATM    7  N   UNL     1     -41.501  54.772 -53.165  1.00  0.00    -0.308 N 
HETATM    8  C   UNL     1     -42.188  54.238 -52.113  1.00  0.00     0.321 C 
HETATM    9  O   UNL     1     -43.407  54.296 -51.986  1.00  0.00    -0.247 OA
HETATM   10  N   UNL     1     -41.437  53.699 -51.118  1.00  0.00    -0.339 N 
HETATM   11  H   UNL     1     -42.004  53.204 -50.438  1.00  0.00     0.164 HD
HETATM   12  H   UNL     1     -40.535  55.032 -53.018  1.00  0.00     0.170 HD
BRANCH  10  13
HETATM   13  C   UNL     1     -40.037  53.325 -51.178  1.00  0.00     0.162 C 
BRANCH  13  14
HETATM   14  C   UNL     1     -39.853  51.954 -51.768  1.00  0.00    -0.040 A 
HETATM   15  C   UNL     1     -39.811  50.826 -50.935  1.00  0.00     0.009 A 
HETATM   16  C   UNL     1     -39.646  49.551 -51.477  1.00  0.00     0.001 A 
HETATM   17  C   UNL     1     -39.522  49.387 -52.855  1.00  0.00     0.000 A 
HETATM   18  C   UNL     1     -39.567  50.498 -53.694  1.00  0.00     0.001 A 
HETATM   19  C   UNL     1     -39.737  51.774 -53.155  1.00  0.00     0.009 A 
ENDBRANCH  13  14
ENDBRANCH  10  13
ENDBRANCH   6   7
BRANCH   1  20
HETATM   20  S   UNL     1     -41.145  57.695 -53.823  1.00  0.00    -0.126 SA
BRANCH  20  21
HETATM   21  C   UNL     1     -42.702  58.415 -53.159  1.00  0.00     0.107 C 
BRANCH  21  22
HETATM   22  C   UNL     1     -43.172  57.796 -51.831  1.00  0.00     0.244 C 
BRANCH  22  23
HETATM   23  N   UNL     1     -42.354  58.271 -50.646  1.00  0.00    -0.078 N 
HETATM   24  C   UNL     1     -41.181  57.388 -50.329  1.00  0.00     0.269 C 
HETATM   25  H   UNL     1     -42.988  58.253 -49.834  1.00  0.00     0.279 HD
HETATM   26  C   UNL     1     -41.935  59.713 -50.790  1.00  0.00     0.269 C 
ENDBRANCH  22  23
ENDBRANCH  21  22
ENDBRANCH  20  21
ENDBRANCH   1  20
BRANCH   3  27
HETATM   27  C   UNL     1     -43.421  56.256 -58.312  1.00  0.00     0.010 A 
HETATM   28  C   UNL     1     -43.025  55.798 -59.593  1.00  0.00     0.152 A 
HETATM   29  N   UNL     1     -43.656  56.427 -60.586  1.00  0.00    -0.187 NA
HETATM   30  N   UNL     1     -44.486  57.269 -59.951  1.00  0.00    -0.289 N 
HETATM   31  H   UNL     1     -45.097  57.856 -60.511  1.00  0.00     0.188 HD
HETATM   32  C   UNL     1     -44.370  57.217 -58.590  1.00  0.00     0.123 A 
ENDBRANCH   3  27
TORSDOF 8
ENDMDL
MODEL 2
REMARK VINA RESULT:      -8.0      0.811      1.271
REMARK  8 active torsions:
REMARK  status: ('A' for Active; 'I' for Inactive)
REMARK    1  A    between atoms: N_2  and  C_5 
REMARK    2  A    between atoms: C_5  and  C_6 
REMARK    3  A    between atoms: C_6  and  S_7 
REMARK    4  A    between atoms: S_7  and  C_8 
REMARK    5  A    between atoms: C_10  and  C_25 
REMARK    6  A    between atoms: C_13  and  N_14 
REMARK       I    between atoms: N_14  and  C_15 
REMARK       I    between atoms: C_15  and  N_17 
REMARK    7  A    between atoms: N_17  and  C_18 
REMARK    8  A    between atoms: C_18  and  C_19 
ROOT
HETATM    1  C   UNL     1     -41.642  56.492 -54.843  1.00  0.00     0.028 A 
HETATM    2  C   UNL     1     -42.088  56.842 -56.124  1.00  0.00     0.033 A 
HETATM    3  C   UNL     1     -42.843  55.944 -56.891  1.00  0.00    -0.022 A 
HETATM    4  C   UNL     1     -43.148  54.690 -56.347  1.00  0.00     0.014 A 
HETATM    5  C   UNL     1     -42.690  54.328 -55.074  1.00  0.00     0.032 A 
HETATM    6  C   UNL     1     -41.917  55.215 -54.322  1.00  0.00     0.053 A 
ENDROOT
BRANCH   6   7
HETATM    7  N   UNL     1     -41.362  54.852 -53.075  1.00  0.00    -0.308 N 
HETATM    8  C   UNL     1     -42.055  54.369 -52.002  1.00  0.00     0.321 C 
HETATM    9  O   UNL     1     -43.268  54.485 -51.857  1.00  0.00    -0.247 OA
HETATM   10  N   UNL     1     -41.313  53.815 -51.009  1.00  0.00    -0.339 N 
HETATM   11  H   UNL     1     -41.890  53.359 -50.311  1.00  0.00     0.164 HD
HETATM   12  H   UNL     1     -40.384  55.071 -52.948  1.00  0.00     0.170 HD
BRANCH  10  13
HETATM   13  C   UNL     1     -39.933  53.377 -51.084  1.00  0.00     0.162 C 
BRANCH  13  14
HETATM   14  C   UNL     1     -39.820  51.991 -51.657  1.00  0.00    -0.040 A 
HETATM   15  C   UNL     1     -39.821  50.873 -50.809  1.00  0.00     0.009 A 
HETATM   16  C   UNL     1     -39.723  49.585 -51.335  1.00  0.00     0.001 A 
HETATM   17  C   UNL     1     -39.623  49.397 -52.712  1.00  0.00     0.000 A 
HETATM   18  C   UNL     1     -39.626  50.497 -53.566  1.00  0.00     0.001 A 
HETATM   19  C   UNL     1     -39.729  51.787 -53.043  1.00  0.00     0.009 A 
ENDBRANCH  13  14
ENDBRANCH  10  13
ENDBRANCH   6   7
BRANCH   1  20
HETATM   20  S   UNL     1     -40.869  57.739 -53.802  1.00  0.00    -0.126 SA
BRANCH  20  21
HETATM   21  C   UNL     1     -42.365  58.671 -53.278  1.00  0.00     0.107 C 
BRANCH  21  22
HETATM   22  C   UNL     1     -42.950  58.226 -51.926  1.00  0.00     0.244 C 
BRANCH  22  23
HETATM   23  N   UNL     1     -44.221  57.413 -52.081  1.00  0.00    -0.078 N 
HETATM   24  C   UNL     1     -45.279  57.748 -51.070  1.00  0.00     0.269 C 
HETATM   25  H   UNL     1     -43.951  56.428 -51.939  1.00  0.00     0.279 HD
HETATM   26  C   UNL     1     -44.764  57.476 -53.487  1.00  0.00     0.269 C 
ENDBRANCH  22  23
ENDBRANCH  21  22
ENDBRANCH  20  21
ENDBRANCH   1  20
BRANCH   3  27
HETATM   27  C   UNL     1     -43.299  56.326 -58.219  1.00  0.00     0.010 A 
HETATM   28  C   UNL     1     -42.945  55.827 -59.496  1.00  0.00     0.152 A 
HETATM   29  N   UNL     1     -43.563  56.465 -60.491  1.00  0.00    -0.187 NA
HETATM   30  N   UNL     1     -44.344  57.355 -59.861  1.00  0.00    -0.289 N 
HETATM   31  H   UNL     1     -44.937  57.958 -60.422  1.00  0.00     0.188 HD
HETATM   32  C   UNL     1     -44.209  57.323 -58.501  1.00  0.00     0.123 A 
ENDBRANCH   3  27
TORSDOF 8
ENDMDL
MODEL 3
REMARK VINA RESULT:      -7.9      2.407      7.022
REMARK  8 active torsions:
REMARK  status: ('A' for Active; 'I' for Inactive)
REMARK    1  A    between atoms: N_2  and  C_5 
REMARK    2  A    between atoms: C_5  and  C_6 
REMARK    3  A    between atoms: C_6  and  S_7 
REMARK    4  A    between atoms: S_7  and  C_8 
REMARK    5  A    between atoms: C_10  and  C_25 
REMARK    6  A    between atoms: C_13  and  N_14 
REMARK       I    between atoms: N_14  and  C_15 
REMARK       I    between atoms: C_15  and  N_17 
REMARK    7  A    between atoms: N_17  and  C_18 
REMARK    8  A    between atoms: C_18  and  C_19 
ROOT
HETATM    1  C   UNL     1     -41.827  54.497 -52.883  1.00  0.00     0.028 A 
HETATM    2  C   UNL     1     -41.302  53.247 -52.530  1.00  0.00     0.033 A 
HETATM    3  C   UNL     1     -40.526  52.512 -53.437  1.00  0.00    -0.022 A 
HETATM    4  C   UNL     1     -40.281  53.057 -54.703  1.00  0.00     0.014 A 
HETATM    5  C   UNL     1     -40.817  54.298 -55.069  1.00  0.00     0.032 A 
HETATM    6  C   UNL     1     -41.611  55.016 -54.172  1.00  0.00     0.053 A 
ENDROOT
BRANCH   6   7
HETATM    7  N   UNL     1     -42.243  56.226 -54.536  1.00  0.00    -0.308 N 
HETATM    8  C   UNL     1     -41.650  57.455 -54.579  1.00  0.00     0.321 C 
HETATM    9  O   UNL     1     -40.600  57.733 -54.009  1.00  0.00    -0.247 OA
HETATM   10  N   UNL     1     -42.341  58.431 -55.222  1.00  0.00    -0.339 N 
HETATM   11  H   UNL     1     -41.791  59.277 -55.334  1.00  0.00     0.164 HD
HETATM   12  H   UNL     1     -43.242  56.176 -54.674  1.00  0.00     0.170 HD
BRANCH  10  13
HETATM   13  C   UNL     1     -43.451  58.263 -56.140  1.00  0.00     0.162 C 
BRANCH  13  14
HETATM   14  C   UNL     1     -42.992  57.762 -57.481  1.00  0.00    -0.040 A 
HETATM   15  C   UNL     1     -43.354  56.479 -57.918  1.00  0.00     0.009 A 
HETATM   16  C   UNL     1     -42.936  56.011 -59.164  1.00  0.00     0.001 A 
HETATM   17  C   UNL     1     -42.155  56.818 -59.989  1.00  0.00     0.000 A 
HETATM   18  C   UNL     1     -41.792  58.096 -59.570  1.00  0.00     0.001 A 
HETATM   19  C   UNL     1     -42.213  58.569 -58.325  1.00  0.00     0.009 A 
ENDBRANCH  13  14
ENDBRANCH  10  13
ENDBRANCH   6   7
BRANCH   1  20
HETATM   20  S   UNL     1     -42.629  55.508 -51.631  1.00  0.00    -0.126 SA
BRANCH  20  21
HETATM   21  C   UNL     1     -41.144  56.257 -50.845  1.00  0.00     0.107 C 
BRANCH  21  22
HETATM   22  C   UNL     1     -41.358  57.687 -50.318  1.00  0.00     0.244 C 
BRANCH  22  23
HETATM   23  N   UNL     1     -40.853  58.744 -51.282  1.00  0.00    -0.078 N 
HETATM   24  C   UNL     1     -41.810  59.882 -51.484  1.00  0.00     0.269 C 
HETATM   25  H   UNL     1     -40.731  58.270 -52.189  1.00  0.00     0.279 HD
HETATM   26  C   UNL     1     -39.478  59.240 -50.907  1.00  0.00     0.269 C 
ENDBRANCH  22  23
ENDBRANCH  21  22
ENDBRANCH  20  21
ENDBRANCH   1  20
BRANCH   3  27
HETATM   27  C   UNL     1     -39.989  51.217 -53.051  1.00  0.00     0.010 A 
HETATM   28  C   UNL     1     -39.777  50.040 -53.811  1.00  0.00     0.152 A 
HETATM   29  N   UNL     1     -39.288  49.034 -53.084  1.00  0.00    -0.187 NA
HETATM   30  N   UNL     1     -39.150  49.565 -51.860  1.00  0.00    -0.289 N 
HETATM   31  H   UNL     1     -38.769  48.982 -51.122  1.00  0.00     0.188 HD
HETATM   32  C   UNL     1     -39.571  50.864 -51.785  1.00  0.00     0.123 A 
ENDBRANCH   3  27
TORSDOF 8
ENDMDL
MODEL 4
REMARK VINA RESULT:      -7.8      2.591      7.208
REMARK  8 active torsions:
REMARK  status: ('A' for Active; 'I' for Inactive)
REMARK    1  A    between atoms: N_2  and  C_5 
REMARK    2  A    between atoms: C_5  and  C_6 
REMARK    3  A    between atoms: C_6  and  S_7 
REMARK    4  A    between atoms: S_7  and  C_8 
REMARK    5  A    between atoms: C_10  and  C_25 
REMARK    6  A    between atoms: C_13  and  N_14 
REMARK       I    between atoms: N_14  and  C_15 
REMARK       I    between atoms: C_15  and  N_17 
REMARK    7  A    between atoms: N_17  and  C_18 
REMARK    8  A    between atoms: C_18  and  C_19 
ROOT
HETATM    1  C   UNL     1     -42.151  54.393 -53.176  1.00  0.00     0.028 A 
HETATM    2  C   UNL     1     -41.595  53.144 -52.866  1.00  0.00     0.033 A 
HETATM    3  C   UNL     1     -40.626  52.564 -53.696  1.00  0.00    -0.022 A 
HETATM    4  C   UNL     1     -40.219  53.262 -54.840  1.00  0.00     0.014 A 
HETATM    5  C   UNL     1     -40.783  54.502 -55.164  1.00  0.00     0.032 A 
HETATM    6  C   UNL     1     -41.766  55.066 -54.349  1.00  0.00     0.053 A 
ENDROOT
BRANCH   6   7
HETATM    7  N   UNL     1     -42.422  56.270 -54.691  1.00  0.00    -0.308 N 
HETATM    8  C   UNL     1     -41.871  57.518 -54.655  1.00  0.00     0.321 C 
HETATM    9  O   UNL     1     -40.858  57.805 -54.025  1.00  0.00    -0.247 OA
HETATM   10  N   UNL     1     -42.565  58.498 -55.288  1.00  0.00    -0.339 N 
HETATM   11  H   UNL     1     -42.040  59.365 -55.339  1.00  0.00     0.164 HD
HETATM   12  H   UNL     1     -43.412  56.193 -54.879  1.00  0.00     0.170 HD
BRANCH  10  13
HETATM   13  C   UNL     1     -43.625  58.334 -56.264  1.00  0.00     0.162 C 
BRANCH  13  14
HETATM   14  C   UNL     1     -43.093  57.860 -57.588  1.00  0.00    -0.040 A 
HETATM   15  C   UNL     1     -42.275  58.695 -58.362  1.00  0.00     0.009 A 
HETATM   16  C   UNL     1     -41.774  58.257 -59.589  1.00  0.00     0.001 A 
HETATM   17  C   UNL     1     -42.083  56.982 -60.056  1.00  0.00     0.000 A 
HETATM   18  C   UNL     1     -42.890  56.139 -59.295  1.00  0.00     0.001 A 
HETATM   19  C   UNL     1     -43.389  56.573 -58.065  1.00  0.00     0.009 A 
ENDBRANCH  13  14
ENDBRANCH  10  13
ENDBRANCH   6   7
BRANCH   1  20
HETATM   20  S   UNL     1     -43.224  55.206 -51.984  1.00  0.00    -0.126 SA
BRANCH  20  21
HETATM   21  C   UNL     1     -41.967  55.726 -50.745  1.00  0.00     0.107 C 
BRANCH  21  22
HETATM   22  C   UNL     1     -41.880  54.813 -49.509  1.00  0.00     0.244 C 
BRANCH  22  23
HETATM   23  N   UNL     1     -40.457  54.644 -49.009  1.00  0.00    -0.078 N 
HETATM   24  C   UNL     1     -40.350  53.813 -47.763  1.00  0.00     0.269 C 
HETATM   25  H   UNL     1     -40.117  55.590 -48.786  1.00  0.00     0.279 HD
HETATM   26  C   UNL     1     -39.536  54.136 -50.091  1.00  0.00     0.269 C 
ENDBRANCH  22  23
ENDBRANCH  21  22
ENDBRANCH  20  21
ENDBRANCH   1  20
BRANCH   3  27
HETATM   27  C   UNL     1     -40.060  51.267 -53.357  1.00  0.00     0.010 A 
HETATM   28  C   UNL     1     -39.799  50.133 -54.164  1.00  0.00     0.152 A 
HETATM   29  N   UNL     1     -39.297  49.109 -53.472  1.00  0.00    -0.187 NA
HETATM   30  N   UNL     1     -39.201  49.587 -52.222  1.00  0.00    -0.289 N 
HETATM   31  H   UNL     1     -38.820  48.981 -51.503  1.00  0.00     0.188 HD
HETATM   32  C   UNL     1     -39.661  50.869 -52.098  1.00  0.00     0.123 A 
ENDBRANCH   3  27
TORSDOF 8
ENDMDL
MODEL 5
REMARK VINA RESULT:      -7.5      2.395      5.599
REMARK  8 active torsions:
REMARK  status: ('A' for Active; 'I' for Inactive)
REMARK    1  A    between atoms: N_2  and  C_5 
REMARK    2  A    between atoms: C_5  and  C_6 
REMARK    3  A    between atoms: C_6  and  S_7 
REMARK    4  A    between atoms: S_7  and  C_8 
REMARK    5  A    between atoms: C_10  and  C_25 
REMARK    6  A    between atoms: C_13  and  N_14 
REMARK       I    between atoms: N_14  and  C_15 
REMARK       I    between atoms: C_15  and  N_17 
REMARK    7  A    between atoms: N_17  and  C_18 
REMARK    8  A    between atoms: C_18  and  C_19 
ROOT
HETATM    1  C   UNL     1     -42.841  57.798 -52.728  1.00  0.00     0.028 A 
HETATM    2  C   UNL     1     -43.539  58.957 -52.367  1.00  0.00     0.033 A 
HETATM    3  C   UNL     1     -44.603  58.900 -51.455  1.00  0.00    -0.022 A 
HETATM    4  C   UNL     1     -44.949  57.659 -50.908  1.00  0.00     0.014 A 
HETATM    5  C   UNL     1     -44.267  56.493 -51.278  1.00  0.00     0.032 A 
HETATM    6  C   UNL     1     -43.225  56.550 -52.205  1.00  0.00     0.053 A 
ENDROOT
BRANCH   6   7
HETATM    7  N   UNL     1     -42.573  55.385 -52.670  1.00  0.00    -0.308 N 
HETATM    8  C   UNL     1     -42.894  54.688 -53.799  1.00  0.00     0.321 C 
HETATM    9  O   UNL     1     -43.970  54.778 -54.382  1.00  0.00    -0.247 OA
HETATM   10  N   UNL     1     -41.979  53.778 -54.222  1.00  0.00    -0.339 N 
HETATM   11  H   UNL     1     -42.214  53.395 -55.131  1.00  0.00     0.164 HD
HETATM   12  H   UNL     1     -41.880  54.991 -52.049  1.00  0.00     0.170 HD
BRANCH  10  13
HETATM   13  C   UNL     1     -40.586  53.687 -53.830  1.00  0.00     0.162 C 
BRANCH  13  14
HETATM   14  C   UNL     1     -40.215  52.291 -53.413  1.00  0.00    -0.040 A 
HETATM   15  C   UNL     1     -39.820  52.029 -52.093  1.00  0.00     0.009 A 
HETATM   16  C   UNL     1     -39.481  50.734 -51.699  1.00  0.00     0.001 A 
HETATM   17  C   UNL     1     -39.534  49.687 -52.616  1.00  0.00     0.000 A 
HETATM   18  C   UNL     1     -39.929  49.931 -53.929  1.00  0.00     0.001 A 
HETATM   19  C   UNL     1     -40.274  51.225 -54.325  1.00  0.00     0.009 A 
ENDBRANCH  13  14
ENDBRANCH  10  13
ENDBRANCH   6   7
BRANCH   1  20
HETATM   20  S   UNL     1     -41.350  57.934 -53.724  1.00  0.00    -0.126 SA
BRANCH  20  21
HETATM   21  C   UNL     1     -42.062  58.697 -55.239  1.00  0.00     0.107 C 
BRANCH  21  22
HETATM   22  C   UNL     1     -43.003  57.773 -56.032  1.00  0.00     0.244 C 
BRANCH  22  23
HETATM   23  N   UNL     1     -42.301  57.075 -57.181  1.00  0.00    -0.078 N 
HETATM   24  C   UNL     1     -42.954  55.787 -57.594  1.00  0.00     0.269 C 
HETATM   25  H   UNL     1     -41.352  56.852 -56.845  1.00  0.00     0.279 HD
HETATM   26  C   UNL     1     -42.098  57.993 -58.360  1.00  0.00     0.269 C 
ENDBRANCH  22  23
ENDBRANCH  21  22
ENDBRANCH  20  21
ENDBRANCH   1  20
BRANCH   3  27
HETATM   27  C   UNL     1     -45.315  60.116 -51.092  1.00  0.00     0.010 A 
HETATM   28  C   UNL     1     -46.036  61.038 -51.889  1.00  0.00     0.152 A 
HETATM   29  N   UNL     1     -46.528  62.059 -51.185  1.00  0.00    -0.187 NA
HETATM   30  N   UNL     1     -46.155  61.784 -49.926  1.00  0.00    -0.289 N 
HETATM   31  H   UNL     1     -46.435  62.425 -49.190  1.00  0.00     0.188 HD
HETATM   32  C   UNL     1     -45.412  60.641 -49.820  1.00  0.00     0.123 A 
ENDBRANCH   3  27
TORSDOF 8
ENDMDL
MODEL 6
REMARK VINA RESULT:      -7.4      1.767      2.416
REMARK  8 active torsions:
REMARK  status: ('A' for Active; 'I' for Inactive)
REMARK    1  A    between atoms: N_2  and  C_5 
REMARK    2  A    between atoms: C_5  and  C_6 
REMARK    3  A    between atoms: C_6  and  S_7 
REMARK    4  A    between atoms: S_7  and  C_8 
REMARK    5  A    between atoms: C_10  and  C_25 
REMARK    6  A    between atoms: C_13  and  N_14 
REMARK       I    between atoms: N_14  and  C_15 
REMARK       I    between atoms: C_15  and  N_17 
REMARK    7  A    between atoms: N_17  and  C_18 
REMARK    8  A    between atoms: C_18  and  C_19 
ROOT
HETATM    1  C   UNL     1     -42.523  57.736 -56.214  1.00  0.00     0.028 A 
HETATM    2  C   UNL     1     -42.902  58.467 -57.348  1.00  0.00     0.033 A 
HETATM    3  C   UNL     1     -43.290  57.814 -58.526  1.00  0.00    -0.022 A 
HETATM    4  C   UNL     1     -43.298  56.413 -58.543  1.00  0.00     0.014 A 
HETATM    5  C   UNL     1     -42.904  55.677 -57.419  1.00  0.00     0.032 A 
HETATM    6  C   UNL     1     -42.494  56.331 -56.256  1.00  0.00     0.053 A 
ENDROOT
BRANCH   6   7
HETATM    7  N   UNL     1     -42.004  55.624 -55.134  1.00  0.00    -0.308 N 
HETATM    8  C   UNL     1     -42.708  54.725 -54.386  1.00  0.00     0.321 C 
HETATM    9  O   UNL     1     -43.933  54.645 -54.379  1.00  0.00    -0.247 OA
HETATM   10  N   UNL     1     -41.982  53.951 -53.540  1.00  0.00    -0.339 N 
HETATM   11  H   UNL     1     -42.543  53.218 -53.117  1.00  0.00     0.164 HD
HETATM   12  H   UNL     1     -41.086  55.896 -54.810  1.00  0.00     0.170 HD
BRANCH  10  13
HETATM   13  C   UNL     1     -40.550  53.725 -53.566  1.00  0.00     0.162 C 
BRANCH  13  14
HETATM   14  C   UNL     1     -40.208  52.286 -53.295  1.00  0.00    -0.040 A 
HETATM   15  C   UNL     1     -39.797  51.885 -52.016  1.00  0.00     0.009 A 
HETATM   16  C   UNL     1     -39.485  50.551 -51.757  1.00  0.00     0.001 A 
HETATM   17  C   UNL     1     -39.581  49.600 -52.771  1.00  0.00     0.000 A 
HETATM   18  C   UNL     1     -39.993  49.982 -54.046  1.00  0.00     0.001 A 
HETATM   19  C   UNL     1     -40.311  51.317 -54.306  1.00  0.00     0.009 A 
ENDBRANCH  13  14
ENDBRANCH  10  13
ENDBRANCH   6   7
BRANCH   1  20
HETATM   20  S   UNL     1     -42.243  58.595 -54.658  1.00  0.00    -0.126 SA
BRANCH  20  21
HETATM   21  C   UNL     1     -43.985  58.954 -54.189  1.00  0.00     0.107 C 
BRANCH  21  22
HETATM   22  C   UNL     1     -44.630  57.891 -53.282  1.00  0.00     0.244 C 
BRANCH  22  23
HETATM   23  N   UNL     1     -44.189  58.015 -51.836  1.00  0.00    -0.078 N 
HETATM   24  C   UNL     1     -45.258  58.540 -50.922  1.00  0.00     0.269 C 
HETATM   25  H   UNL     1     -43.411  58.690 -51.830  1.00  0.00     0.279 HD
HETATM   26  C   UNL     1     -43.600  56.728 -51.314  1.00  0.00     0.269 C 
ENDBRANCH  22  23
ENDBRANCH  21  22
ENDBRANCH  20  21
ENDBRANCH   1  20
BRANCH   3  27
HETATM   27  C   UNL     1     -43.681  58.590 -59.692  1.00  0.00     0.010 A 
HETATM   28  C   UNL     1     -42.900  59.327 -60.616  1.00  0.00     0.152 A 
HETATM   29  N   UNL     1     -43.637  59.938 -61.545  1.00  0.00    -0.187 NA
HETATM   30  N   UNL     1     -44.892  59.572 -61.247  1.00  0.00    -0.289 N 
HETATM   31  H   UNL     1     -45.645  59.906 -61.840  1.00  0.00     0.188 HD
HETATM   32  C   UNL     1     -44.973  58.779 -60.136  1.00  0.00     0.123 A 
ENDBRANCH   3  27
TORSDOF 8
ENDMDL
MODEL 7
REMARK VINA RESULT:      -7.4      2.343      7.701
REMARK  8 active torsions:
REMARK  status: ('A' for Active; 'I' for Inactive)
REMARK    1  A    between atoms: N_2  and  C_5 
REMARK    2  A    between atoms: C_5  and  C_6 
REMARK    3  A    between atoms: C_6  and  S_7 
REMARK    4  A    between atoms: S_7  and  C_8 
REMARK    5  A    between atoms: C_10  and  C_25 
REMARK    6  A    between atoms: C_13  and  N_14 
REMARK       I    between atoms: N_14  and  C_15 
REMARK       I    between atoms: C_15  and  N_17 
REMARK    7  A    between atoms: N_17  and  C_18 
REMARK    8  A    between atoms: C_18  and  C_19 
ROOT
HETATM    1  C   UNL     1     -41.950  54.452 -53.457  1.00  0.00     0.028 A 
HETATM    2  C   UNL     1     -41.448  53.166 -53.699  1.00  0.00     0.033 A 
HETATM    3  C   UNL     1     -40.548  52.567 -52.807  1.00  0.00    -0.022 A 
HETATM    4  C   UNL     1     -40.165  53.280 -51.664  1.00  0.00     0.014 A 
HETATM    5  C   UNL     1     -40.649  54.572 -51.425  1.00  0.00     0.032 A 
HETATM    6  C   UNL     1     -41.525  55.175 -52.329  1.00  0.00     0.053 A 
ENDROOT
BRANCH   6   7
HETATM    7  N   UNL     1     -41.963  56.510 -52.169  1.00  0.00    -0.308 N 
HETATM    8  C   UNL     1     -42.867  56.948 -51.245  1.00  0.00     0.321 C 
HETATM    9  O   UNL     1     -43.655  56.218 -50.652  1.00  0.00    -0.247 OA
HETATM   10  N   UNL     1     -42.936  58.293 -51.066  1.00  0.00    -0.339 N 
HETATM   11  H   UNL     1     -43.524  58.542 -50.278  1.00  0.00     0.164 HD
HETATM   12  H   UNL     1     -41.648  57.163 -52.872  1.00  0.00     0.170 HD
BRANCH  10  13
HETATM   13  C   UNL     1     -41.962  59.285 -51.476  1.00  0.00     0.162 C 
BRANCH  13  14
HETATM   14  C   UNL     1     -42.361  59.961 -52.758  1.00  0.00    -0.040 A 
HETATM   15  C   UNL     1     -41.734  59.617 -53.965  1.00  0.00     0.009 A 
HETATM   16  C   UNL     1     -42.105  60.237 -55.158  1.00  0.00     0.001 A 
HETATM   17  C   UNL     1     -43.107  61.205 -55.161  1.00  0.00     0.000 A 
HETATM   18  C   UNL     1     -43.743  61.553 -53.972  1.00  0.00     0.001 A 
HETATM   19  C   UNL     1     -43.376  60.930 -52.777  1.00  0.00     0.009 A 
ENDBRANCH  13  14
ENDBRANCH  10  13
ENDBRANCH   6   7
BRANCH   1  20
HETATM   20  S   UNL     1     -43.264  55.101 -54.499  1.00  0.00    -0.126 SA
BRANCH  20  21
HETATM   21  C   UNL     1     -42.383  55.143 -56.113  1.00  0.00     0.107 C 
BRANCH  21  22
HETATM   22  C   UNL     1     -43.168  55.825 -57.248  1.00  0.00     0.244 C 
BRANCH  22  23
HETATM   23  N   UNL     1     -42.259  56.443 -58.294  1.00  0.00    -0.078 N 
HETATM   24  C   UNL     1     -42.603  56.045 -59.701  1.00  0.00     0.269 C 
HETATM   25  H   UNL     1     -41.311  56.094 -58.092  1.00  0.00     0.279 HD
HETATM   26  C   UNL     1     -42.170  57.942 -58.151  1.00  0.00     0.269 C 
ENDBRANCH  22  23
ENDBRANCH  21  22
ENDBRANCH  20  21
ENDBRANCH   1  20
BRANCH   3  27
HETATM   27  C   UNL     1     -40.040  51.231 -53.075  1.00  0.00     0.010 A 
HETATM   28  C   UNL     1     -39.862  50.537 -54.297  1.00  0.00     0.152 A 
HETATM   29  N   UNL     1     -39.394  49.300 -54.128  1.00  0.00    -0.187 NA
HETATM   30  N   UNL     1     -39.235  49.200 -52.799  1.00  0.00    -0.289 N 
HETATM   31  H   UNL     1     -38.864  48.333 -52.423  1.00  0.00     0.188 HD
HETATM   32  C   UNL     1     -39.624  50.323 -52.124  1.00  0.00     0.123 A 
ENDBRANCH   3  27
TORSDOF 8
ENDMDL
MODEL 8
REMARK VINA RESULT:      -7.4      2.392      6.250
REMARK  8 active torsions:
REMARK  status: ('A' for Active; 'I' for Inactive)
REMARK    1  A    between atoms: N_2  and  C_5 
REMARK    2  A    between atoms: C_5  and  C_6 
REMARK    3  A    between atoms: C_6  and  S_7 
REMARK    4  A    between atoms: S_7  and  C_8 
REMARK    5  A    between atoms: C_10  and  C_25 
REMARK    6  A    between atoms: C_13  and  N_14 
REMARK       I    between atoms: N_14  and  C_15 
REMARK       I    between atoms: C_15  and  N_17 
REMARK    7  A    between atoms: N_17  and  C_18 
REMARK    8  A    between atoms: C_18  and  C_19 
ROOT
HETATM    1  C   UNL     1     -42.840  58.050 -51.579  1.00  0.00     0.028 A 
HETATM    2  C   UNL     1     -43.438  59.264 -51.217  1.00  0.00     0.033 A 
HETATM    3  C   UNL     1     -42.712  60.245 -50.527  1.00  0.00    -0.022 A 
HETATM    4  C   UNL     1     -41.372  59.987 -50.210  1.00  0.00     0.014 A 
HETATM    5  C   UNL     1     -40.774  58.768 -50.553  1.00  0.00     0.032 A 
HETATM    6  C   UNL     1     -41.507  57.784 -51.218  1.00  0.00     0.053 A 
ENDROOT
BRANCH   6   7
HETATM    7  N   UNL     1     -40.965  56.510 -51.500  1.00  0.00    -0.308 N 
HETATM    8  C   UNL     1     -40.989  55.429 -50.665  1.00  0.00     0.321 C 
HETATM    9  O   UNL     1     -41.188  55.498 -49.456  1.00  0.00    -0.247 OA
HETATM   10  N   UNL     1     -40.677  54.233 -51.226  1.00  0.00    -0.339 N 
HETATM   11  H   UNL     1     -40.844  53.459 -50.590  1.00  0.00     0.164 HD
HETATM   12  H   UNL     1     -40.429  56.438 -52.353  1.00  0.00     0.170 HD
BRANCH  10  13
HETATM   13  C   UNL     1     -40.647  53.905 -52.638  1.00  0.00     0.162 C 
BRANCH  13  14
HETATM   14  C   UNL     1     -40.285  52.463 -52.867  1.00  0.00    -0.040 A 
HETATM   15  C   UNL     1     -39.820  51.674 -51.806  1.00  0.00     0.009 A 
HETATM   16  C   UNL     1     -39.489  50.334 -52.012  1.00  0.00     0.001 A 
HETATM   17  C   UNL     1     -39.619  49.768 -53.278  1.00  0.00     0.000 A 
HETATM   18  C   UNL     1     -40.084  50.539 -54.340  1.00  0.00     0.001 A 
HETATM   19  C   UNL     1     -40.422  51.878 -54.136  1.00  0.00     0.009 A 
ENDBRANCH  13  14
ENDBRANCH  10  13
ENDBRANCH   6   7
BRANCH   1  20
HETATM   20  S   UNL     1     -43.726  56.909 -52.651  1.00  0.00    -0.126 SA
BRANCH  20  21
HETATM   21  C   UNL     1     -42.993  57.380 -54.271  1.00  0.00     0.107 C 
BRANCH  21  22
HETATM   22  C   UNL     1     -43.953  57.240 -55.466  1.00  0.00     0.244 C 
BRANCH  22  23
HETATM   23  N   UNL     1     -43.547  56.124 -56.410  1.00  0.00    -0.078 N 
HETATM   24  C   UNL     1     -43.181  56.602 -57.786  1.00  0.00     0.269 C 
HETATM   25  H   UNL     1     -44.369  55.510 -56.499  1.00  0.00     0.279 HD
HETATM   26  C   UNL     1     -42.464  55.253 -55.823  1.00  0.00     0.269 C 
ENDBRANCH  22  23
ENDBRANCH  21  22
ENDBRANCH  20  21
ENDBRANCH   1  20
BRANCH   3  27
HETATM   27  C   UNL     1     -43.350  61.500 -50.162  1.00  0.00     0.010 A 
HETATM   28  C   UNL     1     -44.443  61.765 -49.301  1.00  0.00     0.152 A 
HETATM   29  N   UNL     1     -44.759  63.060 -49.247  1.00  0.00    -0.187 NA
HETATM   30  N   UNL     1     -43.852  63.641 -50.046  1.00  0.00    -0.289 N 
HETATM   31  H   UNL     1     -43.880  64.650 -50.153  1.00  0.00     0.188 HD
HETATM   32  C   UNL     1     -42.997  62.748 -50.631  1.00  0.00     0.123 A 
ENDBRANCH   3  27
TORSDOF 8
ENDMDL
MODEL 9
REMARK VINA RESULT:      -7.4      2.803      7.794
REMARK  8 active torsions:
REMARK  status: ('A' for Active; 'I' for Inactive)
REMARK    1  A    between atoms: N_2  and  C_5 
REMARK    2  A    between atoms: C_5  and  C_6 
REMARK    3  A    between atoms: C_6  and  S_7 
REMARK    4  A    between atoms: S_7  and  C_8 
REMARK    5  A    between atoms: C_10  and  C_25 
REMARK    6  A    between atoms: C_13  and  N_14 
REMARK       I    between atoms: N_14  and  C_15 
REMARK       I    between atoms: C_15  and  N_17 
REMARK    7  A    between atoms: N_17  and  C_18 
REMARK    8  A    between atoms: C_18  and  C_19 
ROOT
HETATM    1  C   UNL     1     -41.797  54.504 -53.627  1.00  0.00     0.028 A 
HETATM    2  C   UNL     1     -41.425  53.368 -52.897  1.00  0.00     0.033 A 
HETATM    3  C   UNL     1     -40.405  52.523 -53.355  1.00  0.00    -0.022 A 
HETATM    4  C   UNL     1     -39.759  52.843 -54.556  1.00  0.00     0.014 A 
HETATM    5  C   UNL     1     -40.139  53.968 -55.299  1.00  0.00     0.032 A 
HETATM    6  C   UNL     1     -41.173  54.793 -54.853  1.00  0.00     0.053 A 
ENDROOT
BRANCH   6   7
HETATM    7  N   UNL     1     -41.643  55.883 -55.620  1.00  0.00    -0.308 N 
HETATM    8  C   UNL     1     -42.706  55.857 -56.477  1.00  0.00     0.321 C 
HETATM    9  O   UNL     1     -43.190  54.830 -56.942  1.00  0.00    -0.247 OA
HETATM   10  N   UNL     1     -43.170  57.063 -56.892  1.00  0.00    -0.339 N 
HETATM   11  H   UNL     1     -44.036  56.979 -57.415  1.00  0.00     0.164 HD
HETATM   12  H   UNL     1     -41.072  56.716 -55.597  1.00  0.00     0.170 HD
BRANCH  10  13
HETATM   13  C   UNL     1     -42.904  58.359 -56.297  1.00  0.00     0.162 C 
BRANCH  13  14
HETATM   14  C   UNL     1     -42.431  59.355 -57.320  1.00  0.00    -0.040 A 
HETATM   15  C   UNL     1     -42.476  59.041 -58.686  1.00  0.00     0.009 A 
HETATM   16  C   UNL     1     -42.044  59.964 -59.639  1.00  0.00     0.001 A 
HETATM   17  C   UNL     1     -41.563  61.209 -59.240  1.00  0.00     0.000 A 
HETATM   18  C   UNL     1     -41.517  61.536 -57.887  1.00  0.00     0.001 A 
HETATM   19  C   UNL     1     -41.954  60.616 -56.931  1.00  0.00     0.009 A 
ENDBRANCH  13  14
ENDBRANCH  10  13
ENDBRANCH   6   7
BRANCH   1  20
HETATM   20  S   UNL     1     -42.952  55.681 -52.908  1.00  0.00    -0.126 SA
BRANCH  20  21
HETATM   21  C   UNL     1     -42.107  55.998 -51.305  1.00  0.00     0.107 C 
BRANCH  21  22
HETATM   22  C   UNL     1     -41.107  57.167 -51.335  1.00  0.00     0.244 C 
BRANCH  22  23
HETATM   23  N   UNL     1     -41.564  58.302 -52.231  1.00  0.00    -0.078 N 
HETATM   24  C   UNL     1     -42.022  59.518 -51.479  1.00  0.00     0.269 C 
HETATM   25  H   UNL     1     -42.369  57.941 -52.763  1.00  0.00     0.279 HD
HETATM   26  C   UNL     1     -40.529  58.654 -53.270  1.00  0.00     0.269 C 
ENDBRANCH  22  23
ENDBRANCH  21  22
ENDBRANCH  20  21
ENDBRANCH   1  20
BRANCH   3  27
HETATM   27  C   UNL     1     -40.031  51.349 -52.582  1.00  0.00     0.010 A 
HETATM   28  C   UNL     1     -39.817  51.189 -51.191  1.00  0.00     0.152 A 
HETATM   29  N   UNL     1     -39.451  49.948 -50.862  1.00  0.00    -0.187 NA
HETATM   30  N   UNL     1     -39.459  49.294 -52.034  1.00  0.00    -0.289 N 
HETATM   31  H   UNL     1     -39.226  48.306 -52.036  1.00  0.00     0.188 HD
HETATM   32  C   UNL     1     -39.784  50.093 -53.095  1.00  0.00     0.123 A 
ENDBRANCH   3  27
TORSDOF 8
ENDMDL
MODEL 10
REMARK VINA RESULT:      -7.4      2.234      4.869
REMARK  8 active torsions:
REMARK  status: ('A' for Active; 'I' for Inactive)
REMARK    1  A    between atoms: N_2  and  C_5 
REMARK    2  A    between atoms: C_5  and  C_6 
REMARK    3  A    between atoms: C_6  and  S_7 
REMARK    4  A    between atoms: S_7  and  C_8 
REMARK    5  A    between atoms: C_10  and  C_25 
REMARK    6  A    between atoms: C_13  and  N_14 
REMARK       I    between atoms: N_14  and  C_15 
REMARK       I    between atoms: C_15  and  N_17 
REMARK    7  A    between atoms: N_17  and  C_18 
REMARK    8  A    between atoms: C_18  and  C_19 
ROOT
HETATM    1  C   UNL     1     -42.708  56.233 -52.824  1.00  0.00     0.028 A 
HETATM    2  C   UNL     1     -43.607  57.201 -53.292  1.00  0.00     0.033 A 
HETATM    3  C   UNL     1     -43.780  58.411 -52.607  1.00  0.00    -0.022 A 
HETATM    4  C   UNL     1     -43.030  58.637 -51.446  1.00  0.00     0.014 A 
HETATM    5  C   UNL     1     -42.143  57.666 -50.963  1.00  0.00     0.032 A 
HETATM    6  C   UNL     1     -41.992  56.452 -51.633  1.00  0.00     0.053 A 
ENDROOT
BRANCH   6   7
HETATM    7  N   UNL     1     -41.176  55.414 -51.128  1.00  0.00    -0.308 N 
HETATM    8  C   UNL     1     -41.609  54.335 -50.412  1.00  0.00     0.321 C 
HETATM    9  O   UNL     1     -42.692  54.279 -49.839  1.00  0.00    -0.247 OA
HETATM   10  N   UNL     1     -40.722  53.317 -50.268  1.00  0.00    -0.339 N 
HETATM   11  H   UNL     1     -41.147  52.498 -49.846  1.00  0.00     0.164 HD
HETATM   12  H   UNL     1     -40.180  55.551 -51.225  1.00  0.00     0.170 HD
BRANCH  10  13
HETATM   13  C   UNL     1     -39.517  53.086 -51.041  1.00  0.00     0.162 C 
BRANCH  13  14
HETATM   14  C   UNL     1     -39.677  51.932 -51.991  1.00  0.00    -0.040 A 
HETATM   15  C   UNL     1     -39.970  52.163 -53.342  1.00  0.00     0.009 A 
HETATM   16  C   UNL     1     -40.113  51.096 -54.229  1.00  0.00     0.001 A 
HETATM   17  C   UNL     1     -39.965  49.786 -53.778  1.00  0.00     0.000 A 
HETATM   18  C   UNL     1     -39.669  49.541 -52.439  1.00  0.00     0.001 A 
HETATM   19  C   UNL     1     -39.520  50.608 -51.550  1.00  0.00     0.009 A 
ENDBRANCH  13  14
ENDBRANCH  10  13
ENDBRANCH   6   7
BRANCH   1  20
HETATM   20  S   UNL     1     -42.348  54.792 -53.838  1.00  0.00    -0.126 SA
BRANCH  20  21
HETATM   21  C   UNL     1     -42.023  55.624 -55.447  1.00  0.00     0.107 C 
BRANCH  21  22
HETATM   22  C   UNL     1     -42.881  55.104 -56.614  1.00  0.00     0.244 C 
BRANCH  22  23
HETATM   23  N   UNL     1     -43.599  56.219 -57.350  1.00  0.00    -0.078 N 
HETATM   24  C   UNL     1     -43.088  57.590 -57.015  1.00  0.00     0.269 C 
HETATM   25  H   UNL     1     -44.585  56.169 -57.054  1.00  0.00     0.279 HD
HETATM   26  C   UNL     1     -43.622  55.988 -58.841  1.00  0.00     0.269 C 
ENDBRANCH  22  23
ENDBRANCH  21  22
ENDBRANCH  20  21
ENDBRANCH   1  20
BRANCH   3  27
HETATM   27  C   UNL     1     -44.716  59.404 -53.111  1.00  0.00     0.010 A 
HETATM   28  C   UNL     1     -45.363  60.480 -52.455  1.00  0.00     0.152 A 
HETATM   29  N   UNL     1     -46.185  61.158 -53.258  1.00  0.00    -0.187 NA
HETATM   30  N   UNL     1     -46.048  60.544 -54.443  1.00  0.00    -0.289 N 
HETATM   31  H   UNL     1     -46.574  60.901 -55.234  1.00  0.00     0.188 HD
HETATM   32  C   UNL     1     -45.193  59.478 -54.403  1.00  0.00     0.123 A 
ENDBRANCH   3  27
TORSDOF 8
ENDMDL
