MODEL 1
REMARK VINA RESULT:      -7.8      0.000      0.000
REMARK  4 active torsions:
REMARK  status: ('A' for Active; 'I' for Inactive)
REMARK    1  A    between atoms: C_9  and  C_10 
REMARK       I    between atoms: C_10  and  N_11 
REMARK    2  A    between atoms: N_11  and  C_12 
REMARK    3  A    between atoms: C_12  and  C_13 
REMARK    4  A    between atoms: C_14  and  O_15 
ROOT
HETATM    1  C   UNL     1     -41.124  55.258 -53.201  1.00  0.00     0.273 C 
HETATM    2  N   UNL     1     -42.258  55.943 -52.823  1.00  0.00    -0.347 N 
HETATM    3  O   UNL     1     -40.504  55.479 -54.237  1.00  0.00    -0.266 OA
HETATM    4  H   UNL     1     -42.550  55.764 -51.866  1.00  0.00     0.163 HD
ENDROOT
BRANCH   1   5
HETATM    5  C   UNL     1     -40.730  54.226 -52.227  1.00  0.00     0.157 A 
HETATM    6  C   UNL     1     -40.357  52.876 -52.501  1.00  0.00     0.029 A 
HETATM    7  C   UNL     1     -40.231  52.069 -53.649  1.00  0.00     0.023 A 
HETATM    8  C   UNL     1     -40.085  52.317 -51.258  1.00  0.00     0.063 A 
HETATM    9  C   UNL     1     -39.839  50.727 -53.514  1.00  0.00    -0.061 A 
HETATM   10  C   UNL     1     -39.713  49.845 -54.723  1.00  0.00     0.048 C 
HETATM   11  C   UNL     1     -39.575  50.204 -52.242  1.00  0.00     0.009 A 
HETATM   12  C   UNL     1     -39.690  50.988 -51.088  1.00  0.00     0.032 A 
HETATM   13  N   UNL     1     -40.296  53.324 -50.357  1.00  0.00    -0.277 N 
HETATM   14  H   UNL     1     -40.189  53.275 -49.350  1.00  0.00     0.189 HD
HETATM   15  N   UNL     1     -40.694  54.487 -50.901  1.00  0.00    -0.168 NA
ENDBRANCH   1   5
BRANCH   2  16
HETATM   16  C   UNL     1     -42.777  57.103 -53.529  1.00  0.00     0.116 C 
HETATM   17  C   UNL     1     -44.000  56.759 -54.386  1.00  0.00     0.037 C 
BRANCH  16  18
HETATM   18  C   UNL     1     -43.146  58.214 -52.551  1.00  0.00    -0.002 A 
HETATM   19  C   UNL     1     -42.158  58.899 -51.818  1.00  0.00     0.076 A 
HETATM   20  C   UNL     1     -42.535  59.927 -50.946  1.00  0.00     0.038 A 
HETATM   21  C   UNL     1     -43.877  60.291 -50.807  1.00  0.00     0.009 A 
HETATM   22  C   UNL     1     -44.867  59.641 -51.544  1.00  0.00    -0.061 A 
HETATM   23  C   UNL     1     -46.311  60.025 -51.412  1.00  0.00     0.048 C 
HETATM   24  C   UNL     1     -44.494  58.610 -52.412  1.00  0.00     0.018 A 
BRANCH  19  25
HETATM   25  O   UNL     1     -40.864  58.500 -52.028  1.00  0.00    -0.355 OA
HETATM   26  C   UNL     1     -39.883  58.930 -51.094  1.00  0.00     0.210 C 
ENDBRANCH  19  25
ENDBRANCH  16  18
ENDBRANCH   2  16
TORSDOF 4
ENDMDL
MODEL 2
REMARK VINA RESULT:      -7.7      2.686      6.575
REMARK  4 active torsions:
REMARK  status: ('A' for Active; 'I' for Inactive)
REMARK    1  A    between atoms: C_9  and  C_10 
REMARK       I    between atoms: C_10  and  N_11 
REMARK    2  A    between atoms: N_11  and  C_12 
REMARK    3  A    between atoms: C_12  and  C_13 
REMARK    4  A    between atoms: C_14  and  O_15 
ROOT
HETATM    1  C   UNL     1     -41.625  57.724 -51.903  1.00  0.00     0.273 C 
HETATM    2  N   UNL     1     -42.577  56.731 -51.840  1.00  0.00    -0.347 N 
HETATM    3  O   UNL     1     -40.772  57.911 -51.041  1.00  0.00    -0.266 OA
HETATM    4  H   UNL     1     -43.095  56.597 -52.705  1.00  0.00     0.163 HD
ENDROOT
BRANCH   1   5
HETATM    5  C   UNL     1     -41.737  58.545 -53.121  1.00  0.00     0.157 A 
HETATM    6  C   UNL     1     -42.043  58.096 -54.441  1.00  0.00     0.029 A 
HETATM    7  C   UNL     1     -42.324  56.858 -55.054  1.00  0.00     0.023 A 
HETATM    8  C   UNL     1     -42.022  59.241 -55.226  1.00  0.00     0.063 A 
HETATM    9  C   UNL     1     -42.571  56.809 -56.436  1.00  0.00    -0.061 A 
HETATM   10  C   UNL     1     -42.856  55.499 -57.112  1.00  0.00     0.048 C 
HETATM   11  C   UNL     1     -42.538  57.989 -57.191  1.00  0.00     0.009 A 
HETATM   12  C   UNL     1     -42.266  59.229 -56.602  1.00  0.00     0.032 A 
HETATM   13  N   UNL     1     -41.724  60.262 -54.367  1.00  0.00    -0.277 N 
HETATM   14  H   UNL     1     -41.628  61.245 -54.594  1.00  0.00     0.189 HD
HETATM   15  N   UNL     1     -41.535  59.881 -53.091  1.00  0.00    -0.168 NA
ENDBRANCH   1   5
BRANCH   2  16
HETATM   16  C   UNL     1     -42.602  55.695 -50.819  1.00  0.00     0.116 C 
HETATM   17  C   UNL     1     -44.012  55.139 -50.594  1.00  0.00     0.037 C 
BRANCH  16  18
HETATM   18  C   UNL     1     -41.662  54.551 -51.185  1.00  0.00    -0.002 A 
HETATM   19  C   UNL     1     -41.037  53.773 -50.192  1.00  0.00     0.076 A 
HETATM   20  C   UNL     1     -40.199  52.718 -50.567  1.00  0.00     0.038 A 
HETATM   21  C   UNL     1     -39.989  52.417 -51.916  1.00  0.00     0.009 A 
HETATM   22  C   UNL     1     -40.621  53.158 -52.914  1.00  0.00    -0.061 A 
HETATM   23  C   UNL     1     -40.412  52.844 -54.365  1.00  0.00     0.048 C 
HETATM   24  C   UNL     1     -41.454  54.218 -52.541  1.00  0.00     0.018 A 
BRANCH  19  25
HETATM   25  O   UNL     1     -41.312  54.116 -48.893  1.00  0.00    -0.355 OA
HETATM   26  C   UNL     1     -40.294  53.901 -47.926  1.00  0.00     0.210 C 
ENDBRANCH  19  25
ENDBRANCH  16  18
ENDBRANCH   2  16
TORSDOF 4
ENDMDL
MODEL 3
REMARK VINA RESULT:      -7.7      1.810      7.453
REMARK  4 active torsions:
REMARK  status: ('A' for Active; 'I' for Inactive)
REMARK    1  A    between atoms: C_9  and  C_10 
REMARK       I    between atoms: C_10  and  N_11 
REMARK    2  A    between atoms: N_11  and  C_12 
REMARK    3  A    between atoms: C_12  and  C_13 
REMARK    4  A    between atoms: C_14  and  O_15 
ROOT
HETATM    1  C   UNL     1     -41.928  56.279 -50.774  1.00  0.00     0.273 C 
HETATM    2  N   UNL     1     -41.746  54.998 -51.244  1.00  0.00    -0.347 N 
HETATM    3  O   UNL     1     -41.143  56.853 -50.027  1.00  0.00    -0.266 OA
HETATM    4  H   UNL     1     -42.390  54.733 -51.985  1.00  0.00     0.163 HD
ENDROOT
BRANCH   1   5
HETATM    5  C   UNL     1     -43.173  56.895 -51.265  1.00  0.00     0.157 A 
HETATM    6  C   UNL     1     -43.313  57.823 -52.341  1.00  0.00     0.029 A 
HETATM    7  C   UNL     1     -42.447  58.457 -53.255  1.00  0.00     0.023 A 
HETATM    8  C   UNL     1     -44.671  58.105 -52.401  1.00  0.00     0.063 A 
HETATM    9  C   UNL     1     -42.973  59.356 -54.198  1.00  0.00    -0.061 A 
HETATM   10  C   UNL     1     -42.067  60.054 -55.171  1.00  0.00     0.048 C 
HETATM   11  C   UNL     1     -44.350  59.612 -54.223  1.00  0.00     0.009 A 
HETATM   12  C   UNL     1     -45.228  58.991 -53.327  1.00  0.00     0.032 A 
HETATM   13  N   UNL     1     -45.239  57.358 -51.406  1.00  0.00    -0.277 N 
HETATM   14  H   UNL     1     -46.221  57.313 -51.160  1.00  0.00     0.189 HD
HETATM   15  N   UNL     1     -44.367  56.623 -50.693  1.00  0.00    -0.168 NA
ENDBRANCH   1   5
BRANCH   2  16
HETATM   16  C   UNL     1     -40.536  54.220 -51.030  1.00  0.00     0.116 C 
HETATM   17  C   UNL     1     -40.550  53.487 -49.684  1.00  0.00     0.037 C 
BRANCH  16  18
HETATM   18  C   UNL     1     -40.337  53.206 -52.152  1.00  0.00    -0.002 A 
HETATM   19  C   UNL     1     -40.372  53.597 -53.504  1.00  0.00     0.076 A 
HETATM   20  C   UNL     1     -40.164  52.641 -54.505  1.00  0.00     0.038 A 
HETATM   21  C   UNL     1     -39.905  51.307 -54.176  1.00  0.00     0.009 A 
HETATM   22  C   UNL     1     -39.840  50.906 -52.842  1.00  0.00    -0.061 A 
HETATM   23  C   UNL     1     -39.557  49.481 -52.473  1.00  0.00     0.048 C 
HETATM   24  C   UNL     1     -40.054  51.858 -51.840  1.00  0.00     0.018 A 
BRANCH  19  25
HETATM   25  O   UNL     1     -40.607  54.926 -53.744  1.00  0.00    -0.355 OA
HETATM   26  C   UNL     1     -41.416  55.260 -54.863  1.00  0.00     0.210 C 
ENDBRANCH  19  25
ENDBRANCH  16  18
ENDBRANCH   2  16
TORSDOF 4
ENDMDL
MODEL 4
REMARK VINA RESULT:      -7.7      2.086      7.629
REMARK  4 active torsions:
REMARK  status: ('A' for Active; 'I' for Inactive)
REMARK    1  A    between atoms: C_9  and  C_10 
REMARK       I    between atoms: C_10  and  N_11 
REMARK    2  A    between atoms: N_11  and  C_12 
REMARK    3  A    between atoms: C_12  and  C_13 
REMARK    4  A    between atoms: C_14  and  O_15 
ROOT
HETATM    1  C   UNL     1     -43.128  55.948 -53.688  1.00  0.00     0.273 C 
HETATM    2  N   UNL     1     -42.015  55.225 -53.320  1.00  0.00    -0.347 N 
HETATM    3  O   UNL     1     -43.525  56.054 -54.844  1.00  0.00    -0.266 OA
HETATM    4  H   UNL     1     -41.920  55.091 -52.317  1.00  0.00     0.163 HD
ENDROOT
BRANCH   1   5
HETATM    5  C   UNL     1     -43.799  56.584 -52.542  1.00  0.00     0.157 A 
HETATM    6  C   UNL     1     -44.496  57.830 -52.530  1.00  0.00     0.029 A 
HETATM    7  C   UNL     1     -44.792  58.838 -53.470  1.00  0.00     0.023 A 
HETATM    8  C   UNL     1     -44.935  57.987 -51.221  1.00  0.00     0.063 A 
HETATM    9  C   UNL     1     -45.517  59.971 -53.065  1.00  0.00    -0.061 A 
HETATM   10  C   UNL     1     -45.829  61.064 -54.047  1.00  0.00     0.048 C 
HETATM   11  C   UNL     1     -45.940  60.089 -51.735  1.00  0.00     0.009 A 
HETATM   12  C   UNL     1     -45.660  59.098 -50.787  1.00  0.00     0.032 A 
HETATM   13  N   UNL     1     -44.499  56.872 -50.560  1.00  0.00    -0.277 N 
HETATM   14  H   UNL     1     -44.642  56.646 -49.582  1.00  0.00     0.189 HD
HETATM   15  N   UNL     1     -43.803  56.008 -51.318  1.00  0.00    -0.168 NA
ENDBRANCH   1   5
BRANCH   2  16
HETATM   16  C   UNL     1     -41.257  54.384 -54.233  1.00  0.00     0.116 C 
HETATM   17  C   UNL     1     -40.162  55.167 -54.967  1.00  0.00     0.037 C 
BRANCH  16  18
HETATM   18  C   UNL     1     -40.623  53.211 -53.491  1.00  0.00    -0.002 A 
HETATM   19  C   UNL     1     -40.332  53.290 -52.116  1.00  0.00     0.076 A 
HETATM   20  C   UNL     1     -39.771  52.185 -51.465  1.00  0.00     0.038 A 
HETATM   21  C   UNL     1     -39.513  51.000 -52.162  1.00  0.00     0.009 A 
HETATM   22  C   UNL     1     -39.820  50.895 -53.518  1.00  0.00    -0.061 A 
HETATM   23  C   UNL     1     -39.556  49.630 -54.278  1.00  0.00     0.048 C 
HETATM   24  C   UNL     1     -40.375  52.000 -54.172  1.00  0.00     0.018 A 
BRANCH  19  25
HETATM   25  O   UNL     1     -40.636  54.475 -51.499  1.00  0.00    -0.355 OA
HETATM   26  C   UNL     1     -40.427  54.561 -50.096  1.00  0.00     0.210 C 
ENDBRANCH  19  25
ENDBRANCH  16  18
ENDBRANCH   2  16
TORSDOF 4
ENDMDL
MODEL 5
REMARK VINA RESULT:      -7.6      3.254      4.862
REMARK  4 active torsions:
REMARK  status: ('A' for Active; 'I' for Inactive)
REMARK    1  A    between atoms: C_9  and  C_10 
REMARK       I    between atoms: C_10  and  N_11 
REMARK    2  A    between atoms: N_11  and  C_12 
REMARK    3  A    between atoms: C_12  and  C_13 
REMARK    4  A    between atoms: C_14  and  O_15 
ROOT
HETATM    1  C   UNL     1     -42.998  54.833 -54.834  1.00  0.00     0.273 C 
HETATM    2  N   UNL     1     -43.427  56.141 -54.850  1.00  0.00    -0.347 N 
HETATM    3  O   UNL     1     -43.349  53.987 -55.650  1.00  0.00    -0.266 OA
HETATM    4  H   UNL     1     -42.916  56.754 -54.220  1.00  0.00     0.163 HD
ENDROOT
BRANCH   1   5
HETATM    5  C   UNL     1     -42.067  54.552 -53.728  1.00  0.00     0.157 A 
HETATM    6  C   UNL     1     -41.245  53.398 -53.562  1.00  0.00     0.029 A 
HETATM    7  C   UNL     1     -41.010  52.206 -54.276  1.00  0.00     0.023 A 
HETATM    8  C   UNL     1     -40.565  53.606 -52.368  1.00  0.00     0.063 A 
HETATM    9  C   UNL     1     -40.103  51.260 -53.769  1.00  0.00    -0.061 A 
HETATM   10  C   UNL     1     -39.850  49.977 -54.506  1.00  0.00     0.048 C 
HETATM   11  C   UNL     1     -39.439  51.511 -52.561  1.00  0.00     0.009 A 
HETATM   12  C   UNL     1     -39.655  52.689 -51.837  1.00  0.00     0.032 A 
HETATM   13  N   UNL     1     -40.998  54.822 -51.915  1.00  0.00    -0.277 N 
HETATM   14  H   UNL     1     -40.709  55.296 -51.068  1.00  0.00     0.189 HD
HETATM   15  N   UNL     1     -41.910  55.419 -52.702  1.00  0.00    -0.168 NA
ENDBRANCH   1   5
BRANCH   2  16
HETATM   16  C   UNL     1     -44.234  56.717 -55.915  1.00  0.00     0.116 C 
HETATM   17  C   UNL     1     -45.229  57.757 -55.389  1.00  0.00     0.037 C 
BRANCH  16  18
HETATM   18  C   UNL     1     -43.349  57.360 -56.978  1.00  0.00    -0.002 A 
HETATM   19  C   UNL     1     -43.072  56.703 -58.192  1.00  0.00     0.076 A 
HETATM   20  C   UNL     1     -42.273  57.335 -59.152  1.00  0.00     0.038 A 
HETATM   21  C   UNL     1     -41.763  58.617 -58.925  1.00  0.00     0.009 A 
HETATM   22  C   UNL     1     -42.049  59.294 -57.741  1.00  0.00    -0.061 A 
HETATM   23  C   UNL     1     -41.515  60.672 -57.486  1.00  0.00     0.048 C 
HETATM   24  C   UNL     1     -42.842  58.662 -56.777  1.00  0.00     0.018 A 
BRANCH  19  25
HETATM   25  O   UNL     1     -43.628  55.460 -58.348  1.00  0.00    -0.355 OA
HETATM   26  C   UNL     1     -44.018  55.073 -59.658  1.00  0.00     0.210 C 
ENDBRANCH  19  25
ENDBRANCH  16  18
ENDBRANCH   2  16
TORSDOF 4
ENDMDL
MODEL 6
REMARK VINA RESULT:      -7.6      1.776      7.632
REMARK  4 active torsions:
REMARK  status: ('A' for Active; 'I' for Inactive)
REMARK    1  A    between atoms: C_9  and  C_10 
REMARK       I    between atoms: C_10  and  N_11 
REMARK    2  A    between atoms: N_11  and  C_12 
REMARK    3  A    between atoms: C_12  and  C_13 
REMARK    4  A    between atoms: C_14  and  O_15 
ROOT
HETATM    1  C   UNL     1     -42.753  56.625 -52.966  1.00  0.00     0.273 C 
HETATM    2  N   UNL     1     -41.860  55.597 -53.167  1.00  0.00    -0.347 N 
HETATM    3  O   UNL     1     -43.943  56.566 -53.260  1.00  0.00    -0.266 OA
HETATM    4  H   UNL     1     -40.960  55.735 -52.714  1.00  0.00     0.163 HD
ENDROOT
BRANCH   1   5
HETATM    5  C   UNL     1     -42.129  57.812 -52.357  1.00  0.00     0.157 A 
HETATM    6  C   UNL     1     -42.779  58.855 -51.632  1.00  0.00     0.029 A 
HETATM    7  C   UNL     1     -44.102  59.155 -51.249  1.00  0.00     0.023 A 
HETATM    8  C   UNL     1     -41.765  59.735 -51.276  1.00  0.00     0.063 A 
HETATM    9  C   UNL     1     -44.365  60.330 -50.525  1.00  0.00    -0.061 A 
HETATM   10  C   UNL     1     -45.770  60.677 -50.122  1.00  0.00     0.048 C 
HETATM   11  C   UNL     1     -43.312  61.190 -50.188  1.00  0.00     0.009 A 
HETATM   12  C   UNL     1     -41.991  60.909 -50.554  1.00  0.00     0.032 A 
HETATM   13  N   UNL     1     -40.619  59.187 -51.782  1.00  0.00    -0.277 N 
HETATM   14  H   UNL     1     -39.679  59.559 -51.709  1.00  0.00     0.189 HD
HETATM   15  N   UNL     1     -40.798  58.033 -52.448  1.00  0.00    -0.168 NA
ENDBRANCH   1   5
BRANCH   2  16
HETATM   16  C   UNL     1     -42.242  54.268 -53.618  1.00  0.00     0.116 C 
HETATM   17  C   UNL     1     -42.365  54.188 -55.143  1.00  0.00     0.037 C 
BRANCH  16  18
HETATM   18  C   UNL     1     -41.238  53.223 -53.140  1.00  0.00    -0.002 A 
HETATM   19  C   UNL     1     -40.754  53.227 -51.818  1.00  0.00     0.076 A 
HETATM   20  C   UNL     1     -39.850  52.239 -51.411  1.00  0.00     0.038 A 
HETATM   21  C   UNL     1     -39.436  51.240 -52.297  1.00  0.00     0.009 A 
HETATM   22  C   UNL     1     -39.925  51.204 -53.603  1.00  0.00    -0.061 A 
HETATM   23  C   UNL     1     -39.497  50.136 -54.563  1.00  0.00     0.048 C 
HETATM   24  C   UNL     1     -40.824  52.194 -54.014  1.00  0.00     0.018 A 
BRANCH  19  25
HETATM   25  O   UNL     1     -41.226  54.224 -51.004  1.00  0.00    -0.355 OA
HETATM   26  C   UNL     1     -40.368  54.692 -49.972  1.00  0.00     0.210 C 
ENDBRANCH  19  25
ENDBRANCH  16  18
ENDBRANCH   2  16
TORSDOF 4
ENDMDL
MODEL 7
REMARK VINA RESULT:      -7.5      3.371      7.717
REMARK  4 active torsions:
REMARK  status: ('A' for Active; 'I' for Inactive)
REMARK    1  A    between atoms: C_9  and  C_10 
REMARK       I    between atoms: C_10  and  N_11 
REMARK    2  A    between atoms: N_11  and  C_12 
REMARK    3  A    between atoms: C_12  and  C_13 
REMARK    4  A    between atoms: C_14  and  O_15 
ROOT
HETATM    1  C   UNL     1     -42.670  56.274 -54.815  1.00  0.00     0.273 C 
HETATM    2  N   UNL     1     -42.288  55.040 -54.338  1.00  0.00    -0.347 N 
HETATM    3  O   UNL     1     -42.996  57.215 -54.098  1.00  0.00    -0.266 OA
HETATM    4  H   UNL     1     -41.884  54.429 -55.044  1.00  0.00     0.163 HD
ENDROOT
BRANCH   1   5
HETATM    5  C   UNL     1     -42.646  56.349 -56.286  1.00  0.00     0.157 A 
HETATM    6  C   UNL     1     -42.409  57.505 -57.089  1.00  0.00     0.029 A 
HETATM    7  C   UNL     1     -42.141  58.869 -56.854  1.00  0.00     0.023 A 
HETATM    8  C   UNL     1     -42.499  57.058 -58.401  1.00  0.00     0.063 A 
HETATM    9  C   UNL     1     -41.975  59.740 -57.943  1.00  0.00    -0.061 A 
HETATM   10  C   UNL     1     -41.704  61.200 -57.715  1.00  0.00     0.048 C 
HETATM   11  C   UNL     1     -42.074  59.247 -59.251  1.00  0.00     0.009 A 
HETATM   12  C   UNL     1     -42.336  57.897 -59.507  1.00  0.00     0.032 A 
HETATM   13  N   UNL     1     -42.766  55.720 -58.309  1.00  0.00    -0.277 N 
HETATM   14  H   UNL     1     -42.894  55.068 -59.073  1.00  0.00     0.189 HD
HETATM   15  N   UNL     1     -42.872  55.257 -57.051  1.00  0.00    -0.168 NA
ENDBRANCH   1   5
BRANCH   2  16
HETATM   16  C   UNL     1     -42.087  54.743 -52.929  1.00  0.00     0.116 C 
HETATM   17  C   UNL     1     -43.400  54.402 -52.216  1.00  0.00     0.037 C 
BRANCH  16  18
HETATM   18  C   UNL     1     -41.106  53.588 -52.753  1.00  0.00    -0.002 A 
HETATM   19  C   UNL     1     -40.354  53.442 -51.572  1.00  0.00     0.076 A 
HETATM   20  C   UNL     1     -39.480  52.357 -51.439  1.00  0.00     0.038 A 
HETATM   21  C   UNL     1     -39.359  51.409 -52.459  1.00  0.00     0.009 A 
HETATM   22  C   UNL     1     -40.115  51.521 -53.625  1.00  0.00    -0.061 A 
HETATM   23  C   UNL     1     -40.002  50.508 -54.724  1.00  0.00     0.048 C 
HETATM   24  C   UNL     1     -40.985  52.608 -53.762  1.00  0.00     0.018 A 
BRANCH  19  25
HETATM   25  O   UNL     1     -40.547  54.400 -50.610  1.00  0.00    -0.355 OA
HETATM   26  C   UNL     1     -39.738  54.334 -49.444  1.00  0.00     0.210 C 
ENDBRANCH  19  25
ENDBRANCH  16  18
ENDBRANCH   2  16
TORSDOF 4
ENDMDL
MODEL 8
REMARK VINA RESULT:      -7.4      1.921      6.992
REMARK  4 active torsions:
REMARK  status: ('A' for Active; 'I' for Inactive)
REMARK    1  A    between atoms: C_9  and  C_10 
REMARK       I    between atoms: C_10  and  N_11 
REMARK    2  A    between atoms: N_11  and  C_12 
REMARK    3  A    between atoms: C_12  and  C_13 
REMARK    4  A    between atoms: C_14  and  O_15 
ROOT
HETATM    1  C   UNL     1     -43.307  56.372 -53.472  1.00  0.00     0.273 C 
HETATM    2  N   UNL     1     -42.231  55.521 -53.354  1.00  0.00    -0.347 N 
HETATM    3  O   UNL     1     -44.161  56.279 -54.348  1.00  0.00    -0.266 OA
HETATM    4  H   UNL     1     -41.717  55.620 -52.482  1.00  0.00     0.163 HD
ENDROOT
BRANCH   1   5
HETATM    5  C   UNL     1     -43.329  57.412 -52.429  1.00  0.00     0.157 A 
HETATM    6  C   UNL     1     -42.218  58.148 -51.919  1.00  0.00     0.029 A 
HETATM    7  C   UNL     1     -40.829  58.185 -52.156  1.00  0.00     0.023 A 
HETATM    8  C   UNL     1     -42.754  58.992 -50.956  1.00  0.00     0.063 A 
HETATM    9  C   UNL     1     -40.023  59.068 -51.416  1.00  0.00    -0.061 A 
HETATM   10  C   UNL     1     -38.539  59.113 -51.641  1.00  0.00     0.048 C 
HETATM   11  C   UNL     1     -40.606  59.902 -50.454  1.00  0.00     0.009 A 
HETATM   12  C   UNL     1     -41.984  59.883 -50.205  1.00  0.00     0.032 A 
HETATM   13  N   UNL     1     -44.096  58.727 -50.952  1.00  0.00    -0.277 N 
HETATM   14  H   UNL     1     -44.804  59.163 -50.372  1.00  0.00     0.189 HD
HETATM   15  N   UNL     1     -44.480  57.774 -51.819  1.00  0.00    -0.168 NA
ENDBRANCH   1   5
BRANCH   2  16
HETATM   16  C   UNL     1     -42.050  54.326 -54.163  1.00  0.00     0.116 C 
HETATM   17  C   UNL     1     -41.502  54.649 -55.557  1.00  0.00     0.037 C 
BRANCH  16  18
HETATM   18  C   UNL     1     -41.115  53.339 -53.472  1.00  0.00    -0.002 A 
HETATM   19  C   UNL     1     -40.695  53.539 -52.143  1.00  0.00     0.076 A 
HETATM   20  C   UNL     1     -39.854  52.600 -51.536  1.00  0.00     0.038 A 
HETATM   21  C   UNL     1     -39.441  51.458 -52.228  1.00  0.00     0.009 A 
HETATM   22  C   UNL     1     -39.868  51.228 -53.536  1.00  0.00    -0.061 A 
HETATM   23  C   UNL     1     -39.439  50.005 -54.289  1.00  0.00     0.048 C 
HETATM   24  C   UNL     1     -40.703  52.169 -54.147  1.00  0.00     0.018 A 
BRANCH  19  25
HETATM   25  O   UNL     1     -41.162  54.670 -51.525  1.00  0.00    -0.355 OA
HETATM   26  C   UNL     1     -40.682  54.952 -50.218  1.00  0.00     0.210 C 
ENDBRANCH  19  25
ENDBRANCH  16  18
ENDBRANCH   2  16
TORSDOF 4
ENDMDL
MODEL 9
REMARK VINA RESULT:      -7.3      2.361      3.207
REMARK  4 active torsions:
REMARK  status: ('A' for Active; 'I' for Inactive)
REMARK    1  A    between atoms: C_9  and  C_10 
REMARK       I    between atoms: C_10  and  N_11 
REMARK    2  A    between atoms: N_11  and  C_12 
REMARK    3  A    between atoms: C_12  and  C_13 
REMARK    4  A    between atoms: C_14  and  O_15 
ROOT
HETATM    1  C   UNL     1     -42.553  55.293 -54.403  1.00  0.00     0.273 C 
HETATM    2  N   UNL     1     -41.818  56.098 -55.244  1.00  0.00    -0.347 N 
HETATM    3  O   UNL     1     -43.738  55.025 -54.574  1.00  0.00    -0.266 OA
HETATM    4  H   UNL     1     -40.817  56.082 -55.066  1.00  0.00     0.163 HD
ENDROOT
BRANCH   1   5
HETATM    5  C   UNL     1     -41.764  54.783 -53.269  1.00  0.00     0.157 A 
HETATM    6  C   UNL     1     -41.042  53.554 -53.202  1.00  0.00     0.029 A 
HETATM    7  C   UNL     1     -40.812  52.462 -54.063  1.00  0.00     0.023 A 
HETATM    8  C   UNL     1     -40.479  53.534 -51.933  1.00  0.00     0.063 A 
HETATM    9  C   UNL     1     -40.027  51.383 -53.621  1.00  0.00    -0.061 A 
HETATM   10  C   UNL     1     -39.783  50.202 -54.516  1.00  0.00     0.048 C 
HETATM   11  C   UNL     1     -39.479  51.404 -52.332  1.00  0.00     0.009 A 
HETATM   12  C   UNL     1     -39.691  52.480 -51.462  1.00  0.00     0.032 A 
HETATM   13  N   UNL     1     -40.875  54.703 -51.345  1.00  0.00    -0.277 N 
HETATM   14  H   UNL     1     -40.646  55.026 -50.412  1.00  0.00     0.189 HD
HETATM   15  N   UNL     1     -41.658  55.478 -52.114  1.00  0.00    -0.168 NA
ENDBRANCH   1   5
BRANCH   2  16
HETATM   16  C   UNL     1     -42.314  56.614 -56.511  1.00  0.00     0.116 C 
HETATM   17  C   UNL     1     -42.915  55.510 -57.389  1.00  0.00     0.037 C 
BRANCH  16  18
HETATM   18  C   UNL     1     -43.360  57.701 -56.283  1.00  0.00    -0.002 A 
HETATM   19  C   UNL     1     -43.077  58.831 -55.493  1.00  0.00     0.076 A 
HETATM   20  C   UNL     1     -44.056  59.817 -55.325  1.00  0.00     0.038 A 
HETATM   21  C   UNL     1     -45.303  59.700 -55.947  1.00  0.00     0.009 A 
HETATM   22  C   UNL     1     -45.591  58.601 -56.755  1.00  0.00    -0.061 A 
HETATM   23  C   UNL     1     -46.921  58.464 -57.433  1.00  0.00     0.048 C 
HETATM   24  C   UNL     1     -44.617  57.611 -56.919  1.00  0.00     0.018 A 
BRANCH  19  25
HETATM   25  O   UNL     1     -41.825  58.884 -54.938  1.00  0.00    -0.355 OA
HETATM   26  C   UNL     1     -41.704  59.445 -53.639  1.00  0.00     0.210 C 
ENDBRANCH  19  25
ENDBRANCH  16  18
ENDBRANCH   2  16
TORSDOF 4
ENDMDL
MODEL 10
REMARK VINA RESULT:      -7.1      2.094      3.322
REMARK  4 active torsions:
REMARK  status: ('A' for Active; 'I' for Inactive)
REMARK    1  A    between atoms: C_9  and  C_10 
REMARK       I    between atoms: C_10  and  N_11 
REMARK    2  A    between atoms: N_11  and  C_12 
REMARK    3  A    between atoms: C_12  and  C_13 
REMARK    4  A    between atoms: C_14  and  O_15 
ROOT
HETATM    1  C   UNL     1     -40.960  54.892 -49.802  1.00  0.00     0.273 C 
HETATM    2  N   UNL     1     -40.901  55.929 -50.705  1.00  0.00    -0.347 N 
HETATM    3  O   UNL     1     -41.290  55.024 -48.628  1.00  0.00    -0.266 OA
HETATM    4  H   UNL     1     -40.783  55.633 -51.670  1.00  0.00     0.163 HD
ENDROOT
BRANCH   1   5
HETATM    5  C   UNL     1     -40.585  53.597 -50.395  1.00  0.00     0.157 A 
HETATM    6  C   UNL     1     -40.413  53.298 -51.780  1.00  0.00     0.029 A 
HETATM    7  C   UNL     1     -40.519  54.007 -52.994  1.00  0.00     0.023 A 
HETATM    8  C   UNL     1     -40.070  51.952 -51.819  1.00  0.00     0.063 A 
HETATM    9  C   UNL     1     -40.280  53.341 -54.208  1.00  0.00    -0.061 A 
HETATM   10  C   UNL     1     -40.403  54.073 -55.513  1.00  0.00     0.048 C 
HETATM   11  C   UNL     1     -39.937  51.983 -54.202  1.00  0.00     0.009 A 
HETATM   12  C   UNL     1     -39.823  51.262 -53.008  1.00  0.00     0.032 A 
HETATM   13  N   UNL     1     -40.052  51.547 -50.514  1.00  0.00    -0.277 N 
HETATM   14  H   UNL     1     -39.837  50.621 -50.164  1.00  0.00     0.189 HD
HETATM   15  N   UNL     1     -40.366  52.507 -49.626  1.00  0.00    -0.168 NA
ENDBRANCH   1   5
BRANCH   2  16
HETATM   16  C   UNL     1     -41.357  57.281 -50.419  1.00  0.00     0.116 C 
HETATM   17  C   UNL     1     -40.204  58.290 -50.404  1.00  0.00     0.037 C 
BRANCH  16  18
HETATM   18  C   UNL     1     -42.403  57.727 -51.436  1.00  0.00    -0.002 A 
HETATM   19  C   UNL     1     -43.711  57.207 -51.416  1.00  0.00     0.076 A 
HETATM   20  C   UNL     1     -44.647  57.658 -52.353  1.00  0.00     0.038 A 
HETATM   21  C   UNL     1     -44.304  58.630 -53.296  1.00  0.00     0.009 A 
HETATM   22  C   UNL     1     -43.021  59.177 -53.315  1.00  0.00    -0.061 A 
HETATM   23  C   UNL     1     -42.639  60.225 -54.316  1.00  0.00     0.048 C 
HETATM   24  C   UNL     1     -42.081  58.723 -52.384  1.00  0.00     0.018 A 
BRANCH  19  25
HETATM   25  O   UNL     1     -43.976  56.276 -50.445  1.00  0.00    -0.355 OA
HETATM   26  C   UNL     1     -44.235  54.943 -50.865  1.00  0.00     0.210 C 
ENDBRANCH  19  25
ENDBRANCH  16  18
ENDBRANCH   2  16
TORSDOF 4
ENDMDL
