MODEL 1
REMARK VINA RESULT:      -8.0      0.000      0.000
REMARK  5 active torsions:
REMARK  status: ('A' for Active; 'I' for Inactive)
REMARK    1  A    between atoms: C_2  and  C_3 
REMARK    2  A    between atoms: C_4  and  C_5 
REMARK    3  A    between atoms: C_8  and  C_9 
REMARK       I    between atoms: C_9  and  N_10 
REMARK    4  A    between atoms: N_10  and  C_11 
REMARK    5  A    between atoms: C_13  and  C_14 
ROOT
HETATM    1  C   UNL     1     -42.740  54.677 -55.463  1.00  0.00     0.280 C 
HETATM    2  N   UNL     1     -41.421  54.410 -55.136  1.00  0.00    -0.321 N 
HETATM    3  O   UNL     1     -43.720  54.292 -54.834  1.00  0.00    -0.265 OA
HETATM    4  H   UNL     1     -40.744  54.824 -55.768  1.00  0.00     0.169 HD
ENDROOT
BRANCH   2   5
HETATM    5  C   UNL     1     -40.921  53.689 -54.035  1.00  0.00     0.035 A 
HETATM    6  C   UNL     1     -41.045  54.106 -52.706  1.00  0.00     0.042 A 
HETATM    7  C   UNL     1     -40.506  53.352 -51.648  1.00  0.00    -0.021 A 
HETATM    8  C   UNL     1     -39.835  52.159 -51.951  1.00  0.00     0.012 A 
HETATM    9  C   UNL     1     -39.714  51.729 -53.273  1.00  0.00     0.003 A 
HETATM   10  C   UNL     1     -40.255  52.490 -54.309  1.00  0.00     0.029 A 
BRANCH   7  11
HETATM   11  C   UNL     1     -40.639  53.822 -50.275  1.00  0.00     0.010 A 
HETATM   12  C   UNL     1     -41.113  55.055 -49.761  1.00  0.00     0.152 A 
HETATM   13  N   UNL     1     -41.087  55.109 -48.426  1.00  0.00    -0.187 NA
HETATM   14  N   UNL     1     -40.604  53.909 -48.076  1.00  0.00    -0.289 N 
HETATM   15  H   UNL     1     -40.495  53.706 -47.087  1.00  0.00     0.188 HD
HETATM   16  C   UNL     1     -40.320  53.103 -49.141  1.00  0.00     0.123 A 
ENDBRANCH   7  11
ENDBRANCH   2   5
BRANCH   1  17
HETATM   17  C   UNL     1     -42.867  55.501 -56.650  1.00  0.00     0.144 A 
HETATM   18  O   UNL     1     -43.479  54.996 -57.767  1.00  0.00    -0.309 OA
HETATM   19  C   UNL     1     -43.445  55.968 -58.722  1.00  0.00     0.060 A 
HETATM   20  C   UNL     1     -42.811  57.104 -58.245  1.00  0.00    -0.026 A 
HETATM   21  C   UNL     1     -42.455  56.795 -56.901  1.00  0.00     0.052 A 
BRANCH  19  22
HETATM   22  C   UNL     1     -44.068  55.622 -60.027  1.00  0.00     0.061 C 
HETATM   23  C   UNL     1     -44.856  54.325 -59.944  1.00  0.00     0.012 C 
ENDBRANCH  19  22
BRANCH  20  24
HETATM   24  C   UNL     1     -42.575  58.372 -59.004  1.00  0.00     0.036 C 
HETATM   25  C   UNL     1     -41.782  58.209 -60.292  1.00  0.00     0.010 C 
ENDBRANCH  20  24
ENDBRANCH   1  17
TORSDOF 5
ENDMDL
MODEL 2
REMARK VINA RESULT:      -8.0      2.614      8.738
REMARK  5 active torsions:
REMARK  status: ('A' for Active; 'I' for Inactive)
REMARK    1  A    between atoms: C_2  and  C_3 
REMARK    2  A    between atoms: C_4  and  C_5 
REMARK    3  A    between atoms: C_8  and  C_9 
REMARK       I    between atoms: C_9  and  N_10 
REMARK    4  A    between atoms: N_10  and  C_11 
REMARK    5  A    between atoms: C_13  and  C_14 
ROOT
HETATM    1  C   UNL     1     -42.485  54.728 -54.488  1.00  0.00     0.280 C 
HETATM    2  N   UNL     1     -41.971  55.202 -55.683  1.00  0.00    -0.321 N 
HETATM    3  O   UNL     1     -43.568  55.041 -54.006  1.00  0.00    -0.265 OA
HETATM    4  H   UNL     1     -41.063  54.820 -55.927  1.00  0.00     0.169 HD
ENDROOT
BRANCH   2   5
HETATM    5  C   UNL     1     -42.563  56.094 -56.597  1.00  0.00     0.035 A 
HETATM    6  C   UNL     1     -43.281  55.693 -57.729  1.00  0.00     0.042 A 
HETATM    7  C   UNL     1     -43.833  56.633 -58.618  1.00  0.00    -0.021 A 
HETATM    8  C   UNL     1     -43.651  57.996 -58.348  1.00  0.00     0.012 A 
HETATM    9  C   UNL     1     -42.945  58.408 -57.217  1.00  0.00     0.003 A 
HETATM   10  C   UNL     1     -42.405  57.461 -56.346  1.00  0.00     0.029 A 
BRANCH   7  11
HETATM   11  C   UNL     1     -44.562  56.181 -59.796  1.00  0.00     0.010 A 
HETATM   12  C   UNL     1     -44.322  55.093 -60.673  1.00  0.00     0.152 A 
HETATM   13  N   UNL     1     -45.228  54.999 -61.650  1.00  0.00    -0.187 NA
HETATM   14  N   UNL     1     -46.060  56.021 -61.401  1.00  0.00    -0.289 N 
HETATM   15  H   UNL     1     -46.852  56.156 -62.021  1.00  0.00     0.188 HD
HETATM   16  C   UNL     1     -45.708  56.758 -60.307  1.00  0.00     0.123 A 
ENDBRANCH   7  11
ENDBRANCH   2   5
BRANCH   1  17
HETATM   17  C   UNL     1     -41.604  53.775 -53.838  1.00  0.00     0.144 A 
HETATM   18  O   UNL     1     -41.381  53.864 -52.490  1.00  0.00    -0.309 OA
HETATM   19  C   UNL     1     -40.515  52.868 -52.155  1.00  0.00     0.060 A 
HETATM   20  C   UNL     1     -40.160  52.129 -53.273  1.00  0.00    -0.026 A 
HETATM   21  C   UNL     1     -40.882  52.717 -54.352  1.00  0.00     0.052 A 
BRANCH  19  22
HETATM   22  C   UNL     1     -40.140  52.783 -50.719  1.00  0.00     0.061 C 
HETATM   23  C   UNL     1     -39.822  54.153 -50.143  1.00  0.00     0.012 C 
ENDBRANCH  19  22
BRANCH  20  24
HETATM   24  C   UNL     1     -39.223  50.962 -53.304  1.00  0.00     0.036 C 
HETATM   25  C   UNL     1     -39.545  49.910 -54.355  1.00  0.00     0.010 C 
ENDBRANCH  20  24
ENDBRANCH   1  17
TORSDOF 5
ENDMDL
MODEL 3
REMARK VINA RESULT:      -7.9      2.120      3.030
REMARK  5 active torsions:
REMARK  status: ('A' for Active; 'I' for Inactive)
REMARK    1  A    between atoms: C_2  and  C_3 
REMARK    2  A    between atoms: C_4  and  C_5 
REMARK    3  A    between atoms: C_8  and  C_9 
REMARK       I    between atoms: C_9  and  N_10 
REMARK    4  A    between atoms: N_10  and  C_11 
REMARK    5  A    between atoms: C_13  and  C_14 
ROOT
HETATM    1  C   UNL     1     -42.600  54.876 -55.755  1.00  0.00     0.280 C 
HETATM    2  N   UNL     1     -41.526  55.174 -54.933  1.00  0.00    -0.321 N 
HETATM    3  O   UNL     1     -43.367  53.931 -55.608  1.00  0.00    -0.265 OA
HETATM    4  H   UNL     1     -41.010  56.004 -55.206  1.00  0.00     0.169 HD
ENDROOT
BRANCH   2   5
HETATM    5  C   UNL     1     -41.102  54.504 -53.770  1.00  0.00     0.035 A 
HETATM    6  C   UNL     1     -40.686  53.169 -53.744  1.00  0.00     0.042 A 
HETATM    7  C   UNL     1     -40.294  52.547 -52.544  1.00  0.00    -0.021 A 
HETATM    8  C   UNL     1     -40.324  53.298 -51.361  1.00  0.00     0.012 A 
HETATM    9  C   UNL     1     -40.728  54.633 -51.377  1.00  0.00     0.003 A 
HETATM   10  C   UNL     1     -41.114  55.233 -52.576  1.00  0.00     0.029 A 
BRANCH   7  11
HETATM   11  C   UNL     1     -39.880  51.150 -52.549  1.00  0.00     0.010 A 
HETATM   12  C   UNL     1     -39.703  50.240 -53.622  1.00  0.00     0.152 A 
HETATM   13  N   UNL     1     -39.303  49.030 -53.221  1.00  0.00    -0.187 NA
HETATM   14  N   UNL     1     -39.215  49.157 -51.890  1.00  0.00    -0.289 N 
HETATM   15  H   UNL     1     -38.918  48.351 -51.350  1.00  0.00     0.188 HD
HETATM   16  C   UNL     1     -39.548  50.402 -51.437  1.00  0.00     0.123 A 
ENDBRANCH   7  11
ENDBRANCH   2   5
BRANCH   1  17
HETATM   17  C   UNL     1     -42.757  55.829 -56.838  1.00  0.00     0.144 A 
HETATM   18  O   UNL     1     -43.269  55.415 -58.040  1.00  0.00    -0.309 OA
HETATM   19  C   UNL     1     -43.291  56.498 -58.866  1.00  0.00     0.060 A 
HETATM   20  C   UNL     1     -42.791  57.618 -58.221  1.00  0.00    -0.026 A 
HETATM   21  C   UNL     1     -42.463  57.175 -56.908  1.00  0.00     0.052 A 
BRANCH  19  22
HETATM   22  C   UNL     1     -43.821  56.263 -60.235  1.00  0.00     0.061 C 
HETATM   23  C   UNL     1     -44.562  54.940 -60.329  1.00  0.00     0.012 C 
ENDBRANCH  19  22
BRANCH  20  24
HETATM   24  C   UNL     1     -42.648  58.988 -58.807  1.00  0.00     0.036 C 
HETATM   25  C   UNL     1     -41.690  59.905 -58.063  1.00  0.00     0.010 C 
ENDBRANCH  20  24
ENDBRANCH   1  17
TORSDOF 5
ENDMDL
MODEL 4
REMARK VINA RESULT:      -7.9      2.557      8.562
REMARK  5 active torsions:
REMARK  status: ('A' for Active; 'I' for Inactive)
REMARK    1  A    between atoms: C_2  and  C_3 
REMARK    2  A    between atoms: C_4  and  C_5 
REMARK    3  A    between atoms: C_8  and  C_9 
REMARK       I    between atoms: C_9  and  N_10 
REMARK    4  A    between atoms: N_10  and  C_11 
REMARK    5  A    between atoms: C_13  and  C_14 
ROOT
HETATM    1  C   UNL     1     -42.702  54.767 -54.470  1.00  0.00     0.280 C 
HETATM    2  N   UNL     1     -42.075  55.532 -55.439  1.00  0.00    -0.321 N 
HETATM    3  O   UNL     1     -43.914  54.690 -54.299  1.00  0.00    -0.265 OA
HETATM    4  H   UNL     1     -41.063  55.459 -55.437  1.00  0.00     0.169 HD
ENDROOT
BRANCH   2   5
HETATM    5  C   UNL     1     -42.662  56.343 -56.429  1.00  0.00     0.035 A 
HETATM    6  C   UNL     1     -43.303  55.845 -57.569  1.00  0.00     0.042 A 
HETATM    7  C   UNL     1     -43.853  56.708 -58.535  1.00  0.00    -0.021 A 
HETATM    8  C   UNL     1     -43.750  58.091 -58.333  1.00  0.00     0.012 A 
HETATM    9  C   UNL     1     -43.121  58.597 -57.195  1.00  0.00     0.003 A 
HETATM   10  C   UNL     1     -42.581  57.728 -56.248  1.00  0.00     0.029 A 
BRANCH   7  11
HETATM   11  C   UNL     1     -44.500  56.157 -59.719  1.00  0.00     0.010 A 
HETATM   12  C   UNL     1     -44.203  55.001 -60.484  1.00  0.00     0.152 A 
HETATM   13  N   UNL     1     -45.040  54.823 -61.509  1.00  0.00    -0.187 NA
HETATM   14  N   UNL     1     -45.884  55.859 -61.405  1.00  0.00    -0.289 N 
HETATM   15  H   UNL     1     -46.631  55.940 -62.087  1.00  0.00     0.188 HD
HETATM   16  C   UNL     1     -45.606  56.686 -60.354  1.00  0.00     0.123 A 
ENDBRANCH   7  11
ENDBRANCH   2   5
BRANCH   1  17
HETATM   17  C   UNL     1     -41.765  54.017 -53.655  1.00  0.00     0.144 A 
HETATM   18  O   UNL     1     -41.083  52.960 -54.198  1.00  0.00    -0.309 OA
HETATM   19  C   UNL     1     -40.295  52.438 -53.217  1.00  0.00     0.060 A 
HETATM   20  C   UNL     1     -40.458  53.138 -52.032  1.00  0.00    -0.026 A 
HETATM   21  C   UNL     1     -41.399  54.164 -52.332  1.00  0.00     0.052 A 
BRANCH  19  22
HETATM   22  C   UNL     1     -39.460  51.270 -53.603  1.00  0.00     0.061 C 
HETATM   23  C   UNL     1     -40.266  50.236 -54.372  1.00  0.00     0.012 C 
ENDBRANCH  19  22
BRANCH  20  24
HETATM   24  C   UNL     1     -39.769  52.855 -50.734  1.00  0.00     0.036 C 
HETATM   25  C   UNL     1     -39.805  53.996 -49.728  1.00  0.00     0.010 C 
ENDBRANCH  20  24
ENDBRANCH   1  17
TORSDOF 5
ENDMDL
MODEL 5
REMARK VINA RESULT:      -7.7      0.898      2.223
REMARK  5 active torsions:
REMARK  status: ('A' for Active; 'I' for Inactive)
REMARK    1  A    between atoms: C_2  and  C_3 
REMARK    2  A    between atoms: C_4  and  C_5 
REMARK    3  A    between atoms: C_8  and  C_9 
REMARK       I    between atoms: C_9  and  N_10 
REMARK    4  A    between atoms: N_10  and  C_11 
REMARK    5  A    between atoms: C_13  and  C_14 
ROOT
HETATM    1  C   UNL     1     -42.604  55.184 -55.380  1.00  0.00     0.280 C 
HETATM    2  N   UNL     1     -41.431  54.459 -55.265  1.00  0.00    -0.321 N 
HETATM    3  O   UNL     1     -43.462  55.292 -54.510  1.00  0.00    -0.265 OA
HETATM    4  H   UNL     1     -40.835  54.497 -56.086  1.00  0.00     0.169 HD
ENDROOT
BRANCH   2   5
HETATM    5  C   UNL     1     -40.957  53.732 -54.157  1.00  0.00     0.035 A 
HETATM    6  C   UNL     1     -41.095  54.151 -52.829  1.00  0.00     0.042 A 
HETATM    7  C   UNL     1     -40.582  53.390 -51.763  1.00  0.00    -0.021 A 
HETATM    8  C   UNL     1     -39.923  52.188 -52.056  1.00  0.00     0.012 A 
HETATM    9  C   UNL     1     -39.787  51.756 -53.376  1.00  0.00     0.003 A 
HETATM   10  C   UNL     1     -40.303  52.524 -54.420  1.00  0.00     0.029 A 
BRANCH   7  11
HETATM   11  C   UNL     1     -40.730  53.862 -50.392  1.00  0.00     0.010 A 
HETATM   12  C   UNL     1     -40.532  53.194 -49.157  1.00  0.00     0.152 A 
HETATM   13  N   UNL     1     -40.766  53.975 -48.098  1.00  0.00    -0.187 NA
HETATM   14  N   UNL     1     -41.108  55.149 -48.647  1.00  0.00    -0.289 N 
HETATM   15  H   UNL     1     -41.332  55.921 -48.028  1.00  0.00     0.188 HD
HETATM   16  C   UNL     1     -41.102  55.135 -50.012  1.00  0.00     0.123 A 
ENDBRANCH   7  11
ENDBRANCH   2   5
BRANCH   1  17
HETATM   17  C   UNL     1     -42.729  55.849 -56.664  1.00  0.00     0.144 A 
HETATM   18  O   UNL     1     -42.294  57.141 -56.806  1.00  0.00    -0.309 OA
HETATM   19  C   UNL     1     -42.544  57.513 -58.093  1.00  0.00     0.060 A 
HETATM   20  C   UNL     1     -43.145  56.480 -58.796  1.00  0.00    -0.026 A 
HETATM   21  C   UNL     1     -43.246  55.406 -57.865  1.00  0.00     0.052 A 
BRANCH  19  22
HETATM   22  C   UNL     1     -42.141  58.895 -58.463  1.00  0.00     0.061 C 
HETATM   23  C   UNL     1     -41.972  59.776 -57.235  1.00  0.00     0.012 C 
ENDBRANCH  19  22
BRANCH  20  24
HETATM   24  C   UNL     1     -43.575  56.516 -60.229  1.00  0.00     0.036 C 
HETATM   25  C   UNL     1     -44.623  55.481 -60.608  1.00  0.00     0.010 C 
ENDBRANCH  20  24
ENDBRANCH   1  17
TORSDOF 5
ENDMDL
MODEL 6
REMARK VINA RESULT:      -7.4      2.362      3.706
REMARK  5 active torsions:
REMARK  status: ('A' for Active; 'I' for Inactive)
REMARK    1  A    between atoms: C_2  and  C_3 
REMARK    2  A    between atoms: C_4  and  C_5 
REMARK    3  A    between atoms: C_8  and  C_9 
REMARK       I    between atoms: C_9  and  N_10 
REMARK    4  A    between atoms: N_10  and  C_11 
REMARK    5  A    between atoms: C_13  and  C_14 
ROOT
HETATM    1  C   UNL     1     -42.735  55.338 -55.030  1.00  0.00     0.280 C 
HETATM    2  N   UNL     1     -41.494  55.328 -54.416  1.00  0.00    -0.321 N 
HETATM    3  O   UNL     1     -43.690  54.635 -54.716  1.00  0.00    -0.265 OA
HETATM    4  H   UNL     1     -40.831  55.989 -54.806  1.00  0.00     0.169 HD
ENDROOT
BRANCH   2   5
HETATM    5  C   UNL     1     -41.069  54.560 -53.315  1.00  0.00     0.035 A 
HETATM    6  C   UNL     1     -40.663  53.224 -53.404  1.00  0.00     0.042 A 
HETATM    7  C   UNL     1     -40.268  52.501 -52.264  1.00  0.00    -0.021 A 
HETATM    8  C   UNL     1     -40.286  53.149 -51.022  1.00  0.00     0.012 A 
HETATM    9  C   UNL     1     -40.680  54.484 -50.923  1.00  0.00     0.003 A 
HETATM   10  C   UNL     1     -41.069  55.185 -52.064  1.00  0.00     0.029 A 
BRANCH   7  11
HETATM   11  C   UNL     1     -39.864  51.106 -52.389  1.00  0.00     0.010 A 
HETATM   12  C   UNL     1     -39.690  50.292 -53.536  1.00  0.00     0.152 A 
HETATM   13  N   UNL     1     -39.301  49.048 -53.241  1.00  0.00    -0.187 NA
HETATM   14  N   UNL     1     -39.217  49.059 -51.903  1.00  0.00    -0.289 N 
HETATM   15  H   UNL     1     -38.928  48.207 -51.434  1.00  0.00     0.188 HD
HETATM   16  C   UNL     1     -39.542  50.262 -51.345  1.00  0.00     0.123 A 
ENDBRANCH   7  11
ENDBRANCH   2   5
BRANCH   1  17
HETATM   17  C   UNL     1     -42.819  56.306 -56.108  1.00  0.00     0.144 A 
HETATM   18  O   UNL     1     -42.769  57.646 -55.826  1.00  0.00    -0.309 OA
HETATM   19  C   UNL     1     -42.883  58.313 -57.008  1.00  0.00     0.060 A 
HETATM   20  C   UNL     1     -43.014  57.425 -58.064  1.00  0.00    -0.026 A 
HETATM   21  C   UNL     1     -42.957  56.131 -57.470  1.00  0.00     0.052 A 
BRANCH  19  22
HETATM   22  C   UNL     1     -42.848  59.798 -56.925  1.00  0.00     0.061 C 
HETATM   23  C   UNL     1     -42.261  60.270 -55.605  1.00  0.00     0.012 C 
ENDBRANCH  19  22
BRANCH  20  24
HETATM   24  C   UNL     1     -43.171  57.782 -59.508  1.00  0.00     0.036 C 
HETATM   25  C   UNL     1     -41.876  57.808 -60.306  1.00  0.00     0.010 C 
ENDBRANCH  20  24
ENDBRANCH   1  17
TORSDOF 5
ENDMDL
MODEL 7
REMARK VINA RESULT:      -7.3      4.573      7.780
REMARK  5 active torsions:
REMARK  status: ('A' for Active; 'I' for Inactive)
REMARK    1  A    between atoms: C_2  and  C_3 
REMARK    2  A    between atoms: C_4  and  C_5 
REMARK    3  A    between atoms: C_8  and  C_9 
REMARK       I    between atoms: C_9  and  N_10 
REMARK    4  A    between atoms: N_10  and  C_11 
REMARK    5  A    between atoms: C_13  and  C_14 
ROOT
HETATM    1  C   UNL     1     -41.187  55.447 -50.562  1.00  0.00     0.280 C 
HETATM    2  N   UNL     1     -41.144  56.561 -51.383  1.00  0.00    -0.321 N 
HETATM    3  O   UNL     1     -41.582  55.434 -49.401  1.00  0.00    -0.265 OA
HETATM    4  H   UNL     1     -40.797  56.376 -52.319  1.00  0.00     0.169 HD
ENDROOT
BRANCH   2   5
HETATM    5  C   UNL     1     -41.556  57.876 -51.096  1.00  0.00     0.035 A 
HETATM    6  C   UNL     1     -42.848  58.360 -51.327  1.00  0.00     0.042 A 
HETATM    7  C   UNL     1     -43.194  59.692 -51.037  1.00  0.00    -0.021 A 
HETATM    8  C   UNL     1     -42.212  60.538 -50.505  1.00  0.00     0.012 A 
HETATM    9  C   UNL     1     -40.923  60.064 -50.261  1.00  0.00     0.003 A 
HETATM   10  C   UNL     1     -40.597  58.739 -50.554  1.00  0.00     0.029 A 
BRANCH   7  11
HETATM   11  C   UNL     1     -44.546  60.169 -51.304  1.00  0.00     0.010 A 
HETATM   12  C   UNL     1     -45.486  59.779 -52.291  1.00  0.00     0.152 A 
HETATM   13  N   UNL     1     -46.637  60.453 -52.211  1.00  0.00    -0.187 NA
HETATM   14  N   UNL     1     -46.445  61.273 -51.168  1.00  0.00    -0.289 N 
HETATM   15  H   UNL     1     -47.200  61.897 -50.902  1.00  0.00     0.188 HD
HETATM   16  C   UNL     1     -45.214  61.144 -50.592  1.00  0.00     0.123 A 
ENDBRANCH   7  11
ENDBRANCH   2   5
BRANCH   1  17
HETATM   17  C   UNL     1     -40.723  54.243 -51.227  1.00  0.00     0.144 A 
HETATM   18  O   UNL     1     -40.812  54.141 -52.590  1.00  0.00    -0.309 OA
HETATM   19  C   UNL     1     -40.325  52.917 -52.937  1.00  0.00     0.060 A 
HETATM   20  C   UNL     1     -39.923  52.211 -51.814  1.00  0.00    -0.026 A 
HETATM   21  C   UNL     1     -40.173  53.085 -50.717  1.00  0.00     0.052 A 
BRANCH  19  22
HETATM   22  C   UNL     1     -40.328  52.601 -54.390  1.00  0.00     0.061 C 
HETATM   23  C   UNL     1     -40.272  53.863 -55.236  1.00  0.00     0.012 C 
ENDBRANCH  19  22
BRANCH  20  24
HETATM   24  C   UNL     1     -39.346  50.830 -51.794  1.00  0.00     0.036 C 
HETATM   25  C   UNL     1     -39.897  49.922 -50.706  1.00  0.00     0.010 C 
ENDBRANCH  20  24
ENDBRANCH   1  17
TORSDOF 5
ENDMDL
MODEL 8
REMARK VINA RESULT:      -7.2      4.900      7.732
REMARK  5 active torsions:
REMARK  status: ('A' for Active; 'I' for Inactive)
REMARK    1  A    between atoms: C_2  and  C_3 
REMARK    2  A    between atoms: C_4  and  C_5 
REMARK    3  A    between atoms: C_8  and  C_9 
REMARK       I    between atoms: C_9  and  N_10 
REMARK    4  A    between atoms: N_10  and  C_11 
REMARK    5  A    between atoms: C_13  and  C_14 
ROOT
HETATM    1  C   UNL     1     -41.012  55.149 -50.889  1.00  0.00     0.280 C 
HETATM    2  N   UNL     1     -41.112  56.277 -51.685  1.00  0.00    -0.321 N 
HETATM    3  O   UNL     1     -41.219  55.111 -49.681  1.00  0.00    -0.265 OA
HETATM    4  H   UNL     1     -40.915  56.113 -52.667  1.00  0.00     0.169 HD
ENDROOT
BRANCH   2   5
HETATM    5  C   UNL     1     -41.489  57.581 -51.311  1.00  0.00     0.035 A 
HETATM    6  C   UNL     1     -42.789  58.084 -51.429  1.00  0.00     0.042 A 
HETATM    7  C   UNL     1     -43.101  59.404 -51.057  1.00  0.00    -0.021 A 
HETATM    8  C   UNL     1     -42.075  60.218 -50.558  1.00  0.00     0.012 A 
HETATM    9  C   UNL     1     -40.777  59.724 -50.428  1.00  0.00     0.003 A 
HETATM   10  C   UNL     1     -40.486  58.412 -50.801  1.00  0.00     0.029 A 
BRANCH   7  11
HETATM   11  C   UNL     1     -44.463  59.902 -51.207  1.00  0.00     0.010 A 
HETATM   12  C   UNL     1     -45.321  60.542 -50.278  1.00  0.00     0.152 A 
HETATM   13  N   UNL     1     -46.510  60.859 -50.798  1.00  0.00    -0.187 NA
HETATM   14  N   UNL     1     -46.419  60.431 -52.065  1.00  0.00    -0.289 N 
HETATM   15  H   UNL     1     -47.217  60.569 -52.676  1.00  0.00     0.188 HD
HETATM   16  C   UNL     1     -45.218  59.853 -52.360  1.00  0.00     0.123 A 
ENDBRANCH   7  11
ENDBRANCH   2   5
BRANCH   1  17
HETATM   17  C   UNL     1     -40.644  53.964 -51.641  1.00  0.00     0.144 A 
HETATM   18  O   UNL     1     -40.037  52.914 -51.003  1.00  0.00    -0.309 OA
HETATM   19  C   UNL     1     -39.793  51.956 -51.941  1.00  0.00     0.060 A 
HETATM   20  C   UNL     1     -40.229  52.369 -53.190  1.00  0.00    -0.026 A 
HETATM   21  C   UNL     1     -40.788  53.662 -52.980  1.00  0.00     0.052 A 
BRANCH  19  22
HETATM   22  C   UNL     1     -39.134  50.716 -51.451  1.00  0.00     0.061 C 
HETATM   23  C   UNL     1     -40.042  49.931 -50.519  1.00  0.00     0.012 C 
ENDBRANCH  19  22
BRANCH  20  24
HETATM   24  C   UNL     1     -40.125  51.594 -54.466  1.00  0.00     0.036 C 
HETATM   25  C   UNL     1     -40.388  50.102 -54.331  1.00  0.00     0.010 C 
ENDBRANCH  20  24
ENDBRANCH   1  17
TORSDOF 5
ENDMDL
MODEL 9
REMARK VINA RESULT:      -7.2      2.947      8.562
REMARK  5 active torsions:
REMARK  status: ('A' for Active; 'I' for Inactive)
REMARK    1  A    between atoms: C_2  and  C_3 
REMARK    2  A    between atoms: C_4  and  C_5 
REMARK    3  A    between atoms: C_8  and  C_9 
REMARK       I    between atoms: C_9  and  N_10 
REMARK    4  A    between atoms: N_10  and  C_11 
REMARK    5  A    between atoms: C_13  and  C_14 
ROOT
HETATM    1  C   UNL     1     -41.331  55.343 -54.398  1.00  0.00     0.280 C 
HETATM    2  N   UNL     1     -42.646  55.259 -54.823  1.00  0.00    -0.321 N 
HETATM    3  O   UNL     1     -40.617  56.336 -54.488  1.00  0.00    -0.265 OA
HETATM    4  H   UNL     1     -43.081  54.358 -54.656  1.00  0.00     0.169 HD
ENDROOT
BRANCH   2   5
HETATM    5  C   UNL     1     -43.443  56.263 -55.405  1.00  0.00     0.035 A 
HETATM    6  C   UNL     1     -43.336  56.672 -56.739  1.00  0.00     0.042 A 
HETATM    7  C   UNL     1     -44.148  57.696 -57.258  1.00  0.00    -0.021 A 
HETATM    8  C   UNL     1     -45.080  58.307 -56.408  1.00  0.00     0.012 A 
HETATM    9  C   UNL     1     -45.202  57.900 -55.079  1.00  0.00     0.003 A 
HETATM   10  C   UNL     1     -44.388  56.883 -54.581  1.00  0.00     0.029 A 
BRANCH   7  11
HETATM   11  C   UNL     1     -44.001  58.110 -58.648  1.00  0.00     0.010 A 
HETATM   12  C   UNL     1     -42.914  58.724 -59.321  1.00  0.00     0.152 A 
HETATM   13  N   UNL     1     -43.159  58.946 -60.615  1.00  0.00    -0.187 NA
HETATM   14  N   UNL     1     -44.401  58.469 -60.782  1.00  0.00    -0.289 N 
HETATM   15  H   UNL     1     -44.815  58.522 -61.708  1.00  0.00     0.188 HD
HETATM   16  C   UNL     1     -44.948  57.959 -59.640  1.00  0.00     0.123 A 
ENDBRANCH   7  11
ENDBRANCH   2   5
BRANCH   1  17
HETATM   17  C   UNL     1     -40.857  54.111 -53.797  1.00  0.00     0.144 A 
HETATM   18  O   UNL     1     -40.775  54.007 -52.433  1.00  0.00    -0.309 OA
HETATM   19  C   UNL     1     -40.291  52.765 -52.150  1.00  0.00     0.060 A 
HETATM   20  C   UNL     1     -40.047  52.054 -53.315  1.00  0.00    -0.026 A 
HETATM   21  C   UNL     1     -40.430  52.930 -54.371  1.00  0.00     0.052 A 
BRANCH  19  22
HETATM   22  C   UNL     1     -40.127  52.442 -50.707  1.00  0.00     0.061 C 
HETATM   23  C   UNL     1     -40.017  53.700 -49.862  1.00  0.00     0.012 C 
ENDBRANCH  19  22
BRANCH  20  24
HETATM   24  C   UNL     1     -39.505  50.663 -53.407  1.00  0.00     0.036 C 
HETATM   25  C   UNL     1     -39.877  49.914 -54.678  1.00  0.00     0.010 C 
ENDBRANCH  20  24
ENDBRANCH   1  17
TORSDOF 5
ENDMDL
MODEL 10
REMARK VINA RESULT:      -7.1      2.972      8.694
REMARK  5 active torsions:
REMARK  status: ('A' for Active; 'I' for Inactive)
REMARK    1  A    between atoms: C_2  and  C_3 
REMARK    2  A    between atoms: C_4  and  C_5 
REMARK    3  A    between atoms: C_8  and  C_9 
REMARK       I    between atoms: C_9  and  N_10 
REMARK    4  A    between atoms: N_10  and  C_11 
REMARK    5  A    between atoms: C_13  and  C_14 
ROOT
HETATM    1  C   UNL     1     -42.639  55.660 -55.647  1.00  0.00     0.280 C 
HETATM    2  N   UNL     1     -42.167  55.593 -56.947  1.00  0.00    -0.321 N 
HETATM    3  O   UNL     1     -43.554  56.379 -55.259  1.00  0.00    -0.265 OA
HETATM    4  H   UNL     1     -41.409  54.931 -57.081  1.00  0.00     0.169 HD
ENDROOT
BRANCH   2   5
HETATM    5  C   UNL     1     -42.630  56.283 -58.083  1.00  0.00     0.035 A 
HETATM    6  C   UNL     1     -42.179  57.551 -58.465  1.00  0.00     0.042 A 
HETATM    7  C   UNL     1     -42.696  58.201 -59.601  1.00  0.00    -0.021 A 
HETATM    8  C   UNL     1     -43.679  57.547 -60.355  1.00  0.00     0.012 A 
HETATM    9  C   UNL     1     -44.129  56.278 -59.988  1.00  0.00     0.003 A 
HETATM   10  C   UNL     1     -43.606  55.650 -58.859  1.00  0.00     0.029 A 
BRANCH   7  11
HETATM   11  C   UNL     1     -42.216  59.528 -59.963  1.00  0.00     0.010 A 
HETATM   12  C   UNL     1     -41.828  60.625 -59.153  1.00  0.00     0.152 A 
HETATM   13  N   UNL     1     -41.435  61.686 -59.863  1.00  0.00    -0.187 NA
HETATM   14  N   UNL     1     -41.561  61.275 -61.132  1.00  0.00    -0.289 N 
HETATM   15  H   UNL     1     -41.311  61.921 -61.873  1.00  0.00     0.188 HD
HETATM   16  C   UNL     1     -42.023  59.995 -61.248  1.00  0.00     0.123 A 
ENDBRANCH   7  11
ENDBRANCH   2   5
BRANCH   1  17
HETATM   17  C   UNL     1     -41.941  54.758 -54.750  1.00  0.00     0.144 A 
HETATM   18  O   UNL     1     -41.971  54.983 -53.399  1.00  0.00    -0.309 OA
HETATM   19  C   UNL     1     -41.231  54.004 -52.808  1.00  0.00     0.060 A 
HETATM   20  C   UNL     1     -40.709  53.141 -53.759  1.00  0.00    -0.026 A 
HETATM   21  C   UNL     1     -41.187  53.631 -55.008  1.00  0.00     0.052 A 
BRANCH  19  22
HETATM   22  C   UNL     1     -41.136  54.062 -51.325  1.00  0.00     0.061 C 
HETATM   23  C   UNL     1     -42.499  54.267 -50.686  1.00  0.00     0.012 C 
ENDBRANCH  19  22
BRANCH  20  24
HETATM   24  C   UNL     1     -39.840  51.952 -53.494  1.00  0.00     0.036 C 
HETATM   25  C   UNL     1     -40.147  50.731 -54.349  1.00  0.00     0.010 C 
ENDBRANCH  20  24
ENDBRANCH   1  17
TORSDOF 5
ENDMDL
