MODEL 1
REMARK VINA RESULT:      -7.5      0.000      0.000
REMARK  2 active torsions:
REMARK  status: ('A' for Active; 'I' for Inactive)
REMARK    1  A    between atoms: C_8  and  S_9 
REMARK    2  A    between atoms: S_9  and  C_10 
ROOT
HETATM    1  C   UNL     1     -39.874  50.586 -54.330  1.00  0.00     0.002 A 
HETATM    2  C   UNL     1     -40.385  51.866 -54.104  1.00  0.00     0.034 A 
HETATM    3  C   UNL     1     -40.481  52.386 -52.819  1.00  0.00     0.087 A 
HETATM    4  C   UNL     1     -40.045  51.597 -51.720  1.00  0.00     0.087 A 
HETATM    5  N   UNL     1     -40.117  52.054 -50.454  1.00  0.00    -0.231 NA
HETATM    6  C   UNL     1     -40.602  53.299 -50.270  1.00  0.00     0.167 A 
HETATM    7 CL   UNL     1     -40.686  53.769 -48.627  1.00  0.00    -0.059 Cl
HETATM    8  C   UNL     1     -41.018  54.053 -51.341  1.00  0.00     0.193 A 
HETATM    9  N   UNL     1     -40.987  53.627 -52.636  1.00  0.00    -0.232 NA
HETATM   10  C   UNL     1     -39.540  50.326 -51.961  1.00  0.00     0.034 A 
HETATM   11  C   UNL     1     -39.452  49.815 -53.255  1.00  0.00     0.002 A 
ENDROOT
BRANCH   8  12
HETATM   12  S   UNL     1     -41.677  55.667 -51.126  1.00  0.00     0.201 S 
HETATM   13  O   UNL     1     -42.990  55.531 -50.509  1.00  0.00    -0.221 OA
HETATM   14  O   UNL     1     -40.647  56.498 -50.540  1.00  0.00    -0.221 OA
BRANCH  12  15
HETATM   15  C   UNL     1     -42.000  56.302 -52.769  1.00  0.00     0.141 C 
HETATM   16  C   UNL     1     -43.454  56.028 -53.151  1.00  0.00     0.252 C 
HETATM   17  N   UNL     1     -44.393  56.937 -52.405  1.00  0.00    -0.074 N 
HETATM   18  H   UNL     1     -44.324  56.714 -51.388  1.00  0.00     0.277 HD
HETATM   19  H   UNL     1     -45.369  56.724 -52.657  1.00  0.00     0.277 HD
HETATM   20  C   UNL     1     -44.133  58.392 -52.594  1.00  0.00     0.232 C 
HETATM   21  C   UNL     1     -42.706  58.699 -52.169  1.00  0.00     0.029 C 
HETATM   22  C   UNL     1     -41.688  57.805 -52.881  1.00  0.00     0.024 C 
ENDBRANCH  12  15
ENDBRANCH   8  12
TORSDOF 2
ENDMDL
MODEL 2
REMARK VINA RESULT:      -7.3      1.264      1.530
REMARK  2 active torsions:
REMARK  status: ('A' for Active; 'I' for Inactive)
REMARK    1  A    between atoms: C_8  and  S_9 
REMARK    2  A    between atoms: S_9  and  C_10 
ROOT
HETATM    1  C   UNL     1     -39.795  50.061 -54.160  1.00  0.00     0.002 A 
HETATM    2  C   UNL     1     -40.256  51.369 -54.322  1.00  0.00     0.034 A 
HETATM    3  C   UNL     1     -40.355  52.237 -53.242  1.00  0.00     0.087 A 
HETATM    4  C   UNL     1     -39.973  51.779 -51.951  1.00  0.00     0.087 A 
HETATM    5  N   UNL     1     -40.050  52.579 -50.869  1.00  0.00    -0.231 NA
HETATM    6  C   UNL     1     -40.487  53.841 -51.060  1.00  0.00     0.167 A 
HETATM    7 CL   UNL     1     -40.582  54.762 -49.622  1.00  0.00    -0.059 Cl
HETATM    8  C   UNL     1     -40.851  54.273 -52.314  1.00  0.00     0.193 A 
HETATM    9  N   UNL     1     -40.813  53.495 -53.433  1.00  0.00    -0.232 NA
HETATM   10  C   UNL     1     -39.517  50.475 -51.806  1.00  0.00     0.034 A 
HETATM   11  C   UNL     1     -39.426  49.614 -52.899  1.00  0.00     0.002 A 
ENDROOT
BRANCH   8  12
HETATM   12  S   UNL     1     -41.446  55.903 -52.585  1.00  0.00     0.201 S 
HETATM   13  O   UNL     1     -41.019  56.724 -51.459  1.00  0.00    -0.221 OA
HETATM   14  O   UNL     1     -41.141  56.271 -53.950  1.00  0.00    -0.221 OA
BRANCH  12  15
HETATM   15  C   UNL     1     -43.230  55.817 -52.445  1.00  0.00     0.141 C 
HETATM   16  C   UNL     1     -43.656  56.206 -51.030  1.00  0.00     0.252 C 
HETATM   17  N   UNL     1     -43.517  57.687 -50.807  1.00  0.00    -0.074 N 
HETATM   18  H   UNL     1     -42.505  57.934 -50.873  1.00  0.00     0.277 HD
HETATM   19  H   UNL     1     -43.786  57.929 -49.843  1.00  0.00     0.277 HD
HETATM   20  C   UNL     1     -44.277  58.536 -51.768  1.00  0.00     0.232 C 
HETATM   21  C   UNL     1     -43.832  58.204 -53.183  1.00  0.00     0.029 C 
HETATM   22  C   UNL     1     -43.937  56.706 -53.483  1.00  0.00     0.024 C 
ENDBRANCH  12  15
ENDBRANCH   8  12
TORSDOF 2
ENDMDL
MODEL 3
REMARK VINA RESULT:      -7.2      1.597      1.702
REMARK  2 active torsions:
REMARK  status: ('A' for Active; 'I' for Inactive)
REMARK    1  A    between atoms: C_8  and  S_9 
REMARK    2  A    between atoms: S_9  and  C_10 
ROOT
HETATM    1  C   UNL     1     -39.737  50.875 -53.884  1.00  0.00     0.002 A 
HETATM    2  C   UNL     1     -40.346  52.108 -54.128  1.00  0.00     0.034 A 
HETATM    3  C   UNL     1     -40.595  53.005 -53.096  1.00  0.00     0.087 A 
HETATM    4  C   UNL     1     -40.215  52.655 -51.772  1.00  0.00     0.087 A 
HETATM    5  N   UNL     1     -40.434  53.488 -50.734  1.00  0.00    -0.231 NA
HETATM    6  C   UNL     1     -41.012  54.677 -51.004  1.00  0.00     0.167 A 
HETATM    7 CL   UNL     1     -41.279  55.643 -49.618  1.00  0.00    -0.059 Cl
HETATM    8  C   UNL     1     -41.372  55.005 -52.290  1.00  0.00     0.193 A 
HETATM    9  N   UNL     1     -41.193  54.187 -53.367  1.00  0.00    -0.232 NA
HETATM   10  C   UNL     1     -39.612  51.426 -51.545  1.00  0.00     0.034 A 
HETATM   11  C   UNL     1     -39.370  50.534 -52.590  1.00  0.00     0.002 A 
ENDROOT
BRANCH   8  12
HETATM   12  S   UNL     1     -42.148  56.535 -52.664  1.00  0.00     0.201 S 
HETATM   13  O   UNL     1     -43.469  56.524 -52.048  1.00  0.00    -0.221 OA
HETATM   14  O   UNL     1     -41.199  57.595 -52.402  1.00  0.00    -0.221 OA
BRANCH  12  15
HETATM   15  C   UNL     1     -42.458  56.525 -54.427  1.00  0.00     0.141 C 
HETATM   16  C   UNL     1     -43.735  55.740 -54.722  1.00  0.00     0.252 C 
HETATM   17  N   UNL     1     -44.958  56.517 -54.316  1.00  0.00    -0.074 N 
HETATM   18  H   UNL     1     -44.938  56.641 -53.280  1.00  0.00     0.277 HD
HETATM   19  H   UNL     1     -45.808  55.965 -54.500  1.00  0.00     0.277 HD
HETATM   20  C   UNL     1     -45.083  57.858 -54.954  1.00  0.00     0.232 C 
HETATM   21  C   UNL     1     -43.845  58.679 -54.630  1.00  0.00     0.029 C 
HETATM   22  C   UNL     1     -42.555  57.946 -55.008  1.00  0.00     0.024 C 
ENDBRANCH  12  15
ENDBRANCH   8  12
TORSDOF 2
ENDMDL
MODEL 4
REMARK VINA RESULT:      -7.1      1.580      1.885
REMARK  2 active torsions:
REMARK  status: ('A' for Active; 'I' for Inactive)
REMARK    1  A    between atoms: C_8  and  S_9 
REMARK    2  A    between atoms: S_9  and  C_10 
ROOT
HETATM    1  C   UNL     1     -40.107  50.837 -54.338  1.00  0.00     0.002 A 
HETATM    2  C   UNL     1     -40.759  52.072 -54.332  1.00  0.00     0.034 A 
HETATM    3  C   UNL     1     -40.788  52.866 -53.193  1.00  0.00     0.087 A 
HETATM    4  C   UNL     1     -40.135  52.408 -52.016  1.00  0.00     0.087 A 
HETATM    5  N   UNL     1     -40.133  53.139 -50.882  1.00  0.00    -0.231 NA
HETATM    6  C   UNL     1     -40.760  54.333 -50.913  1.00  0.00     0.167 A 
HETATM    7 CL   UNL     1     -40.731  55.163 -49.418  1.00  0.00    -0.059 Cl
HETATM    8  C   UNL     1     -41.385  54.766 -52.058  1.00  0.00     0.193 A 
HETATM    9  N   UNL     1     -41.435  54.053 -53.220  1.00  0.00    -0.232 NA
HETATM   10  C   UNL     1     -39.491  51.178 -52.037  1.00  0.00     0.034 A 
HETATM   11  C   UNL     1     -39.472  50.390 -53.187  1.00  0.00     0.002 A 
ENDROOT
BRANCH   8  12
HETATM   12  S   UNL     1     -42.230  56.304 -52.115  1.00  0.00     0.201 S 
HETATM   13  O   UNL     1     -42.705  56.498 -53.479  1.00  0.00    -0.221 OA
HETATM   14  O   UNL     1     -43.129  56.365 -50.984  1.00  0.00    -0.221 OA
BRANCH  12  15
HETATM   15  C   UNL     1     -40.987  57.571 -51.874  1.00  0.00     0.141 C 
HETATM   16  C   UNL     1     -40.632  58.209 -53.216  1.00  0.00     0.252 C 
HETATM   17  N   UNL     1     -41.735  59.111 -53.698  1.00  0.00    -0.074 N 
HETATM   18  H   UNL     1     -42.580  58.527 -53.879  1.00  0.00     0.277 HD
HETATM   19  H   UNL     1     -41.491  59.515 -54.613  1.00  0.00     0.277 HD
HETATM   20  C   UNL     1     -42.106  60.202 -52.752  1.00  0.00     0.232 C 
HETATM   21  C   UNL     1     -42.514  59.588 -51.422  1.00  0.00     0.029 C 
HETATM   22  C   UNL     1     -41.441  58.645 -50.870  1.00  0.00     0.024 C 
ENDBRANCH  12  15
ENDBRANCH   8  12
TORSDOF 2
ENDMDL
MODEL 5
REMARK VINA RESULT:      -7.1      2.080      2.662
REMARK  2 active torsions:
REMARK  status: ('A' for Active; 'I' for Inactive)
REMARK    1  A    between atoms: C_8  and  S_9 
REMARK    2  A    between atoms: S_9  and  C_10 
ROOT
HETATM    1  C   UNL     1     -39.453  49.932 -51.251  1.00  0.00     0.002 A 
HETATM    2  C   UNL     1     -39.833  51.253 -51.007  1.00  0.00     0.034 A 
HETATM    3  C   UNL     1     -40.171  52.109 -52.048  1.00  0.00     0.087 A 
HETATM    4  C   UNL     1     -40.132  51.621 -53.383  1.00  0.00     0.087 A 
HETATM    5  N   UNL     1     -40.450  52.409 -54.430  1.00  0.00    -0.231 NA
HETATM    6  C   UNL     1     -40.825  53.677 -54.161  1.00  0.00     0.167 A 
HETATM    7 CL   UNL     1     -41.172  54.603 -55.556  1.00  0.00    -0.059 Cl
HETATM    8  C   UNL     1     -40.862  54.136 -52.865  1.00  0.00     0.193 A 
HETATM    9  N   UNL     1     -40.528  53.385 -51.777  1.00  0.00    -0.232 NA
HETATM   10  C   UNL     1     -39.752  50.305 -53.610  1.00  0.00     0.034 A 
HETATM   11  C   UNL     1     -39.413  49.458 -52.555  1.00  0.00     0.002 A 
ENDROOT
BRANCH   8  12
HETATM   12  S   UNL     1     -41.323  55.788 -52.491  1.00  0.00     0.201 S 
HETATM   13  O   UNL     1     -41.063  56.011 -51.074  1.00  0.00    -0.221 OA
HETATM   14  O   UNL     1     -40.765  56.652 -53.508  1.00  0.00    -0.221 OA
BRANCH  12  15
HETATM   15  C   UNL     1     -43.105  55.863 -52.652  1.00  0.00     0.141 C 
HETATM   16  C   UNL     1     -43.745  55.975 -51.269  1.00  0.00     0.252 C 
HETATM   17  N   UNL     1     -43.546  57.348 -50.686  1.00  0.00    -0.074 N 
HETATM   18  H   UNL     1     -42.524  57.494 -50.536  1.00  0.00     0.277 HD
HETATM   19  H   UNL     1     -43.963  57.399 -49.746  1.00  0.00     0.277 HD
HETATM   20  C   UNL     1     -44.068  58.462 -51.527  1.00  0.00     0.232 C 
HETATM   21  C   UNL     1     -43.406  58.404 -52.895  1.00  0.00     0.029 C 
HETATM   22  C   UNL     1     -43.558  57.028 -53.549  1.00  0.00     0.024 C 
ENDBRANCH  12  15
ENDBRANCH   8  12
TORSDOF 2
ENDMDL
MODEL 6
REMARK VINA RESULT:      -7.1      2.134      2.863
REMARK  2 active torsions:
REMARK  status: ('A' for Active; 'I' for Inactive)
REMARK    1  A    between atoms: C_8  and  S_9 
REMARK    2  A    between atoms: S_9  and  C_10 
ROOT
HETATM    1  C   UNL     1     -39.300  51.150 -52.608  1.00  0.00     0.002 A 
HETATM    2  C   UNL     1     -39.643  52.265 -51.840  1.00  0.00     0.034 A 
HETATM    3  C   UNL     1     -40.574  53.192 -52.292  1.00  0.00     0.087 A 
HETATM    4  C   UNL     1     -41.187  52.993 -53.559  1.00  0.00     0.087 A 
HETATM    5  N   UNL     1     -42.096  53.862 -54.045  1.00  0.00    -0.231 NA
HETATM    6  C   UNL     1     -42.415  54.922 -53.273  1.00  0.00     0.167 A 
HETATM    7 CL   UNL     1     -43.548  55.982 -53.994  1.00  0.00    -0.059 Cl
HETATM    8  C   UNL     1     -41.817  55.102 -52.049  1.00  0.00     0.193 A 
HETATM    9  N   UNL     1     -40.877  54.264 -51.525  1.00  0.00    -0.232 NA
HETATM   10  C   UNL     1     -40.836  51.880 -54.311  1.00  0.00     0.034 A 
HETATM   11  C   UNL     1     -39.898  50.958 -53.846  1.00  0.00     0.002 A 
ENDROOT
BRANCH   8  12
HETATM   12  S   UNL     1     -42.197  56.486 -51.037  1.00  0.00     0.201 S 
HETATM   13  O   UNL     1     -43.643  56.522 -50.860  1.00  0.00    -0.221 OA
HETATM   14  O   UNL     1     -41.295  56.476 -49.906  1.00  0.00    -0.221 OA
BRANCH  12  15
HETATM   15  C   UNL     1     -41.812  57.941 -52.008  1.00  0.00     0.141 C 
HETATM   16  C   UNL     1     -43.001  58.901 -51.993  1.00  0.00     0.252 C 
HETATM   17  N   UNL     1     -43.129  59.588 -50.660  1.00  0.00    -0.074 N 
HETATM   18  H   UNL     1     -43.343  58.864 -49.939  1.00  0.00     0.277 HD
HETATM   19  H   UNL     1     -43.947  60.213 -50.659  1.00  0.00     0.277 HD
HETATM   20  C   UNL     1     -41.918  60.344 -50.231  1.00  0.00     0.232 C 
HETATM   21  C   UNL     1     -40.730  59.397 -50.188  1.00  0.00     0.029 C 
HETATM   22  C   UNL     1     -40.541  58.651 -51.511  1.00  0.00     0.024 C 
ENDBRANCH  12  15
ENDBRANCH   8  12
TORSDOF 2
ENDMDL
MODEL 7
REMARK VINA RESULT:      -6.8      2.747      3.560
REMARK  2 active torsions:
REMARK  status: ('A' for Active; 'I' for Inactive)
REMARK    1  A    between atoms: C_8  and  S_9 
REMARK    2  A    between atoms: S_9  and  C_10 
ROOT
HETATM    1  C   UNL     1     -39.640  51.705 -51.763  1.00  0.00     0.002 A 
HETATM    2  C   UNL     1     -40.361  52.891 -51.607  1.00  0.00     0.034 A 
HETATM    3  C   UNL     1     -40.910  53.549 -52.700  1.00  0.00     0.087 A 
HETATM    4  C   UNL     1     -40.735  52.996 -53.998  1.00  0.00     0.087 A 
HETATM    5  N   UNL     1     -41.246  53.595 -55.093  1.00  0.00    -0.231 NA
HETATM    6  C   UNL     1     -41.948  54.732 -54.908  1.00  0.00     0.167 A 
HETATM    7 CL   UNL     1     -42.522  55.430 -56.359  1.00  0.00    -0.059 Cl
HETATM    8  C   UNL     1     -42.113  55.255 -53.647  1.00  0.00     0.193 A 
HETATM    9  N   UNL     1     -41.596  54.700 -52.514  1.00  0.00    -0.232 NA
HETATM   10  C   UNL     1     -40.015  51.817 -54.138  1.00  0.00     0.034 A 
HETATM   11  C   UNL     1     -39.467  51.168 -53.032  1.00  0.00     0.002 A 
ENDROOT
BRANCH   8  12
HETATM   12  S   UNL     1     -43.001  56.747 -53.382  1.00  0.00     0.201 S 
HETATM   13  O   UNL     1     -42.169  57.847 -53.852  1.00  0.00    -0.221 OA
HETATM   14  O   UNL     1     -44.352  56.557 -53.866  1.00  0.00    -0.221 OA
BRANCH  12  15
HETATM   15  C   UNL     1     -43.100  56.966 -51.607  1.00  0.00     0.141 C 
HETATM   16  C   UNL     1     -42.110  58.042 -51.165  1.00  0.00     0.252 C 
HETATM   17  N   UNL     1     -42.587  59.414 -51.555  1.00  0.00    -0.074 N 
HETATM   18  H   UNL     1     -42.612  59.468 -52.596  1.00  0.00     0.277 HD
HETATM   19  H   UNL     1     -41.898  60.125 -51.269  1.00  0.00     0.277 HD
HETATM   20  C   UNL     1     -43.932  59.779 -51.026  1.00  0.00     0.232 C 
HETATM   21  C   UNL     1     -44.946  58.750 -51.499  1.00  0.00     0.029 C 
HETATM   22  C   UNL     1     -44.523  57.322 -51.145  1.00  0.00     0.024 C 
ENDBRANCH  12  15
ENDBRANCH   8  12
TORSDOF 2
ENDMDL
MODEL 8
REMARK VINA RESULT:      -6.4      2.800      3.666
REMARK  2 active torsions:
REMARK  status: ('A' for Active; 'I' for Inactive)
REMARK    1  A    between atoms: C_8  and  S_9 
REMARK    2  A    between atoms: S_9  and  C_10 
ROOT
HETATM    1  C   UNL     1     -40.225  52.648 -54.547  1.00  0.00     0.002 A 
HETATM    2  C   UNL     1     -40.540  53.956 -54.922  1.00  0.00     0.034 A 
HETATM    3  C   UNL     1     -40.835  54.926 -53.973  1.00  0.00     0.087 A 
HETATM    4  C   UNL     1     -40.808  54.574 -52.595  1.00  0.00     0.087 A 
HETATM    5  N   UNL     1     -41.087  55.477 -51.633  1.00  0.00    -0.231 NA
HETATM    6  C   UNL     1     -41.375  56.735 -52.027  1.00  0.00     0.167 A 
HETATM    7 CL   UNL     1     -41.749  57.791 -50.735  1.00  0.00    -0.059 Cl
HETATM    8  C   UNL     1     -41.395  57.063 -53.362  1.00  0.00     0.193 A 
HETATM    9  N   UNL     1     -41.143  56.180 -54.371  1.00  0.00    -0.232 NA
HETATM   10  C   UNL     1     -40.494  53.270 -52.238  1.00  0.00     0.034 A 
HETATM   11  C   UNL     1     -40.202  52.305 -53.202  1.00  0.00     0.002 A 
ENDROOT
BRANCH   8  12
HETATM   12  S   UNL     1     -41.791  58.686 -53.901  1.00  0.00     0.201 S 
HETATM   13  O   UNL     1     -40.947  59.617 -53.162  1.00  0.00    -0.221 OA
HETATM   14  O   UNL     1     -41.829  58.682 -55.347  1.00  0.00    -0.221 OA
BRANCH  12  15
HETATM   15  C   UNL     1     -43.456  59.015 -53.328  1.00  0.00     0.141 C 
HETATM   16  C   UNL     1     -44.062  60.162 -54.135  1.00  0.00     0.252 C 
HETATM   17  N   UNL     1     -44.421  59.719 -55.527  1.00  0.00    -0.074 N 
HETATM   18  H   UNL     1     -43.542  59.460 -56.025  1.00  0.00     0.277 HD
HETATM   19  H   UNL     1     -44.807  60.509 -56.064  1.00  0.00     0.277 HD
HETATM   20  C   UNL     1     -45.361  58.564 -55.589  1.00  0.00     0.232 C 
HETATM   21  C   UNL     1     -44.755  57.390 -54.837  1.00  0.00     0.029 C 
HETATM   22  C   UNL     1     -44.354  57.768 -53.409  1.00  0.00     0.024 C 
ENDBRANCH  12  15
ENDBRANCH   8  12
TORSDOF 2
ENDMDL
MODEL 9
REMARK VINA RESULT:      -6.3      4.522      6.954
REMARK  2 active torsions:
REMARK  status: ('A' for Active; 'I' for Inactive)
REMARK    1  A    between atoms: C_8  and  S_9 
REMARK    2  A    between atoms: S_9  and  C_10 
ROOT
HETATM    1  C   UNL     1     -42.946  56.899 -60.335  1.00  0.00     0.002 A 
HETATM    2  C   UNL     1     -43.099  56.173 -59.152  1.00  0.00     0.034 A 
HETATM    3  C   UNL     1     -42.860  56.756 -57.914  1.00  0.00     0.087 A 
HETATM    4  C   UNL     1     -42.458  58.119 -57.859  1.00  0.00     0.087 A 
HETATM    5  N   UNL     1     -42.212  58.733 -56.684  1.00  0.00    -0.231 NA
HETATM    6  C   UNL     1     -42.381  58.008 -55.558  1.00  0.00     0.167 A 
HETATM    7 CL   UNL     1     -42.010  58.866 -54.126  1.00  0.00    -0.059 Cl
HETATM    8  C   UNL     1     -42.773  56.693 -55.625  1.00  0.00     0.193 A 
HETATM    9  N   UNL     1     -43.010  56.022 -56.789  1.00  0.00    -0.232 NA
HETATM   10  C   UNL     1     -42.310  58.827 -59.044  1.00  0.00     0.034 A 
HETATM   11  C   UNL     1     -42.551  58.228 -60.280  1.00  0.00     0.002 A 
ENDROOT
BRANCH   8  12
HETATM   12  S   UNL     1     -42.976  55.721 -54.175  1.00  0.00     0.201 S 
HETATM   13  O   UNL     1     -43.708  56.523 -53.203  1.00  0.00    -0.221 OA
HETATM   14  O   UNL     1     -43.435  54.409 -54.575  1.00  0.00    -0.221 OA
BRANCH  12  15
HETATM   15  C   UNL     1     -41.341  55.520 -53.472  1.00  0.00     0.141 C 
HETATM   16  C   UNL     1     -41.344  54.354 -52.484  1.00  0.00     0.252 C 
HETATM   17  N   UNL     1     -41.410  53.033 -53.201  1.00  0.00    -0.074 N 
HETATM   18  H   UNL     1     -42.323  52.978 -53.703  1.00  0.00     0.277 HD
HETATM   19  H   UNL     1     -41.435  52.260 -52.521  1.00  0.00     0.277 HD
HETATM   20  C   UNL     1     -40.313  52.802 -54.183  1.00  0.00     0.232 C 
HETATM   21  C   UNL     1     -40.322  53.923 -55.210  1.00  0.00     0.029 C 
HETATM   22  C   UNL     1     -40.267  55.305 -54.553  1.00  0.00     0.024 C 
ENDBRANCH  12  15
ENDBRANCH   8  12
TORSDOF 2
ENDMDL
MODEL 10
REMARK VINA RESULT:      -6.3      2.913      3.247
REMARK  2 active torsions:
REMARK  status: ('A' for Active; 'I' for Inactive)
REMARK    1  A    between atoms: C_8  and  S_9 
REMARK    2  A    between atoms: S_9  and  C_10 
ROOT
HETATM    1  C   UNL     1     -39.528  51.637 -53.034  1.00  0.00     0.002 A 
HETATM    2  C   UNL     1     -40.199  52.641 -53.735  1.00  0.00     0.034 A 
HETATM    3  C   UNL     1     -41.024  53.548 -53.082  1.00  0.00     0.087 A 
HETATM    4  C   UNL     1     -41.178  53.450 -51.672  1.00  0.00     0.087 A 
HETATM    5  N   UNL     1     -41.966  54.305 -50.989  1.00  0.00    -0.231 NA
HETATM    6  C   UNL     1     -42.590  55.271 -51.694  1.00  0.00     0.167 A 
HETATM    7 CL   UNL     1     -43.592  56.278 -50.742  1.00  0.00    -0.059 Cl
HETATM    8  C   UNL     1     -42.431  55.357 -53.057  1.00  0.00     0.193 A 
HETATM    9  N   UNL     1     -41.664  54.503 -53.794  1.00  0.00    -0.232 NA
HETATM   10  C   UNL     1     -40.504  52.446 -50.988  1.00  0.00     0.034 A 
HETATM   11  C   UNL     1     -39.682  51.540 -51.658  1.00  0.00     0.002 A 
ENDROOT
BRANCH   8  12
HETATM   12  S   UNL     1     -43.252  56.590 -54.000  1.00  0.00     0.201 S 
HETATM   13  O   UNL     1     -44.531  56.040 -54.430  1.00  0.00    -0.221 OA
HETATM   14  O   UNL     1     -43.170  57.839 -53.275  1.00  0.00    -0.221 OA
BRANCH  12  15
HETATM   15  C   UNL     1     -42.303  56.788 -55.506  1.00  0.00     0.141 C 
HETATM   16  C   UNL     1     -42.942  55.974 -56.629  1.00  0.00     0.252 C 
HETATM   17  N   UNL     1     -44.211  56.620 -57.115  1.00  0.00    -0.074 N 
HETATM   18  H   UNL     1     -44.903  56.611 -56.334  1.00  0.00     0.277 HD
HETATM   19  H   UNL     1     -44.641  56.048 -57.856  1.00  0.00     0.277 HD
HETATM   20  C   UNL     1     -44.052  58.022 -57.594  1.00  0.00     0.232 C 
HETATM   21  C   UNL     1     -43.465  58.865 -56.474  1.00  0.00     0.029 C 
HETATM   22  C   UNL     1     -42.171  58.264 -55.919  1.00  0.00     0.024 C 
ENDBRANCH  12  15
ENDBRANCH   8  12
TORSDOF 2
ENDMDL
