MODEL 1
REMARK VINA RESULT:      -8.4      0.000      0.000
REMARK  8 active torsions:
REMARK  status: ('A' for Active; 'I' for Inactive)
REMARK    1  A    between atoms: C_2  and  C_3 
REMARK    2  A    between atoms: C_3  and  C_4 
REMARK    3  A    between atoms: C_7  and  C_8 
REMARK    4  A    between atoms: C_8  and  N_9 
REMARK    5  A    between atoms: C_8  and  C_26 
REMARK    6  A    between atoms: N_9  and  C_12 
REMARK    7  A    between atoms: C_12  and  C_13 
REMARK       I    between atoms: C_13  and  N_14 
REMARK    8  A    between atoms: N_14  and  C_15 
ROOT
HETATM    1  N   UNL     1     -41.350  58.213 -54.721  1.00  0.00    -0.054 N 
HETATM    2  H   UNL     1     -40.393  58.569 -54.617  1.00  0.00     0.278 HD
HETATM    3  H   UNL     1     -41.275  57.493 -55.457  1.00  0.00     0.278 HD
ENDROOT
BRANCH   1   4
HETATM    4  C   UNL     1     -41.757  57.587 -53.432  1.00  0.00     0.259 C 
BRANCH   4   5
HETATM    5  C   UNL     1     -41.267  56.151 -53.301  1.00  0.00    -0.023 A 
HETATM    6  C   UNL     1     -41.361  55.422 -52.103  1.00  0.00     0.010 A 
HETATM    7  C   UNL     1     -40.929  54.095 -52.037  1.00  0.00     0.007 A 
HETATM    8  C   UNL     1     -40.412  53.454 -53.167  1.00  0.00    -0.058 A 
HETATM    9  C   UNL     1     -40.323  54.168 -54.365  1.00  0.00     0.007 A 
HETATM   10  C   UNL     1     -40.743  55.500 -54.433  1.00  0.00     0.010 A 
BRANCH   8  11
HETATM   11  C   UNL     1     -39.992  52.005 -53.097  1.00  0.00     0.038 C 
BRANCH  11  12
HETATM   12  C   UNL     1     -40.323  51.255 -54.389  1.00  0.00     0.000 C 
HETATM   13  C   UNL     1     -39.729  49.856 -54.388  1.00  0.00     0.005 C 
ENDBRANCH  11  12
ENDBRANCH   8  11
ENDBRANCH   4   5
BRANCH   4  14
HETATM   14  C   UNL     1     -41.357  58.436 -52.251  1.00  0.00     0.017 A 
HETATM   15  S   UNL     1     -42.550  59.189 -51.263  1.00  0.00    -0.104 SA
HETATM   16  C   UNL     1     -41.368  59.895 -50.255  1.00  0.00     0.050 A 
HETATM   17  C   UNL     1     -40.090  59.568 -50.649  1.00  0.00     0.008 A 
HETATM   18  C   UNL     1     -40.082  58.726 -51.799  1.00  0.00     0.017 A 
ENDBRANCH   4  14
ENDBRANCH   1   4
BRANCH   1  19
HETATM   19  C   UNL     1     -42.205  59.325 -55.264  1.00  0.00     0.336 C 
BRANCH  19  20
HETATM   20  C   UNL     1     -42.642  58.951 -56.683  1.00  0.00     0.248 C 
HETATM   21  N   UNL     1     -43.393  57.799 -56.777  1.00  0.00    -0.326 N 
HETATM   22  H   UNL     1     -43.569  57.259 -55.936  1.00  0.00     0.169 HD
HETATM   23  O   UNL     1     -42.329  59.720 -57.592  1.00  0.00    -0.271 OA
BRANCH  21  24
HETATM   24  C   UNL     1     -44.004  57.284 -57.947  1.00  0.00     0.037 A 
HETATM   25  C   UNL     1     -45.286  57.651 -58.378  1.00  0.00     0.061 A 
HETATM   26  C   UNL     1     -45.763  57.047 -59.521  1.00  0.00     0.065 A 
HETATM   27  C   UNL     1     -45.022  56.111 -60.237  1.00  0.00     0.063 A 
HETATM   28  N   UNL     1     -46.983  57.211 -60.165  1.00  0.00    -0.306 N 
HETATM   29  N   UNL     1     -45.787  55.696 -61.320  1.00  0.00    -0.307 N 
HETATM   30  C   UNL     1     -43.763  55.732 -59.851  1.00  0.00     0.034 A 
HETATM   31  C   UNL     1     -47.015  56.373 -61.291  1.00  0.00     0.325 A 
HETATM   32  H   UNL     1     -45.541  55.026 -62.030  1.00  0.00     0.170 HD
HETATM   33  O   UNL     1     -47.932  56.257 -62.082  1.00  0.00    -0.247 OA
HETATM   34  C   UNL     1     -43.254  56.333 -58.690  1.00  0.00     0.032 A 
HETATM   35  H   UNL     1     -47.746  57.816 -59.904  1.00  0.00     0.170 HD
ENDBRANCH  21  24
ENDBRANCH  19  20
ENDBRANCH   1  19
TORSDOF 8
ENDMDL
MODEL 2
REMARK VINA RESULT:      -8.4      3.775      7.847
REMARK  8 active torsions:
REMARK  status: ('A' for Active; 'I' for Inactive)
REMARK    1  A    between atoms: C_2  and  C_3 
REMARK    2  A    between atoms: C_3  and  C_4 
REMARK    3  A    between atoms: C_7  and  C_8 
REMARK    4  A    between atoms: C_8  and  N_9 
REMARK    5  A    between atoms: C_8  and  C_26 
REMARK    6  A    between atoms: N_9  and  C_12 
REMARK    7  A    between atoms: C_12  and  C_13 
REMARK       I    between atoms: C_13  and  N_14 
REMARK    8  A    between atoms: N_14  and  C_15 
ROOT
HETATM    1  N   UNL     1     -44.672  56.933 -55.360  1.00  0.00    -0.054 N 
HETATM    2  H   UNL     1     -45.410  57.213 -56.018  1.00  0.00     0.278 HD
HETATM    3  H   UNL     1     -44.963  55.999 -55.034  1.00  0.00     0.278 HD
ENDROOT
BRANCH   1   4
HETATM    4  C   UNL     1     -43.389  56.838 -56.111  1.00  0.00     0.259 C 
BRANCH   4   5
HETATM    5  C   UNL     1     -42.520  55.683 -55.634  1.00  0.00    -0.023 A 
HETATM    6  C   UNL     1     -42.962  54.348 -55.632  1.00  0.00     0.010 A 
HETATM    7  C   UNL     1     -42.118  53.316 -55.218  1.00  0.00     0.007 A 
HETATM    8  C   UNL     1     -40.806  53.582 -54.815  1.00  0.00    -0.058 A 
HETATM    9  C   UNL     1     -40.355  54.905 -54.821  1.00  0.00     0.007 A 
HETATM   10  C   UNL     1     -41.200  55.943 -55.223  1.00  0.00     0.010 A 
BRANCH   8  11
HETATM   11  C   UNL     1     -39.887  52.453 -54.413  1.00  0.00     0.038 C 
BRANCH  11  12
HETATM   12  C   UNL     1     -40.629  51.117 -54.339  1.00  0.00     0.000 C 
HETATM   13  C   UNL     1     -39.663  49.943 -54.330  1.00  0.00     0.005 C 
ENDBRANCH  11  12
ENDBRANCH   8  11
ENDBRANCH   4   5
BRANCH   4  14
HETATM   14  C   UNL     1     -43.619  56.802 -57.602  1.00  0.00     0.017 A 
HETATM   15  S   UNL     1     -44.840  57.776 -58.329  1.00  0.00    -0.104 SA
HETATM   16  C   UNL     1     -44.474  57.189 -59.889  1.00  0.00     0.050 A 
HETATM   17  C   UNL     1     -43.444  56.277 -59.870  1.00  0.00     0.008 A 
HETATM   18  C   UNL     1     -42.950  56.052 -58.552  1.00  0.00     0.017 A 
ENDBRANCH   4  14
ENDBRANCH   1   4
BRANCH   1  19
HETATM   19  C   UNL     1     -44.728  57.860 -54.177  1.00  0.00     0.336 C 
BRANCH  19  20
HETATM   20  C   UNL     1     -43.724  57.370 -53.130  1.00  0.00     0.248 C 
HETATM   21  N   UNL     1     -43.961  56.103 -52.643  1.00  0.00    -0.326 N 
HETATM   22  H   UNL     1     -44.785  55.602 -52.961  1.00  0.00     0.169 HD
HETATM   23  O   UNL     1     -42.786  58.117 -52.855  1.00  0.00    -0.271 OA
BRANCH  21  24
HETATM   24  C   UNL     1     -43.137  55.376 -51.749  1.00  0.00     0.037 A 
HETATM   25  C   UNL     1     -42.597  55.918 -50.575  1.00  0.00     0.061 A 
HETATM   26  C   UNL     1     -41.789  55.099 -49.817  1.00  0.00     0.065 A 
HETATM   27  C   UNL     1     -41.509  53.785 -50.176  1.00  0.00     0.063 A 
HETATM   28  N   UNL     1     -41.123  55.370 -48.627  1.00  0.00    -0.306 N 
HETATM   29  N   UNL     1     -40.668  53.246 -49.210  1.00  0.00    -0.307 N 
HETATM   30  C   UNL     1     -42.025  53.216 -51.312  1.00  0.00     0.034 A 
HETATM   31  C   UNL     1     -40.417  54.222 -48.235  1.00  0.00     0.325 A 
HETATM   32  H   UNL     1     -40.280  52.317 -49.177  1.00  0.00     0.170 HD
HETATM   33  O   UNL     1     -39.721  54.102 -47.244  1.00  0.00    -0.247 OA
HETATM   34  C   UNL     1     -42.850  54.029 -52.103  1.00  0.00     0.032 A 
HETATM   35  H   UNL     1     -41.119  56.229 -48.100  1.00  0.00     0.170 HD
ENDBRANCH  21  24
ENDBRANCH  19  20
ENDBRANCH   1  19
TORSDOF 8
ENDMDL
MODEL 3
REMARK VINA RESULT:      -8.2      2.172      3.216
REMARK  8 active torsions:
REMARK  status: ('A' for Active; 'I' for Inactive)
REMARK    1  A    between atoms: C_2  and  C_3 
REMARK    2  A    between atoms: C_3  and  C_4 
REMARK    3  A    between atoms: C_7  and  C_8 
REMARK    4  A    between atoms: C_8  and  N_9 
REMARK    5  A    between atoms: C_8  and  C_26 
REMARK    6  A    between atoms: N_9  and  C_12 
REMARK    7  A    between atoms: C_12  and  C_13 
REMARK       I    between atoms: C_13  and  N_14 
REMARK    8  A    between atoms: N_14  and  C_15 
ROOT
HETATM    1  N   UNL     1     -42.470  56.335 -57.145  1.00  0.00    -0.054 N 
HETATM    2  H   UNL     1     -42.837  57.224 -57.505  1.00  0.00     0.278 HD
HETATM    3  H   UNL     1     -41.466  56.358 -57.385  1.00  0.00     0.278 HD
ENDROOT
BRANCH   1   4
HETATM    4  C   UNL     1     -42.642  56.323 -55.666  1.00  0.00     0.259 C 
BRANCH   4   5
HETATM    5  C   UNL     1     -41.919  55.157 -55.004  1.00  0.00    -0.023 A 
HETATM    6  C   UNL     1     -40.656  54.707 -55.426  1.00  0.00     0.010 A 
HETATM    7  C   UNL     1     -40.015  53.655 -54.769  1.00  0.00     0.007 A 
HETATM    8  C   UNL     1     -40.606  53.038 -53.661  1.00  0.00    -0.058 A 
HETATM    9  C   UNL     1     -41.858  53.483 -53.230  1.00  0.00     0.007 A 
HETATM   10  C   UNL     1     -42.509  54.528 -53.893  1.00  0.00     0.010 A 
BRANCH   8  11
HETATM   11  C   UNL     1     -39.883  51.933 -52.929  1.00  0.00     0.038 C 
BRANCH  11  12
HETATM   12  C   UNL     1     -39.423  50.826 -53.881  1.00  0.00     0.000 C 
HETATM   13  C   UNL     1     -40.604  50.068 -54.465  1.00  0.00     0.005 C 
ENDBRANCH  11  12
ENDBRANCH   8  11
ENDBRANCH   4   5
BRANCH   4  14
HETATM   14  C   UNL     1     -42.266  57.649 -55.052  1.00  0.00     0.017 A 
HETATM   15  S   UNL     1     -42.900  59.122 -55.680  1.00  0.00    -0.104 SA
HETATM   16  C   UNL     1     -42.054  60.056 -54.530  1.00  0.00     0.050 A 
HETATM   17  C   UNL     1     -41.306  59.276 -53.678  1.00  0.00     0.008 A 
HETATM   18  C   UNL     1     -41.428  57.887 -53.977  1.00  0.00     0.017 A 
ENDBRANCH   4  14
ENDBRANCH   1   4
BRANCH   1  19
HETATM   19  C   UNL     1     -43.096  55.219 -57.936  1.00  0.00     0.336 C 
BRANCH  19  20
HETATM   20  C   UNL     1     -43.864  55.831 -59.111  1.00  0.00     0.248 C 
HETATM   21  N   UNL     1     -45.150  56.233 -58.821  1.00  0.00    -0.326 N 
HETATM   22  H   UNL     1     -45.517  56.067 -57.890  1.00  0.00     0.169 HD
HETATM   23  O   UNL     1     -43.263  55.948 -60.179  1.00  0.00    -0.271 OA
BRANCH  21  24
HETATM   24  C   UNL     1     -46.036  56.915 -59.691  1.00  0.00     0.037 A 
HETATM   25  C   UNL     1     -46.913  56.266 -60.570  1.00  0.00     0.061 A 
HETATM   26  C   UNL     1     -47.697  57.061 -61.378  1.00  0.00     0.065 A 
HETATM   27  C   UNL     1     -47.643  58.450 -61.340  1.00  0.00     0.063 A 
HETATM   28  N   UNL     1     -48.636  56.695 -62.335  1.00  0.00    -0.306 N 
HETATM   29  N   UNL     1     -48.546  58.941 -62.275  1.00  0.00    -0.307 N 
HETATM   30  C   UNL     1     -46.803  59.121 -60.489  1.00  0.00     0.034 A 
HETATM   31  C   UNL     1     -49.175  57.858 -62.906  1.00  0.00     0.325 A 
HETATM   32  H   UNL     1     -48.745  59.903 -62.495  1.00  0.00     0.170 HD
HETATM   33  O   UNL     1     -50.021  57.913 -63.778  1.00  0.00    -0.247 OA
HETATM   34  C   UNL     1     -45.993  58.336 -59.655  1.00  0.00     0.032 A 
HETATM   35  H   UNL     1     -48.915  55.765 -62.606  1.00  0.00     0.170 HD
ENDBRANCH  21  24
ENDBRANCH  19  20
ENDBRANCH   1  19
TORSDOF 8
ENDMDL
MODEL 4
REMARK VINA RESULT:      -8.1      1.525      2.085
REMARK  8 active torsions:
REMARK  status: ('A' for Active; 'I' for Inactive)
REMARK    1  A    between atoms: C_2  and  C_3 
REMARK    2  A    between atoms: C_3  and  C_4 
REMARK    3  A    between atoms: C_7  and  C_8 
REMARK    4  A    between atoms: C_8  and  N_9 
REMARK    5  A    between atoms: C_8  and  C_26 
REMARK    6  A    between atoms: N_9  and  C_12 
REMARK    7  A    between atoms: C_12  and  C_13 
REMARK       I    between atoms: C_13  and  N_14 
REMARK    8  A    between atoms: N_14  and  C_15 
ROOT
HETATM    1  N   UNL     1     -42.359  58.143 -53.778  1.00  0.00    -0.054 N 
HETATM    2  H   UNL     1     -41.674  58.879 -53.986  1.00  0.00     0.278 HD
HETATM    3  H   UNL     1     -42.253  57.470 -54.552  1.00  0.00     0.278 HD
ENDROOT
BRANCH   1   4
HETATM    4  C   UNL     1     -41.980  57.503 -52.488  1.00  0.00     0.259 C 
BRANCH   4   5
HETATM    5  C   UNL     1     -41.484  56.074 -52.669  1.00  0.00    -0.023 A 
HETATM    6  C   UNL     1     -41.012  55.583 -53.898  1.00  0.00     0.010 A 
HETATM    7  C   UNL     1     -40.536  54.275 -54.011  1.00  0.00     0.007 A 
HETATM    8  C   UNL     1     -40.498  53.429 -52.898  1.00  0.00    -0.058 A 
HETATM    9  C   UNL     1     -40.959  53.911 -51.670  1.00  0.00     0.007 A 
HETATM   10  C   UNL     1     -41.448  55.216 -51.555  1.00  0.00     0.010 A 
BRANCH   8  11
HETATM   11  C   UNL     1     -39.938  52.032 -53.021  1.00  0.00     0.038 C 
BRANCH  11  12
HETATM   12  C   UNL     1     -40.403  51.345 -54.306  1.00  0.00     0.000 C 
HETATM   13  C   UNL     1     -39.778  49.967 -54.459  1.00  0.00     0.005 C 
ENDBRANCH  11  12
ENDBRANCH   8  11
ENDBRANCH   4   5
BRANCH   4  14
HETATM   14  C   UNL     1     -41.001  58.352 -51.713  1.00  0.00     0.017 A 
HETATM   15  S   UNL     1     -41.522  59.291 -50.367  1.00  0.00    -0.104 SA
HETATM   16  C   UNL     1     -39.950  59.894 -50.092  1.00  0.00     0.050 A 
HETATM   17  C   UNL     1     -39.039  59.394 -50.994  1.00  0.00     0.008 A 
HETATM   18  C   UNL     1     -39.643  58.504 -51.930  1.00  0.00     0.017 A 
ENDBRANCH   4  14
ENDBRANCH   1   4
BRANCH   1  19
HETATM   19  C   UNL     1     -43.734  58.742 -53.888  1.00  0.00     0.336 C 
BRANCH  19  20
HETATM   20  C   UNL     1     -44.509  57.982 -54.967  1.00  0.00     0.248 C 
HETATM   21  N   UNL     1     -44.206  58.339 -56.264  1.00  0.00    -0.326 N 
HETATM   22  H   UNL     1     -43.543  59.090 -56.423  1.00  0.00     0.169 HD
HETATM   23  O   UNL     1     -45.286  57.104 -54.592  1.00  0.00    -0.271 OA
BRANCH  21  24
HETATM   24  C   UNL     1     -44.699  57.728 -57.443  1.00  0.00     0.037 A 
HETATM   25  C   UNL     1     -43.950  56.843 -58.230  1.00  0.00     0.061 A 
HETATM   26  C   UNL     1     -44.552  56.348 -59.367  1.00  0.00     0.065 A 
HETATM   27  C   UNL     1     -45.847  56.695 -59.739  1.00  0.00     0.063 A 
HETATM   28  N   UNL     1     -44.052  55.473 -60.323  1.00  0.00    -0.306 N 
HETATM   29  N   UNL     1     -46.144  56.035 -60.925  1.00  0.00    -0.307 N 
HETATM   30  C   UNL     1     -46.613  57.551 -58.991  1.00  0.00     0.034 A 
HETATM   31  C   UNL     1     -45.033  55.267 -61.305  1.00  0.00     0.325 A 
HETATM   32  H   UNL     1     -46.999  56.074 -61.457  1.00  0.00     0.170 HD
HETATM   33  O   UNL     1     -44.936  54.562 -62.291  1.00  0.00    -0.247 OA
HETATM   34  C   UNL     1     -46.024  58.070 -57.829  1.00  0.00     0.032 A 
HETATM   35  H   UNL     1     -43.144  55.035 -60.349  1.00  0.00     0.170 HD
ENDBRANCH  21  24
ENDBRANCH  19  20
ENDBRANCH   1  19
TORSDOF 8
ENDMDL
MODEL 5
REMARK VINA RESULT:      -8.0      4.498      9.543
REMARK  8 active torsions:
REMARK  status: ('A' for Active; 'I' for Inactive)
REMARK    1  A    between atoms: C_2  and  C_3 
REMARK    2  A    between atoms: C_3  and  C_4 
REMARK    3  A    between atoms: C_7  and  C_8 
REMARK    4  A    between atoms: C_8  and  N_9 
REMARK    5  A    between atoms: C_8  and  C_26 
REMARK    6  A    between atoms: N_9  and  C_12 
REMARK    7  A    between atoms: C_12  and  C_13 
REMARK       I    between atoms: C_13  and  N_14 
REMARK    8  A    between atoms: N_14  and  C_15 
ROOT
HETATM    1  N   UNL     1     -42.391  56.825 -57.736  1.00  0.00    -0.054 N 
HETATM    2  H   UNL     1     -42.561  55.820 -57.864  1.00  0.00     0.278 HD
HETATM    3  H   UNL     1     -41.466  56.983 -58.163  1.00  0.00     0.278 HD
ENDROOT
BRANCH   1   4
HETATM    4  C   UNL     1     -43.436  57.575 -58.486  1.00  0.00     0.259 C 
BRANCH   4   5
HETATM    5  C   UNL     1     -42.872  58.782 -59.223  1.00  0.00    -0.023 A 
HETATM    6  C   UNL     1     -42.843  60.071 -58.661  1.00  0.00     0.010 A 
HETATM    7  C   UNL     1     -42.285  61.143 -59.360  1.00  0.00     0.007 A 
HETATM    8  C   UNL     1     -41.722  60.956 -60.627  1.00  0.00    -0.058 A 
HETATM    9  C   UNL     1     -41.738  59.678 -61.189  1.00  0.00     0.007 A 
HETATM   10  C   UNL     1     -42.307  58.603 -60.498  1.00  0.00     0.010 A 
BRANCH   8  11
HETATM   11  C   UNL     1     -41.078  62.113 -61.353  1.00  0.00     0.038 C 
BRANCH  11  12
HETATM   12  C   UNL     1     -40.762  63.273 -60.407  1.00  0.00     0.000 C 
HETATM   13  C   UNL     1     -39.268  63.392 -60.151  1.00  0.00     0.005 C 
ENDBRANCH  11  12
ENDBRANCH   8  11
ENDBRANCH   4   5
BRANCH   4  14
HETATM   14  C   UNL     1     -44.225  56.668 -59.398  1.00  0.00     0.017 A 
HETATM   15  S   UNL     1     -45.777  57.136 -59.979  1.00  0.00    -0.104 SA
HETATM   16  C   UNL     1     -45.962  55.684 -60.856  1.00  0.00     0.050 A 
HETATM   17  C   UNL     1     -44.872  54.856 -60.722  1.00  0.00     0.008 A 
HETATM   18  C   UNL     1     -43.868  55.422 -59.882  1.00  0.00     0.017 A 
ENDBRANCH   4  14
ENDBRANCH   1   4
BRANCH   1  19
HETATM   19  C   UNL     1     -42.257  57.089 -56.261  1.00  0.00     0.336 C 
BRANCH  19  20
HETATM   20  C   UNL     1     -42.183  55.743 -55.534  1.00  0.00     0.248 C 
HETATM   21  N   UNL     1     -40.930  55.396 -55.077  1.00  0.00    -0.326 N 
HETATM   22  H   UNL     1     -40.147  56.009 -55.281  1.00  0.00     0.169 HD
HETATM   23  O   UNL     1     -43.236  55.123 -55.383  1.00  0.00    -0.271 OA
BRANCH  21  24
HETATM   24  C   UNL     1     -40.603  54.263 -54.291  1.00  0.00     0.037 A 
HETATM   25  C   UNL     1     -40.348  52.994 -54.828  1.00  0.00     0.061 A 
HETATM   26  C   UNL     1     -40.070  51.979 -53.939  1.00  0.00     0.065 A 
HETATM   27  C   UNL     1     -40.034  52.179 -52.562  1.00  0.00     0.063 A 
HETATM   28  N   UNL     1     -39.790  50.640 -54.184  1.00  0.00    -0.306 N 
HETATM   29  N   UNL     1     -39.736  50.963 -51.960  1.00  0.00    -0.307 N 
HETATM   30  C   UNL     1     -40.271  53.407 -52.000  1.00  0.00     0.034 A 
HETATM   31  C   UNL     1     -39.580  49.991 -52.958  1.00  0.00     0.325 A 
HETATM   32  H   UNL     1     -39.639  50.768 -50.976  1.00  0.00     0.170 HD
HETATM   33  O   UNL     1     -39.317  48.814 -52.796  1.00  0.00    -0.247 OA
HETATM   34  C   UNL     1     -40.557  54.458 -52.884  1.00  0.00     0.032 A 
HETATM   35  H   UNL     1     -39.737  50.171 -55.075  1.00  0.00     0.170 HD
ENDBRANCH  21  24
ENDBRANCH  19  20
ENDBRANCH   1  19
TORSDOF 8
ENDMDL
MODEL 6
REMARK VINA RESULT:      -7.9      2.708      3.394
REMARK  8 active torsions:
REMARK  status: ('A' for Active; 'I' for Inactive)
REMARK    1  A    between atoms: C_2  and  C_3 
REMARK    2  A    between atoms: C_3  and  C_4 
REMARK    3  A    between atoms: C_7  and  C_8 
REMARK    4  A    between atoms: C_8  and  N_9 
REMARK    5  A    between atoms: C_8  and  C_26 
REMARK    6  A    between atoms: N_9  and  C_12 
REMARK    7  A    between atoms: C_12  and  C_13 
REMARK       I    between atoms: C_13  and  N_14 
REMARK    8  A    between atoms: N_14  and  C_15 
ROOT
HETATM    1  N   UNL     1     -43.815  55.814 -54.014  1.00  0.00    -0.054 N 
HETATM    2  H   UNL     1     -43.318  55.767 -54.912  1.00  0.00     0.278 HD
HETATM    3  H   UNL     1     -44.438  54.991 -54.025  1.00  0.00     0.278 HD
ENDROOT
BRANCH   1   4
HETATM    4  C   UNL     1     -42.814  55.684 -52.919  1.00  0.00     0.259 C 
BRANCH   4   5
HETATM    5  C   UNL     1     -41.918  54.464 -53.089  1.00  0.00    -0.023 A 
HETATM    6  C   UNL     1     -41.837  53.743 -54.293  1.00  0.00     0.010 A 
HETATM    7  C   UNL     1     -40.976  52.650 -54.415  1.00  0.00     0.007 A 
HETATM    8  C   UNL     1     -40.159  52.260 -53.349  1.00  0.00    -0.058 A 
HETATM    9  C   UNL     1     -40.228  52.976 -52.151  1.00  0.00     0.007 A 
HETATM   10  C   UNL     1     -41.097  54.063 -52.021  1.00  0.00     0.010 A 
BRANCH   8  11
HETATM   11  C   UNL     1     -39.198  51.106 -53.508  1.00  0.00     0.038 C 
BRANCH  11  12
HETATM   12  C   UNL     1     -39.826  49.780 -53.074  1.00  0.00     0.000 C 
HETATM   13  C   UNL     1     -39.629  49.531 -51.587  1.00  0.00     0.005 C 
ENDBRANCH  11  12
ENDBRANCH   8  11
ENDBRANCH   4   5
BRANCH   4  14
HETATM   14  C   UNL     1     -42.020  56.954 -52.739  1.00  0.00     0.017 A 
HETATM   15  S   UNL     1     -42.306  57.988 -51.391  1.00  0.00    -0.104 SA
HETATM   16  C   UNL     1     -41.107  59.092 -51.897  1.00  0.00     0.050 A 
HETATM   17  C   UNL     1     -40.492  58.691 -53.061  1.00  0.00     0.008 A 
HETATM   18  C   UNL     1     -41.017  57.458 -53.548  1.00  0.00     0.017 A 
ENDBRANCH   4  14
ENDBRANCH   1   4
BRANCH   1  19
HETATM   19  C   UNL     1     -44.688  57.038 -54.029  1.00  0.00     0.336 C 
BRANCH  19  20
HETATM   20  C   UNL     1     -44.406  57.818 -55.316  1.00  0.00     0.248 C 
HETATM   21  N   UNL     1     -43.360  57.336 -56.073  1.00  0.00    -0.326 N 
HETATM   22  H   UNL     1     -42.825  56.547 -55.723  1.00  0.00     0.169 HD
HETATM   23  O   UNL     1     -45.153  58.760 -55.581  1.00  0.00    -0.271 OA
BRANCH  21  24
HETATM   24  C   UNL     1     -42.955  57.804 -57.347  1.00  0.00     0.037 A 
HETATM   25  C   UNL     1     -42.674  59.148 -57.626  1.00  0.00     0.061 A 
HETATM   26  C   UNL     1     -42.318  59.461 -58.920  1.00  0.00     0.065 A 
HETATM   27  C   UNL     1     -42.231  58.502 -59.925  1.00  0.00     0.063 A 
HETATM   28  N   UNL     1     -41.997  60.694 -59.476  1.00  0.00    -0.306 N 
HETATM   29  N   UNL     1     -41.860  59.144 -61.100  1.00  0.00    -0.307 N 
HETATM   30  C   UNL     1     -42.492  57.177 -59.689  1.00  0.00     0.034 A 
HETATM   31  C   UNL     1     -41.709  60.514 -60.837  1.00  0.00     0.325 A 
HETATM   32  H   UNL     1     -41.713  58.734 -62.008  1.00  0.00     0.170 HD
HETATM   33  O   UNL     1     -41.393  61.378 -61.633  1.00  0.00    -0.247 OA
HETATM   34  C   UNL     1     -42.857  56.832 -58.379  1.00  0.00     0.032 A 
HETATM   35  H   UNL     1     -41.963  61.591 -59.018  1.00  0.00     0.170 HD
ENDBRANCH  21  24
ENDBRANCH  19  20
ENDBRANCH   1  19
TORSDOF 8
ENDMDL
MODEL 7
REMARK VINA RESULT:      -7.6      2.374      3.227
REMARK  8 active torsions:
REMARK  status: ('A' for Active; 'I' for Inactive)
REMARK    1  A    between atoms: C_2  and  C_3 
REMARK    2  A    between atoms: C_3  and  C_4 
REMARK    3  A    between atoms: C_7  and  C_8 
REMARK    4  A    between atoms: C_8  and  N_9 
REMARK    5  A    between atoms: C_8  and  C_26 
REMARK    6  A    between atoms: N_9  and  C_12 
REMARK    7  A    between atoms: C_12  and  C_13 
REMARK       I    between atoms: C_13  and  N_14 
REMARK    8  A    between atoms: N_14  and  C_15 
ROOT
HETATM    1  N   UNL     1     -43.713  56.091 -51.279  1.00  0.00    -0.054 N 
HETATM    2  H   UNL     1     -43.718  55.675 -52.219  1.00  0.00     0.278 HD
HETATM    3  H   UNL     1     -44.320  55.468 -50.723  1.00  0.00     0.278 HD
ENDROOT
BRANCH   1   4
HETATM    4  C   UNL     1     -42.319  56.049 -50.757  1.00  0.00     0.259 C 
BRANCH   4   5
HETATM    5  C   UNL     1     -41.545  54.837 -51.260  1.00  0.00    -0.023 A 
HETATM    6  C   UNL     1     -40.554  54.198 -50.495  1.00  0.00     0.010 A 
HETATM    7  C   UNL     1     -39.892  53.069 -50.982  1.00  0.00     0.007 A 
HETATM    8  C   UNL     1     -40.214  52.535 -52.234  1.00  0.00    -0.058 A 
HETATM    9  C   UNL     1     -41.203  53.160 -52.998  1.00  0.00     0.007 A 
HETATM   10  C   UNL     1     -41.860  54.297 -52.519  1.00  0.00     0.010 A 
BRANCH   8  11
HETATM   11  C   UNL     1     -39.525  51.286 -52.731  1.00  0.00     0.038 C 
BRANCH  11  12
HETATM   12  C   UNL     1     -40.244  50.686 -53.941  1.00  0.00     0.000 C 
HETATM   13  C   UNL     1     -39.336  49.743 -54.716  1.00  0.00     0.005 C 
ENDBRANCH  11  12
ENDBRANCH   8  11
ENDBRANCH   4   5
BRANCH   4  14
HETATM   14  C   UNL     1     -41.588  57.343 -51.021  1.00  0.00     0.017 A 
HETATM   15  S   UNL     1     -40.891  57.662 -52.563  1.00  0.00    -0.104 SA
HETATM   16  C   UNL     1     -40.310  59.185 -52.060  1.00  0.00     0.050 A 
HETATM   17  C   UNL     1     -40.637  59.458 -50.752  1.00  0.00     0.008 A 
HETATM   18  C   UNL     1     -41.375  58.397 -50.151  1.00  0.00     0.017 A 
ENDBRANCH   4  14
ENDBRANCH   1   4
BRANCH   1  19
HETATM   19  C   UNL     1     -44.395  57.429 -51.360  1.00  0.00     0.336 C 
BRANCH  19  20
HETATM   20  C   UNL     1     -44.305  57.931 -52.804  1.00  0.00     0.248 C 
HETATM   21  N   UNL     1     -44.179  56.945 -53.758  1.00  0.00    -0.326 N 
HETATM   22  H   UNL     1     -44.110  55.978 -53.457  1.00  0.00     0.169 HD
HETATM   23  O   UNL     1     -44.397  59.145 -52.986  1.00  0.00    -0.271 OA
BRANCH  21  24
HETATM   24  C   UNL     1     -44.176  57.126 -55.163  1.00  0.00     0.037 A 
HETATM   25  C   UNL     1     -43.195  56.597 -56.012  1.00  0.00     0.061 A 
HETATM   26  C   UNL     1     -43.307  56.880 -57.356  1.00  0.00     0.065 A 
HETATM   27  C   UNL     1     -44.341  57.652 -57.875  1.00  0.00     0.063 A 
HETATM   28  N   UNL     1     -42.486  56.499 -58.411  1.00  0.00    -0.306 N 
HETATM   29  N   UNL     1     -44.156  57.750 -59.248  1.00  0.00    -0.307 N 
HETATM   30  C   UNL     1     -45.323  58.181 -57.077  1.00  0.00     0.034 A 
HETATM   31  C   UNL     1     -43.002  57.035 -59.600  1.00  0.00     0.325 A 
HETATM   32  H   UNL     1     -44.729  58.241 -59.915  1.00  0.00     0.170 HD
HETATM   33  O   UNL     1     -42.536  56.906 -60.717  1.00  0.00    -0.247 OA
HETATM   34  C   UNL     1     -45.232  57.908 -55.704  1.00  0.00     0.032 A 
HETATM   35  H   UNL     1     -41.652  55.934 -58.375  1.00  0.00     0.170 HD
ENDBRANCH  21  24
ENDBRANCH  19  20
ENDBRANCH   1  19
TORSDOF 8
ENDMDL
MODEL 8
REMARK VINA RESULT:      -7.5      4.350      7.456
REMARK  8 active torsions:
REMARK  status: ('A' for Active; 'I' for Inactive)
REMARK    1  A    between atoms: C_2  and  C_3 
REMARK    2  A    between atoms: C_3  and  C_4 
REMARK    3  A    between atoms: C_7  and  C_8 
REMARK    4  A    between atoms: C_8  and  N_9 
REMARK    5  A    between atoms: C_8  and  C_26 
REMARK    6  A    between atoms: N_9  and  C_12 
REMARK    7  A    between atoms: C_12  and  C_13 
REMARK       I    between atoms: C_13  and  N_14 
REMARK    8  A    between atoms: N_14  and  C_15 
ROOT
HETATM    1  N   UNL     1     -43.331  59.291 -50.932  1.00  0.00    -0.054 N 
HETATM    2  H   UNL     1     -44.030  59.775 -50.355  1.00  0.00     0.278 HD
HETATM    3  H   UNL     1     -43.543  58.290 -50.801  1.00  0.00     0.278 HD
ENDROOT
BRANCH   1   4
HETATM    4  C   UNL     1     -43.549  59.679 -52.354  1.00  0.00     0.259 C 
BRANCH   4   5
HETATM    5  C   UNL     1     -43.416  58.499 -53.307  1.00  0.00    -0.023 A 
HETATM    6  C   UNL     1     -44.408  57.512 -53.439  1.00  0.00     0.010 A 
HETATM    7  C   UNL     1     -44.258  56.464 -54.350  1.00  0.00     0.007 A 
HETATM    8  C   UNL     1     -43.127  56.385 -55.169  1.00  0.00    -0.058 A 
HETATM    9  C   UNL     1     -42.139  57.366 -55.050  1.00  0.00     0.007 A 
HETATM   10  C   UNL     1     -42.279  58.409 -54.130  1.00  0.00     0.010 A 
BRANCH   8  11
HETATM   11  C   UNL     1     -42.997  55.274 -56.184  1.00  0.00     0.038 C 
BRANCH  11  12
HETATM   12  C   UNL     1     -42.744  55.819 -57.592  1.00  0.00     0.000 C 
HETATM   13  C   UNL     1     -43.904  56.674 -58.075  1.00  0.00     0.005 C 
ENDBRANCH  11  12
ENDBRANCH   8  11
ENDBRANCH   4   5
BRANCH   4  14
HETATM   14  C   UNL     1     -44.855  60.414 -52.535  1.00  0.00     0.017 A 
HETATM   15  S   UNL     1     -46.080  60.344 -51.326  1.00  0.00    -0.104 SA
HETATM   16  C   UNL     1     -47.125  61.345 -52.232  1.00  0.00     0.050 A 
HETATM   17  C   UNL     1     -46.563  61.733 -53.426  1.00  0.00     0.008 A 
HETATM   18  C   UNL     1     -45.254  61.198 -53.603  1.00  0.00     0.017 A 
ENDBRANCH   4  14
ENDBRANCH   1   4
BRANCH   1  19
HETATM   19  C   UNL     1     -41.976  59.547 -50.333  1.00  0.00     0.336 C 
BRANCH  19  20
HETATM   20  C   UNL     1     -41.088  58.330 -50.607  1.00  0.00     0.248 C 
HETATM   21  N   UNL     1     -41.723  57.111 -50.509  1.00  0.00    -0.326 N 
HETATM   22  H   UNL     1     -42.698  57.087 -50.226  1.00  0.00     0.169 HD
HETATM   23  O   UNL     1     -39.920  58.544 -50.930  1.00  0.00    -0.271 OA
BRANCH  21  24
HETATM   24  C   UNL     1     -41.166  55.843 -50.807  1.00  0.00     0.037 A 
HETATM   25  C   UNL     1     -41.233  55.244 -52.072  1.00  0.00     0.061 A 
HETATM   26  C   UNL     1     -40.669  53.994 -52.207  1.00  0.00     0.065 A 
HETATM   27  C   UNL     1     -40.051  53.333 -51.150  1.00  0.00     0.063 A 
HETATM   28  N   UNL     1     -40.596  53.173 -53.326  1.00  0.00    -0.306 N 
HETATM   29  N   UNL     1     -39.601  52.105 -51.616  1.00  0.00    -0.307 N 
HETATM   30  C   UNL     1     -39.960  53.890 -49.900  1.00  0.00     0.034 A 
HETATM   31  C   UNL     1     -39.933  51.988 -52.974  1.00  0.00     0.325 A 
HETATM   32  H   UNL     1     -39.114  51.389 -51.101  1.00  0.00     0.170 HD
HETATM   33  O   UNL     1     -39.695  51.044 -53.704  1.00  0.00    -0.247 OA
HETATM   34  C   UNL     1     -40.526  55.162 -49.736  1.00  0.00     0.032 A 
HETATM   35  H   UNL     1     -40.947  53.355 -54.253  1.00  0.00     0.170 HD
ENDBRANCH  21  24
ENDBRANCH  19  20
ENDBRANCH   1  19
TORSDOF 8
ENDMDL
MODEL 9
REMARK VINA RESULT:      -7.5      2.147      2.531
REMARK  8 active torsions:
REMARK  status: ('A' for Active; 'I' for Inactive)
REMARK    1  A    between atoms: C_2  and  C_3 
REMARK    2  A    between atoms: C_3  and  C_4 
REMARK    3  A    between atoms: C_7  and  C_8 
REMARK    4  A    between atoms: C_8  and  N_9 
REMARK    5  A    between atoms: C_8  and  C_26 
REMARK    6  A    between atoms: N_9  and  C_12 
REMARK    7  A    between atoms: C_12  and  C_13 
REMARK       I    between atoms: C_13  and  N_14 
REMARK    8  A    between atoms: N_14  and  C_15 
ROOT
HETATM    1  N   UNL     1     -42.271  57.602 -54.051  1.00  0.00    -0.054 N 
HETATM    2  H   UNL     1     -42.809  58.288 -54.595  1.00  0.00     0.278 HD
HETATM    3  H   UNL     1     -41.580  58.170 -53.538  1.00  0.00     0.278 HD
ENDROOT
BRANCH   1   4
HETATM    4  C   UNL     1     -43.198  56.935 -53.095  1.00  0.00     0.259 C 
BRANCH   4   5
HETATM    5  C   UNL     1     -42.524  55.813 -52.317  1.00  0.00    -0.023 A 
HETATM    6  C   UNL     1     -42.855  54.458 -52.496  1.00  0.00     0.010 A 
HETATM    7  C   UNL     1     -42.187  53.459 -51.784  1.00  0.00     0.007 A 
HETATM    8  C   UNL     1     -41.159  53.781 -50.893  1.00  0.00    -0.058 A 
HETATM    9  C   UNL     1     -40.818  55.124 -50.714  1.00  0.00     0.007 A 
HETATM   10  C   UNL     1     -41.491  56.129 -51.415  1.00  0.00     0.010 A 
BRANCH   8  11
HETATM   11  C   UNL     1     -40.411  52.689 -50.164  1.00  0.00     0.038 C 
BRANCH  11  12
HETATM   12  C   UNL     1     -39.788  51.684 -51.135  1.00  0.00     0.000 C 
HETATM   13  C   UNL     1     -39.925  50.258 -50.625  1.00  0.00     0.005 C 
ENDBRANCH  11  12
ENDBRANCH   8  11
ENDBRANCH   4   5
BRANCH   4  14
HETATM   14  C   UNL     1     -43.873  57.934 -52.186  1.00  0.00     0.017 A 
HETATM   15  S   UNL     1     -43.240  59.525 -52.003  1.00  0.00    -0.104 SA
HETATM   16  C   UNL     1     -44.472  59.962 -50.906  1.00  0.00     0.050 A 
HETATM   17  C   UNL     1     -45.354  58.930 -50.681  1.00  0.00     0.008 A 
HETATM   18  C   UNL     1     -45.010  57.760 -51.419  1.00  0.00     0.017 A 
ENDBRANCH   4  14
ENDBRANCH   1   4
BRANCH   1  19
HETATM   19  C   UNL     1     -41.513  56.734 -55.017  1.00  0.00     0.336 C 
BRANCH  19  20
HETATM   20  C   UNL     1     -42.500  56.179 -56.047  1.00  0.00     0.248 C 
HETATM   21  N   UNL     1     -42.878  57.068 -57.031  1.00  0.00    -0.326 N 
HETATM   22  H   UNL     1     -42.528  58.020 -56.991  1.00  0.00     0.169 HD
HETATM   23  O   UNL     1     -42.828  54.998 -55.937  1.00  0.00    -0.271 OA
BRANCH  21  24
HETATM   24  C   UNL     1     -43.695  56.787 -58.153  1.00  0.00     0.037 A 
HETATM   25  C   UNL     1     -45.002  57.268 -58.302  1.00  0.00     0.061 A 
HETATM   26  C   UNL     1     -45.688  56.888 -59.436  1.00  0.00     0.065 A 
HETATM   27  C   UNL     1     -45.128  56.065 -60.408  1.00  0.00     0.063 A 
HETATM   28  N   UNL     1     -46.981  57.204 -59.835  1.00  0.00    -0.306 N 
HETATM   29  N   UNL     1     -46.077  55.872 -61.404  1.00  0.00    -0.307 N 
HETATM   30  C   UNL     1     -43.850  55.581 -60.301  1.00  0.00     0.034 A 
HETATM   31  C   UNL     1     -47.240  56.576 -61.063  1.00  0.00     0.325 A 
HETATM   32  H   UNL     1     -45.986  55.325 -62.246  1.00  0.00     0.170 HD
HETATM   33  O   UNL     1     -48.274  56.632 -61.702  1.00  0.00    -0.247 OA
HETATM   34  C   UNL     1     -43.130  55.952 -59.156  1.00  0.00     0.032 A 
HETATM   35  H   UNL     1     -47.654  57.782 -59.356  1.00  0.00     0.170 HD
ENDBRANCH  21  24
ENDBRANCH  19  20
ENDBRANCH   1  19
TORSDOF 8
ENDMDL
MODEL 10
REMARK VINA RESULT:      -7.5     16.368     18.711
REMARK  8 active torsions:
REMARK  status: ('A' for Active; 'I' for Inactive)
REMARK    1  A    between atoms: C_2  and  C_3 
REMARK    2  A    between atoms: C_3  and  C_4 
REMARK    3  A    between atoms: C_7  and  C_8 
REMARK    4  A    between atoms: C_8  and  N_9 
REMARK    5  A    between atoms: C_8  and  C_26 
REMARK    6  A    between atoms: N_9  and  C_12 
REMARK    7  A    between atoms: C_12  and  C_13 
REMARK       I    between atoms: C_13  and  N_14 
REMARK    8  A    between atoms: N_14  and  C_15 
ROOT
HETATM    1  N   UNL     1     -35.593  40.976 -53.031  1.00  0.00    -0.054 N 
HETATM    2  H   UNL     1     -35.982  40.118 -53.441  1.00  0.00     0.278 HD
HETATM    3  H   UNL     1     -35.972  40.992 -52.071  1.00  0.00     0.278 HD
ENDROOT
BRANCH   1   4
HETATM    4  C   UNL     1     -34.110  40.845 -52.994  1.00  0.00     0.259 C 
BRANCH   4   5
HETATM    5  C   UNL     1     -33.604  40.322 -51.656  1.00  0.00    -0.023 A 
HETATM    6  C   UNL     1     -34.448  39.718 -50.707  1.00  0.00     0.010 A 
HETATM    7  C   UNL     1     -33.935  39.221 -49.507  1.00  0.00     0.007 A 
HETATM    8  C   UNL     1     -32.566  39.294 -49.230  1.00  0.00    -0.058 A 
HETATM    9  C   UNL     1     -31.719  39.885 -50.170  1.00  0.00     0.007 A 
HETATM   10  C   UNL     1     -32.229  40.395 -51.368  1.00  0.00     0.010 A 
BRANCH   8  11
HETATM   11  C   UNL     1     -32.016  38.711 -47.950  1.00  0.00     0.038 C 
BRANCH  11  12
HETATM   12  C   UNL     1     -30.909  39.586 -47.358  1.00  0.00     0.000 C 
HETATM   13  C   UNL     1     -30.804  39.410 -45.852  1.00  0.00     0.005 C 
ENDBRANCH  11  12
ENDBRANCH   8  11
ENDBRANCH   4   5
BRANCH   4  14
HETATM   14  C   UNL     1     -33.594  40.033 -54.156  1.00  0.00     0.017 A 
HETATM   15  S   UNL     1     -34.250  38.479 -54.504  1.00  0.00    -0.104 SA
HETATM   16  C   UNL     1     -33.208  38.264 -55.839  1.00  0.00     0.050 A 
HETATM   17  C   UNL     1     -32.379  39.346 -56.028  1.00  0.00     0.008 A 
HETATM   18  C   UNL     1     -32.601  40.367 -55.059  1.00  0.00     0.017 A 
ENDBRANCH   4  14
ENDBRANCH   1   4
BRANCH   1  19
HETATM   19  C   UNL     1     -36.178  42.150 -53.767  1.00  0.00     0.336 C 
BRANCH  19  20
HETATM   20  C   UNL     1     -36.837  41.637 -55.050  1.00  0.00     0.248 C 
HETATM   21  N   UNL     1     -36.081  41.788 -56.193  1.00  0.00    -0.326 N 
HETATM   22  H   UNL     1     -35.183  42.254 -56.129  1.00  0.00     0.169 HD
HETATM   23  O   UNL     1     -37.941  41.104 -54.945  1.00  0.00    -0.271 OA
BRANCH  21  24
HETATM   24  C   UNL     1     -36.407  41.313 -57.488  1.00  0.00     0.037 A 
HETATM   25  C   UNL     1     -36.124  40.015 -57.932  1.00  0.00     0.061 A 
HETATM   26  C   UNL     1     -36.475  39.703 -59.228  1.00  0.00     0.065 A 
HETATM   27  C   UNL     1     -37.088  40.618 -60.078  1.00  0.00     0.063 A 
HETATM   28  N   UNL     1     -36.310  38.513 -59.927  1.00  0.00    -0.306 N 
HETATM   29  N   UNL     1     -37.298  39.993 -61.301  1.00  0.00    -0.307 N 
HETATM   30  C   UNL     1     -37.387  41.894 -59.678  1.00  0.00     0.034 A 
HETATM   31  C   UNL     1     -36.818  38.677 -61.224  1.00  0.00     0.325 A 
HETATM   32  H   UNL     1     -37.719  40.382 -62.130  1.00  0.00     0.170 HD
HETATM   33  O   UNL     1     -36.835  37.842 -62.108  1.00  0.00    -0.247 OA
HETATM   34  C   UNL     1     -37.040  42.238 -58.363  1.00  0.00     0.032 A 
HETATM   35  H   UNL     1     -35.901  37.652 -59.598  1.00  0.00     0.170 HD
ENDBRANCH  21  24
ENDBRANCH  19  20
ENDBRANCH   1  19
TORSDOF 8
ENDMDL
