MODEL 1
REMARK VINA RESULT:      -8.6      0.000      0.000
REMARK  7 active torsions:
REMARK  status: ('A' for Active; 'I' for Inactive)
REMARK    1  A    between atoms: C_8  and  C_9 
REMARK    2  A    between atoms: N_10  and  C_11 
REMARK    3  A    between atoms: C_14  and  S_15 
REMARK    4  A    between atoms: S_15  and  C_16 
REMARK    5  A    between atoms: C_16  and  C_17 
REMARK       I    between atoms: C_17  and  N_18 
REMARK    6  A    between atoms: N_21  and  C_22 
REMARK    7  A    between atoms: C_25  and  O_26 
ROOT
HETATM    1  C   UNL     1     -42.485  58.606 -55.115  1.00  0.00     0.167 A 
HETATM    2  N   UNL     1     -43.352  59.510 -54.523  1.00  0.00    -0.302 N 
HETATM    3  C   UNL     1     -42.568  60.304 -53.722  1.00  0.00     0.192 A 
HETATM    4  N   UNL     1     -41.309  59.954 -53.845  1.00  0.00    -0.122 NA
HETATM    5  N   UNL     1     -41.257  58.897 -54.714  1.00  0.00    -0.128 NA
ENDROOT
BRANCH   3   6
HETATM    6  S   UNL     1     -43.133  61.454 -52.562  1.00  0.00    -0.081 SA
BRANCH   6   7
HETATM    7  C   UNL     1     -43.018  60.459 -51.046  1.00  0.00     0.185 C 
BRANCH   7   8
HETATM    8  C   UNL     1     -43.871  59.194 -51.121  1.00  0.00     0.229 C 
HETATM    9  N   UNL     1     -43.187  57.998 -51.366  1.00  0.00    -0.348 N 
HETATM   10  C   UNL     1     -43.958  56.754 -51.260  1.00  0.00     0.145 C 
HETATM   11  C   UNL     1     -41.735  57.841 -51.180  1.00  0.00     0.145 C 
HETATM   12  C   UNL     1     -43.351  55.592 -52.064  1.00  0.00     0.143 C 
HETATM   13  N   UNL     1     -41.921  55.425 -51.734  1.00  0.00    -0.378 N 
HETATM   14  C   UNL     1     -41.142  56.660 -51.976  1.00  0.00     0.143 C 
HETATM   15  O   UNL     1     -45.098  59.207 -50.998  1.00  0.00    -0.273 OA
BRANCH  13  16
HETATM   16  C   UNL     1     -41.278  54.247 -52.144  1.00  0.00     0.030 A 
HETATM   17  C   UNL     1     -40.551  53.416 -51.274  1.00  0.00     0.032 A 
HETATM   18  C   UNL     1     -39.899  52.264 -51.733  1.00  0.00     0.039 A 
HETATM   19  C   UNL     1     -39.962  51.931 -53.078  1.00  0.00     0.065 A 
HETATM   20  C   UNL     1     -40.662  52.730 -53.967  1.00  0.00     0.039 A 
HETATM   21  C   UNL     1     -41.308  53.878 -53.500  1.00  0.00     0.032 A 
BRANCH  19  22
HETATM   22  O   UNL     1     -39.336  50.825 -53.570  1.00  0.00    -0.361 OA
HETATM   23  H   UNL     1     -38.617  51.111 -54.157  1.00  0.00     0.217 HD
ENDBRANCH  19  22
ENDBRANCH  13  16
ENDBRANCH   7   8
ENDBRANCH   6   7
ENDBRANCH   3   6
BRANCH   2  24
HETATM   24  C   UNL     1     -44.790  59.517 -54.681  1.00  0.00     0.094 A 
HETATM   25  C   UNL     1     -45.734  60.694 -54.697  1.00  0.00     0.028 A 
HETATM   26  C   UNL     1     -45.421  59.978 -55.978  1.00  0.00     0.028 A 
ENDBRANCH   2  24
BRANCH   1  27
HETATM   27  C   UNL     1     -42.752  57.491 -56.084  1.00  0.00     0.040 A 
HETATM   28  C   UNL     1     -42.533  57.545 -57.503  1.00  0.00     0.006 A 
HETATM   29  C   UNL     1     -42.067  58.530 -58.402  1.00  0.00     0.014 A 
HETATM   30  C   UNL     1     -42.895  56.302 -58.029  1.00  0.00     0.043 A 
HETATM   31  C   UNL     1     -41.980  58.243 -59.770  1.00  0.00     0.001 A 
HETATM   32  C   UNL     1     -42.344  56.990 -60.254  1.00  0.00     0.002 A 
HETATM   33  C   UNL     1     -42.807  55.994 -59.392  1.00  0.00     0.030 A 
HETATM   34  N   UNL     1     -43.324  55.529 -56.978  1.00  0.00    -0.364 N 
HETATM   35  H   UNL     1     -43.650  54.577 -57.066  1.00  0.00     0.165 HD
HETATM   36  C   UNL     1     -43.261  56.240 -55.805  1.00  0.00     0.104 A 
ENDBRANCH   1  27
TORSDOF 7
ENDMDL
MODEL 2
REMARK VINA RESULT:      -8.5      2.533      6.275
REMARK  7 active torsions:
REMARK  status: ('A' for Active; 'I' for Inactive)
REMARK    1  A    between atoms: C_8  and  C_9 
REMARK    2  A    between atoms: N_10  and  C_11 
REMARK    3  A    between atoms: C_14  and  S_15 
REMARK    4  A    between atoms: S_15  and  C_16 
REMARK    5  A    between atoms: C_16  and  C_17 
REMARK       I    between atoms: C_17  and  N_18 
REMARK    6  A    between atoms: N_21  and  C_22 
REMARK    7  A    between atoms: C_25  and  O_26 
ROOT
HETATM    1  C   UNL     1     -43.471  56.797 -51.297  1.00  0.00     0.167 A 
HETATM    2  N   UNL     1     -43.070  58.123 -51.279  1.00  0.00    -0.302 N 
HETATM    3  C   UNL     1     -44.217  58.855 -51.085  1.00  0.00     0.192 A 
HETATM    4  N   UNL     1     -45.241  58.045 -50.945  1.00  0.00    -0.122 NA
HETATM    5  N   UNL     1     -44.776  56.764 -51.075  1.00  0.00    -0.128 NA
ENDROOT
BRANCH   3   6
HETATM    6  S   UNL     1     -44.363  60.572 -51.211  1.00  0.00    -0.081 SA
BRANCH   6   7
HETATM    7  C   UNL     1     -44.862  60.722 -52.952  1.00  0.00     0.185 C 
BRANCH   7   8
HETATM    8  C   UNL     1     -43.683  60.551 -53.907  1.00  0.00     0.229 C 
HETATM    9  N   UNL     1     -43.900  59.732 -55.021  1.00  0.00    -0.348 N 
HETATM   10  C   UNL     1     -42.846  59.701 -56.042  1.00  0.00     0.145 C 
HETATM   11  C   UNL     1     -45.239  59.360 -55.506  1.00  0.00     0.145 C 
HETATM   12  C   UNL     1     -42.864  58.421 -56.896  1.00  0.00     0.143 C 
HETATM   13  N   UNL     1     -44.216  58.182 -57.441  1.00  0.00    -0.378 N 
HETATM   14  C   UNL     1     -45.241  58.087 -56.376  1.00  0.00     0.143 C 
HETATM   15  O   UNL     1     -42.585  61.078 -53.714  1.00  0.00    -0.273 OA
BRANCH  13  16
HETATM   16  C   UNL     1     -44.360  57.236 -58.467  1.00  0.00     0.030 A 
HETATM   17  C   UNL     1     -43.359  56.317 -58.822  1.00  0.00     0.032 A 
HETATM   18  C   UNL     1     -43.534  55.409 -59.875  1.00  0.00     0.039 A 
HETATM   19  C   UNL     1     -44.722  55.415 -60.594  1.00  0.00     0.065 A 
HETATM   20  C   UNL     1     -45.729  56.312 -60.278  1.00  0.00     0.039 A 
HETATM   21  C   UNL     1     -45.543  57.215 -59.227  1.00  0.00     0.032 A 
BRANCH  19  22
HETATM   22  O   UNL     1     -44.933  54.556 -61.631  1.00  0.00    -0.361 OA
HETATM   23  H   UNL     1     -45.890  54.431 -61.739  1.00  0.00     0.217 HD
ENDBRANCH  19  22
ENDBRANCH  13  16
ENDBRANCH   7   8
ENDBRANCH   6   7
ENDBRANCH   3   6
BRANCH   2  24
HETATM   24  C   UNL     1     -41.720  58.592 -51.510  1.00  0.00     0.094 A 
HETATM   25  C   UNL     1     -40.945  59.647 -50.760  1.00  0.00     0.028 A 
HETATM   26  C   UNL     1     -40.597  58.200 -50.575  1.00  0.00     0.028 A 
ENDBRANCH   2  24
BRANCH   1  27
HETATM   27  C   UNL     1     -42.671  55.539 -51.476  1.00  0.00     0.040 A 
HETATM   28  C   UNL     1     -41.939  55.175 -52.656  1.00  0.00     0.006 A 
HETATM   29  C   UNL     1     -41.735  55.765 -53.924  1.00  0.00     0.014 A 
HETATM   30  C   UNL     1     -41.328  53.944 -52.406  1.00  0.00     0.043 A 
HETATM   31  C   UNL     1     -40.942  55.115 -54.878  1.00  0.00     0.001 A 
HETATM   32  C   UNL     1     -40.345  53.892 -54.587  1.00  0.00     0.002 A 
HETATM   33  C   UNL     1     -40.525  53.283 -53.344  1.00  0.00     0.030 A 
HETATM   34  N   UNL     1     -41.680  53.571 -51.131  1.00  0.00    -0.364 N 
HETATM   35  H   UNL     1     -41.381  52.716 -50.684  1.00  0.00     0.165 HD
HETATM   36  C   UNL     1     -42.504  54.514 -50.569  1.00  0.00     0.104 A 
ENDBRANCH   1  27
TORSDOF 7
ENDMDL
MODEL 3
REMARK VINA RESULT:      -8.3      2.599      6.155
REMARK  7 active torsions:
REMARK  status: ('A' for Active; 'I' for Inactive)
REMARK    1  A    between atoms: C_8  and  C_9 
REMARK    2  A    between atoms: N_10  and  C_11 
REMARK    3  A    between atoms: C_14  and  S_15 
REMARK    4  A    between atoms: S_15  and  C_16 
REMARK    5  A    between atoms: C_16  and  C_17 
REMARK       I    between atoms: C_17  and  N_18 
REMARK    6  A    between atoms: N_21  and  C_22 
REMARK    7  A    between atoms: C_25  and  O_26 
ROOT
HETATM    1  C   UNL     1     -41.346  57.534 -52.538  1.00  0.00     0.167 A 
HETATM    2  N   UNL     1     -42.415  58.410 -52.447  1.00  0.00    -0.302 N 
HETATM    3  C   UNL     1     -41.916  59.642 -52.793  1.00  0.00     0.192 A 
HETATM    4  N   UNL     1     -40.649  59.532 -53.120  1.00  0.00    -0.122 NA
HETATM    5  N   UNL     1     -40.294  58.219 -52.963  1.00  0.00    -0.128 NA
ENDROOT
BRANCH   3   6
HETATM    6  S   UNL     1     -42.736  61.155 -52.634  1.00  0.00    -0.081 SA
BRANCH   6   7
HETATM    7  C   UNL     1     -42.966  61.578 -54.387  1.00  0.00     0.185 C 
BRANCH   7   8
HETATM    8  C   UNL     1     -44.361  61.213 -54.890  1.00  0.00     0.229 C 
HETATM    9  N   UNL     1     -44.429  60.196 -55.848  1.00  0.00    -0.348 N 
HETATM   10  C   UNL     1     -45.765  59.706 -56.209  1.00  0.00     0.145 C 
HETATM   11  C   UNL     1     -43.335  59.244 -56.100  1.00  0.00     0.145 C 
HETATM   12  C   UNL     1     -45.819  59.053 -57.600  1.00  0.00     0.143 C 
HETATM   13  N   UNL     1     -44.764  58.027 -57.731  1.00  0.00    -0.378 N 
HETATM   14  C   UNL     1     -43.412  58.581 -57.491  1.00  0.00     0.143 C 
HETATM   15  O   UNL     1     -45.382  61.786 -54.503  1.00  0.00    -0.273 OA
BRANCH  13  16
HETATM   16  C   UNL     1     -44.838  57.132 -58.809  1.00  0.00     0.030 A 
HETATM   17  C   UNL     1     -45.946  57.041 -59.668  1.00  0.00     0.032 A 
HETATM   18  C   UNL     1     -45.991  56.111 -60.715  1.00  0.00     0.039 A 
HETATM   19  C   UNL     1     -44.920  55.250 -60.912  1.00  0.00     0.065 A 
HETATM   20  C   UNL     1     -43.814  55.304 -60.081  1.00  0.00     0.039 A 
HETATM   21  C   UNL     1     -43.780  56.235 -59.038  1.00  0.00     0.032 A 
BRANCH  19  22
HETATM   22  O   UNL     1     -44.923  54.324 -61.912  1.00  0.00    -0.361 OA
HETATM   23  H   UNL     1     -45.817  53.952 -61.986  1.00  0.00     0.217 HD
ENDBRANCH  19  22
ENDBRANCH  13  16
ENDBRANCH   7   8
ENDBRANCH   6   7
ENDBRANCH   3   6
BRANCH   2  24
HETATM   24  C   UNL     1     -43.745  58.063 -51.991  1.00  0.00     0.094 A 
HETATM   25  C   UNL     1     -45.060  58.722 -52.326  1.00  0.00     0.028 A 
HETATM   26  C   UNL     1     -44.727  57.387 -52.924  1.00  0.00     0.028 A 
ENDBRANCH   2  24
BRANCH   1  27
HETATM   27  C   UNL     1     -41.271  56.057 -52.279  1.00  0.00     0.040 A 
HETATM   28  C   UNL     1     -40.886  55.059 -53.237  1.00  0.00     0.006 A 
HETATM   29  C   UNL     1     -40.505  55.078 -54.597  1.00  0.00     0.014 A 
HETATM   30  C   UNL     1     -40.935  53.821 -52.592  1.00  0.00     0.043 A 
HETATM   31  C   UNL     1     -40.192  53.880 -55.252  1.00  0.00     0.001 A 
HETATM   32  C   UNL     1     -40.246  52.667 -54.572  1.00  0.00     0.002 A 
HETATM   33  C   UNL     1     -40.618  52.614 -53.227  1.00  0.00     0.030 A 
HETATM   34  N   UNL     1     -41.340  54.055 -51.300  1.00  0.00    -0.364 N 
HETATM   35  H   UNL     1     -41.465  53.335 -50.602  1.00  0.00     0.165 HD
HETATM   36  C   UNL     1     -41.564  55.395 -51.105  1.00  0.00     0.104 A 
ENDBRANCH   1  27
TORSDOF 7
ENDMDL
MODEL 4
REMARK VINA RESULT:      -8.3      1.897      2.659
REMARK  7 active torsions:
REMARK  status: ('A' for Active; 'I' for Inactive)
REMARK    1  A    between atoms: C_8  and  C_9 
REMARK    2  A    between atoms: N_10  and  C_11 
REMARK    3  A    between atoms: C_14  and  S_15 
REMARK    4  A    between atoms: S_15  and  C_16 
REMARK    5  A    between atoms: C_16  and  C_17 
REMARK       I    between atoms: C_17  and  N_18 
REMARK    6  A    between atoms: N_21  and  C_22 
REMARK    7  A    between atoms: C_25  and  O_26 
ROOT
HETATM    1  C   UNL     1     -43.261  59.361 -57.623  1.00  0.00     0.167 A 
HETATM    2  N   UNL     1     -43.854  59.684 -56.413  1.00  0.00    -0.302 N 
HETATM    3  C   UNL     1     -42.878  60.313 -55.678  1.00  0.00     0.192 A 
HETATM    4  N   UNL     1     -41.782  60.416 -56.393  1.00  0.00    -0.122 NA
HETATM    5  N   UNL     1     -42.021  59.824 -57.605  1.00  0.00    -0.128 NA
ENDROOT
BRANCH   3   6
HETATM    6  S   UNL     1     -42.972  60.730 -54.004  1.00  0.00    -0.081 SA
BRANCH   6   7
HETATM    7  C   UNL     1     -41.795  59.531 -53.312  1.00  0.00     0.185 C 
BRANCH   7   8
HETATM    8  C   UNL     1     -42.494  58.433 -52.512  1.00  0.00     0.229 C 
HETATM    9  N   UNL     1     -41.980  57.139 -52.656  1.00  0.00    -0.348 N 
HETATM   10  C   UNL     1     -42.515  56.105 -51.762  1.00  0.00     0.145 C 
HETATM   11  C   UNL     1     -40.642  56.852 -53.197  1.00  0.00     0.145 C 
HETATM   12  C   UNL     1     -42.364  54.680 -52.320  1.00  0.00     0.143 C 
HETATM   13  N   UNL     1     -40.967  54.432 -52.733  1.00  0.00    -0.378 N 
HETATM   14  C   UNL     1     -40.496  55.414 -53.736  1.00  0.00     0.143 C 
HETATM   15  O   UNL     1     -43.471  58.649 -51.793  1.00  0.00    -0.273 OA
BRANCH  13  16
HETATM   16  C   UNL     1     -40.576  53.110 -52.992  1.00  0.00     0.030 A 
HETATM   17  C   UNL     1     -40.872  52.432 -54.187  1.00  0.00     0.032 A 
HETATM   18  C   UNL     1     -40.487  51.100 -54.392  1.00  0.00     0.039 A 
HETATM   19  C   UNL     1     -39.802  50.424 -53.392  1.00  0.00     0.065 A 
HETATM   20  C   UNL     1     -39.500  51.056 -52.197  1.00  0.00     0.039 A 
HETATM   21  C   UNL     1     -39.889  52.384 -52.002  1.00  0.00     0.032 A 
BRANCH  19  22
HETATM   22  O   UNL     1     -39.416  49.126 -53.544  1.00  0.00    -0.361 OA
HETATM   23  H   UNL     1     -38.875  48.872 -52.779  1.00  0.00     0.217 HD
ENDBRANCH  19  22
ENDBRANCH  13  16
ENDBRANCH   7   8
ENDBRANCH   6   7
ENDBRANCH   3   6
BRANCH   2  24
HETATM   24  C   UNL     1     -45.202  59.331 -56.020  1.00  0.00     0.094 A 
HETATM   25  C   UNL     1     -46.168  58.391 -56.697  1.00  0.00     0.028 A 
HETATM   26  C   UNL     1     -45.499  57.972 -55.422  1.00  0.00     0.028 A 
ENDBRANCH   2  24
BRANCH   1  27
HETATM   27  C   UNL     1     -43.823  58.662 -58.827  1.00  0.00     0.040 A 
HETATM   28  C   UNL     1     -43.877  57.239 -59.018  1.00  0.00     0.006 A 
HETATM   29  C   UNL     1     -43.465  56.116 -58.266  1.00  0.00     0.014 A 
HETATM   30  C   UNL     1     -44.482  57.007 -60.256  1.00  0.00     0.043 A 
HETATM   31  C   UNL     1     -43.670  54.826 -58.768  1.00  0.00     0.001 A 
HETATM   32  C   UNL     1     -44.283  54.635 -60.003  1.00  0.00     0.002 A 
HETATM   33  C   UNL     1     -44.702  55.724 -60.771  1.00  0.00     0.030 A 
HETATM   34  N   UNL     1     -44.776  58.235 -60.798  1.00  0.00    -0.364 N 
HETATM   35  H   UNL     1     -45.219  58.371 -61.695  1.00  0.00     0.165 HD
HETATM   36  C   UNL     1     -44.366  59.239 -59.956  1.00  0.00     0.104 A 
ENDBRANCH   1  27
TORSDOF 7
ENDMDL
MODEL 5
REMARK VINA RESULT:      -8.2      4.217      8.172
REMARK  7 active torsions:
REMARK  status: ('A' for Active; 'I' for Inactive)
REMARK    1  A    between atoms: C_8  and  C_9 
REMARK    2  A    between atoms: N_10  and  C_11 
REMARK    3  A    between atoms: C_14  and  S_15 
REMARK    4  A    between atoms: S_15  and  C_16 
REMARK    5  A    between atoms: C_16  and  C_17 
REMARK       I    between atoms: C_17  and  N_18 
REMARK    6  A    between atoms: N_21  and  C_22 
REMARK    7  A    between atoms: C_25  and  O_26 
ROOT
HETATM    1  C   UNL     1     -45.708  61.725 -49.102  1.00  0.00     0.167 A 
HETATM    2  N   UNL     1     -44.731  62.082 -50.017  1.00  0.00    -0.302 N 
HETATM    3  C   UNL     1     -44.301  60.904 -50.579  1.00  0.00     0.192 A 
HETATM    4  N   UNL     1     -44.991  59.900 -50.087  1.00  0.00    -0.122 NA
HETATM    5  N   UNL     1     -45.867  60.412 -49.169  1.00  0.00    -0.128 NA
ENDROOT
BRANCH   3   6
HETATM    6  S   UNL     1     -42.932  60.708 -51.614  1.00  0.00    -0.081 SA
BRANCH   6   7
HETATM    7  C   UNL     1     -42.797  58.896 -51.624  1.00  0.00     0.185 C 
BRANCH   7   8
HETATM    8  C   UNL     1     -42.200  58.369 -52.928  1.00  0.00     0.229 C 
HETATM    9  N   UNL     1     -41.847  57.015 -52.946  1.00  0.00    -0.348 N 
HETATM   10  C   UNL     1     -41.445  56.447 -54.239  1.00  0.00     0.145 C 
HETATM   11  C   UNL     1     -42.346  56.033 -51.970  1.00  0.00     0.145 C 
HETATM   12  C   UNL     1     -40.557  55.198 -54.104  1.00  0.00     0.143 C 
HETATM   13  N   UNL     1     -41.184  54.212 -53.201  1.00  0.00    -0.378 N 
HETATM   14  C   UNL     1     -41.458  54.777 -51.860  1.00  0.00     0.143 C 
HETATM   15  O   UNL     1     -42.011  59.085 -53.914  1.00  0.00    -0.273 OA
BRANCH  13  16
HETATM   16  C   UNL     1     -40.671  52.907 -53.184  1.00  0.00     0.030 A 
HETATM   17  C   UNL     1     -40.707  52.044 -54.292  1.00  0.00     0.032 A 
HETATM   18  C   UNL     1     -40.209  50.736 -54.222  1.00  0.00     0.039 A 
HETATM   19  C   UNL     1     -39.671  50.271 -53.030  1.00  0.00     0.065 A 
HETATM   20  C   UNL     1     -39.625  51.090 -51.914  1.00  0.00     0.039 A 
HETATM   21  C   UNL     1     -40.126  52.393 -51.994  1.00  0.00     0.032 A 
BRANCH  19  22
HETATM   22  O   UNL     1     -39.182  49.004 -52.913  1.00  0.00    -0.361 OA
HETATM   23  H   UNL     1     -39.259  48.727 -51.985  1.00  0.00     0.217 HD
ENDBRANCH  19  22
ENDBRANCH  13  16
ENDBRANCH   7   8
ENDBRANCH   6   7
ENDBRANCH   3   6
BRANCH   2  24
HETATM   24  C   UNL     1     -44.239  63.425 -50.236  1.00  0.00     0.094 A 
HETATM   25  C   UNL     1     -43.952  64.503 -49.220  1.00  0.00     0.028 A 
HETATM   26  C   UNL     1     -42.812  63.790 -49.885  1.00  0.00     0.028 A 
ENDBRANCH   2  24
BRANCH   1  27
HETATM   27  C   UNL     1     -46.538  62.573 -48.183  1.00  0.00     0.040 A 
HETATM   28  C   UNL     1     -46.172  62.967 -46.851  1.00  0.00     0.006 A 
HETATM   29  C   UNL     1     -45.062  62.727 -46.011  1.00  0.00     0.014 A 
HETATM   30  C   UNL     1     -47.210  63.757 -46.349  1.00  0.00     0.043 A 
HETATM   31  C   UNL     1     -45.029  63.277 -44.723  1.00  0.00     0.001 A 
HETATM   32  C   UNL     1     -46.079  64.065 -44.262  1.00  0.00     0.002 A 
HETATM   33  C   UNL     1     -47.190  64.321 -45.068  1.00  0.00     0.030 A 
HETATM   34  N   UNL     1     -48.168  63.834 -47.330  1.00  0.00    -0.364 N 
HETATM   35  H   UNL     1     -49.037  64.342 -47.241  1.00  0.00     0.165 HD
HETATM   36  C   UNL     1     -47.785  63.108 -48.431  1.00  0.00     0.104 A 
ENDBRANCH   1  27
TORSDOF 7
ENDMDL
MODEL 6
REMARK VINA RESULT:      -7.9      1.896      2.614
REMARK  7 active torsions:
REMARK  status: ('A' for Active; 'I' for Inactive)
REMARK    1  A    between atoms: C_8  and  C_9 
REMARK    2  A    between atoms: N_10  and  C_11 
REMARK    3  A    between atoms: C_14  and  S_15 
REMARK    4  A    between atoms: S_15  and  C_16 
REMARK    5  A    between atoms: C_16  and  C_17 
REMARK       I    between atoms: C_17  and  N_18 
REMARK    6  A    between atoms: N_21  and  C_22 
REMARK    7  A    between atoms: C_25  and  O_26 
ROOT
HETATM    1  C   UNL     1     -44.233  58.170 -56.586  1.00  0.00     0.167 A 
HETATM    2  N   UNL     1     -43.484  59.268 -56.198  1.00  0.00    -0.302 N 
HETATM    3  C   UNL     1     -44.180  59.845 -55.164  1.00  0.00     0.192 A 
HETATM    4  N   UNL     1     -45.251  59.134 -54.898  1.00  0.00    -0.122 NA
HETATM    5  N   UNL     1     -45.284  58.089 -55.783  1.00  0.00    -0.128 NA
ENDROOT
BRANCH   3   6
HETATM    6  S   UNL     1     -43.845  61.378 -54.440  1.00  0.00    -0.081 SA
BRANCH   6   7
HETATM    7  C   UNL     1     -42.419  60.936 -53.404  1.00  0.00     0.185 C 
BRANCH   7   8
HETATM    8  C   UNL     1     -42.776  59.894 -52.345  1.00  0.00     0.229 C 
HETATM    9  N   UNL     1     -42.257  58.609 -52.539  1.00  0.00    -0.348 N 
HETATM   10  C   UNL     1     -42.435  57.645 -51.446  1.00  0.00     0.145 C 
HETATM   11  C   UNL     1     -41.134  58.315 -53.443  1.00  0.00     0.145 C 
HETATM   12  C   UNL     1     -42.379  56.180 -51.912  1.00  0.00     0.143 C 
HETATM   13  N   UNL     1     -41.163  55.939 -52.715  1.00  0.00    -0.378 N 
HETATM   14  C   UNL     1     -41.077  56.839 -53.887  1.00  0.00     0.143 C 
HETATM   15  O   UNL     1     -43.499  60.145 -51.378  1.00  0.00    -0.273 OA
BRANCH  13  16
HETATM   16  C   UNL     1     -40.794  54.611 -52.979  1.00  0.00     0.030 A 
HETATM   17  C   UNL     1     -40.552  53.658 -51.975  1.00  0.00     0.032 A 
HETATM   18  C   UNL     1     -40.156  52.350 -52.283  1.00  0.00     0.039 A 
HETATM   19  C   UNL     1     -39.991  51.979 -53.610  1.00  0.00     0.065 A 
HETATM   20  C   UNL     1     -40.212  52.893 -54.627  1.00  0.00     0.039 A 
HETATM   21  C   UNL     1     -40.606  54.196 -54.309  1.00  0.00     0.032 A 
BRANCH  19  22
HETATM   22  O   UNL     1     -39.599  50.721 -53.957  1.00  0.00    -0.361 OA
HETATM   23  H   UNL     1     -40.224  50.372 -54.613  1.00  0.00     0.217 HD
ENDBRANCH  19  22
ENDBRANCH  13  16
ENDBRANCH   7   8
ENDBRANCH   6   7
ENDBRANCH   3   6
BRANCH   2  24
HETATM   24  C   UNL     1     -42.269  59.722 -56.841  1.00  0.00     0.094 A 
HETATM   25  C   UNL     1     -41.913  59.709 -58.307  1.00  0.00     0.028 A 
HETATM   26  C   UNL     1     -42.253  61.008 -57.639  1.00  0.00     0.028 A 
ENDBRANCH   2  24
BRANCH   1  27
HETATM   27  C   UNL     1     -43.988  57.154 -57.665  1.00  0.00     0.040 A 
HETATM   28  C   UNL     1     -44.880  56.856 -58.751  1.00  0.00     0.006 A 
HETATM   29  C   UNL     1     -46.152  57.321 -59.151  1.00  0.00     0.014 A 
HETATM   30  C   UNL     1     -44.272  55.868 -59.530  1.00  0.00     0.043 A 
HETATM   31  C   UNL     1     -46.760  56.793 -60.296  1.00  0.00     0.001 A 
HETATM   32  C   UNL     1     -46.120  55.815 -61.051  1.00  0.00     0.002 A 
HETATM   33  C   UNL     1     -44.861  55.334 -60.682  1.00  0.00     0.030 A 
HETATM   34  N   UNL     1     -43.068  55.573 -58.940  1.00  0.00    -0.364 N 
HETATM   35  H   UNL     1     -42.414  54.887 -59.290  1.00  0.00     0.165 HD
HETATM   36  C   UNL     1     -42.894  56.326 -57.805  1.00  0.00     0.104 A 
ENDBRANCH   1  27
TORSDOF 7
ENDMDL
MODEL 7
REMARK VINA RESULT:      -7.9      3.888      8.630
REMARK  7 active torsions:
REMARK  status: ('A' for Active; 'I' for Inactive)
REMARK    1  A    between atoms: C_8  and  C_9 
REMARK    2  A    between atoms: N_10  and  C_11 
REMARK    3  A    between atoms: C_14  and  S_15 
REMARK    4  A    between atoms: S_15  and  C_16 
REMARK    5  A    between atoms: C_16  and  C_17 
REMARK       I    between atoms: C_17  and  N_18 
REMARK    6  A    between atoms: N_21  and  C_22 
REMARK    7  A    between atoms: C_25  and  O_26 
ROOT
HETATM    1  C   UNL     1     -41.200  54.885 -53.360  1.00  0.00     0.167 A 
HETATM    2  N   UNL     1     -42.474  55.427 -53.301  1.00  0.00    -0.302 N 
HETATM    3  C   UNL     1     -42.489  56.438 -54.232  1.00  0.00     0.192 A 
HETATM    4  N   UNL     1     -41.333  56.488 -54.852  1.00  0.00    -0.122 NA
HETATM    5  N   UNL     1     -40.530  55.519 -54.310  1.00  0.00    -0.128 NA
ENDROOT
BRANCH   3   6
HETATM    6  S   UNL     1     -43.737  57.615 -54.437  1.00  0.00    -0.081 SA
BRANCH   6   7
HETATM    7  C   UNL     1     -44.063  57.426 -56.214  1.00  0.00     0.185 C 
BRANCH   7   8
HETATM    8  C   UNL     1     -44.593  58.713 -56.844  1.00  0.00     0.229 C 
HETATM    9  N   UNL     1     -43.673  59.469 -57.579  1.00  0.00    -0.348 N 
HETATM   10  C   UNL     1     -44.201  60.607 -58.341  1.00  0.00     0.145 C 
HETATM   11  C   UNL     1     -42.397  58.932 -58.079  1.00  0.00     0.145 C 
HETATM   12  C   UNL     1     -43.145  61.687 -58.633  1.00  0.00     0.143 C 
HETATM   13  N   UNL     1     -41.942  61.082 -59.241  1.00  0.00    -0.378 N 
HETATM   14  C   UNL     1     -41.353  60.025 -58.387  1.00  0.00     0.143 C 
HETATM   15  O   UNL     1     -45.757  59.095 -56.705  1.00  0.00    -0.273 OA
BRANCH  13  16
HETATM   16  C   UNL     1     -41.000  61.934 -59.837  1.00  0.00     0.030 A 
HETATM   17  C   UNL     1     -40.903  62.136 -61.224  1.00  0.00     0.032 A 
HETATM   18  C   UNL     1     -39.926  62.973 -61.779  1.00  0.00     0.039 A 
HETATM   19  C   UNL     1     -39.024  63.619 -60.945  1.00  0.00     0.065 A 
HETATM   20  C   UNL     1     -39.083  63.439 -59.573  1.00  0.00     0.039 A 
HETATM   21  C   UNL     1     -40.060  62.600 -59.029  1.00  0.00     0.032 A 
BRANCH  19  22
HETATM   22  O   UNL     1     -38.052  64.436 -61.441  1.00  0.00    -0.361 OA
HETATM   23  H   UNL     1     -38.390  65.346 -61.453  1.00  0.00     0.217 HD
ENDBRANCH  19  22
ENDBRANCH  13  16
ENDBRANCH   7   8
ENDBRANCH   6   7
ENDBRANCH   3   6
BRANCH   2  24
HETATM   24  C   UNL     1     -43.510  55.031 -52.373  1.00  0.00     0.094 A 
HETATM   25  C   UNL     1     -43.442  54.020 -51.255  1.00  0.00     0.028 A 
HETATM   26  C   UNL     1     -43.466  55.484 -50.929  1.00  0.00     0.028 A 
ENDBRANCH   2  24
BRANCH   1  27
HETATM   27  C   UNL     1     -40.584  53.758 -52.582  1.00  0.00     0.040 A 
HETATM   28  C   UNL     1     -40.366  52.425 -53.072  1.00  0.00     0.006 A 
HETATM   29  C   UNL     1     -40.626  51.756 -54.288  1.00  0.00     0.014 A 
HETATM   30  C   UNL     1     -39.763  51.696 -52.043  1.00  0.00     0.043 A 
HETATM   31  C   UNL     1     -40.279  50.407 -54.431  1.00  0.00     0.001 A 
HETATM   32  C   UNL     1     -39.674  49.717 -53.386  1.00  0.00     0.002 A 
HETATM   33  C   UNL     1     -39.402  50.350 -52.171  1.00  0.00     0.030 A 
HETATM   34  N   UNL     1     -39.628  52.546 -50.972  1.00  0.00    -0.364 N 
HETATM   35  H   UNL     1     -39.223  52.284 -50.084  1.00  0.00     0.165 HD
HETATM   36  C   UNL     1     -40.137  53.783 -51.277  1.00  0.00     0.104 A 
ENDBRANCH   1  27
TORSDOF 7
ENDMDL
MODEL 8
REMARK VINA RESULT:      -7.9      3.623      8.442
REMARK  7 active torsions:
REMARK  status: ('A' for Active; 'I' for Inactive)
REMARK    1  A    between atoms: C_8  and  C_9 
REMARK    2  A    between atoms: N_10  and  C_11 
REMARK    3  A    between atoms: C_14  and  S_15 
REMARK    4  A    between atoms: S_15  and  C_16 
REMARK    5  A    between atoms: C_16  and  C_17 
REMARK       I    between atoms: C_17  and  N_18 
REMARK    6  A    between atoms: N_21  and  C_22 
REMARK    7  A    between atoms: C_25  and  O_26 
ROOT
HETATM    1  C   UNL     1     -41.241  54.924 -53.292  1.00  0.00     0.167 A 
HETATM    2  N   UNL     1     -42.510  55.475 -53.220  1.00  0.00    -0.302 N 
HETATM    3  C   UNL     1     -42.532  56.479 -54.157  1.00  0.00     0.192 A 
HETATM    4  N   UNL     1     -41.385  56.516 -54.795  1.00  0.00    -0.122 NA
HETATM    5  N   UNL     1     -40.581  55.547 -54.256  1.00  0.00    -0.128 NA
ENDROOT
BRANCH   3   6
HETATM    6  S   UNL     1     -43.775  57.663 -54.354  1.00  0.00    -0.081 SA
BRANCH   6   7
HETATM    7  C   UNL     1     -43.278  58.860 -53.080  1.00  0.00     0.185 C 
BRANCH   7   8
HETATM    8  C   UNL     1     -44.003  60.196 -53.229  1.00  0.00     0.229 C 
HETATM    9  N   UNL     1     -44.568  60.729 -52.064  1.00  0.00    -0.348 N 
HETATM   10  C   UNL     1     -45.107  62.091 -52.147  1.00  0.00     0.145 C 
HETATM   11  C   UNL     1     -44.191  60.296 -50.709  1.00  0.00     0.145 C 
HETATM   12  C   UNL     1     -46.176  62.388 -51.081  1.00  0.00     0.143 C 
HETATM   13  N   UNL     1     -45.678  62.035 -49.736  1.00  0.00    -0.378 N 
HETATM   14  C   UNL     1     -45.262  60.617 -49.646  1.00  0.00     0.143 C 
HETATM   15  O   UNL     1     -44.117  60.778 -54.310  1.00  0.00    -0.273 OA
BRANCH  13  16
HETATM   16  C   UNL     1     -46.391  62.500 -48.621  1.00  0.00     0.030 A 
HETATM   17  C   UNL     1     -47.231  63.626 -48.650  1.00  0.00     0.032 A 
HETATM   18  C   UNL     1     -47.902  64.073 -47.504  1.00  0.00     0.039 A 
HETATM   19  C   UNL     1     -47.732  63.397 -46.304  1.00  0.00     0.065 A 
HETATM   20  C   UNL     1     -46.905  62.288 -46.234  1.00  0.00     0.039 A 
HETATM   21  C   UNL     1     -46.240  61.850 -47.383  1.00  0.00     0.032 A 
BRANCH  19  22
HETATM   22  O   UNL     1     -48.357  63.800 -45.163  1.00  0.00    -0.361 OA
HETATM   23  H   UNL     1     -47.832  63.505 -44.401  1.00  0.00     0.217 HD
ENDBRANCH  19  22
ENDBRANCH  13  16
ENDBRANCH   7   8
ENDBRANCH   6   7
ENDBRANCH   3   6
BRANCH   2  24
HETATM   24  C   UNL     1     -43.536  55.093 -52.273  1.00  0.00     0.094 A 
HETATM   25  C   UNL     1     -43.396  54.307 -50.994  1.00  0.00     0.028 A 
HETATM   26  C   UNL     1     -43.643  55.785 -50.931  1.00  0.00     0.028 A 
ENDBRANCH   2  24
BRANCH   1  27
HETATM   27  C   UNL     1     -40.622  53.799 -52.514  1.00  0.00     0.040 A 
HETATM   28  C   UNL     1     -40.377  52.474 -53.012  1.00  0.00     0.006 A 
HETATM   29  C   UNL     1     -40.609  51.811 -54.238  1.00  0.00     0.014 A 
HETATM   30  C   UNL     1     -39.781  51.744 -51.980  1.00  0.00     0.043 A 
HETATM   31  C   UNL     1     -40.241  50.469 -54.387  1.00  0.00     0.001 A 
HETATM   32  C   UNL     1     -39.642  49.778 -53.338  1.00  0.00     0.002 A 
HETATM   33  C   UNL     1     -39.399  50.404 -52.114  1.00  0.00     0.030 A 
HETATM   34  N   UNL     1     -39.674  52.586 -50.900  1.00  0.00    -0.364 N 
HETATM   35  H   UNL     1     -39.280  52.322 -50.008  1.00  0.00     0.165 HD
HETATM   36  C   UNL     1     -40.196  53.819 -51.203  1.00  0.00     0.104 A 
ENDBRANCH   1  27
TORSDOF 7
ENDMDL
MODEL 9
REMARK VINA RESULT:      -7.8      2.444      6.026
REMARK  7 active torsions:
REMARK  status: ('A' for Active; 'I' for Inactive)
REMARK    1  A    between atoms: C_8  and  C_9 
REMARK    2  A    between atoms: N_10  and  C_11 
REMARK    3  A    between atoms: C_14  and  S_15 
REMARK    4  A    between atoms: S_15  and  C_16 
REMARK    5  A    between atoms: C_16  and  C_17 
REMARK       I    between atoms: C_17  and  N_18 
REMARK    6  A    between atoms: N_21  and  C_22 
REMARK    7  A    between atoms: C_25  and  O_26 
ROOT
HETATM    1  C   UNL     1     -43.565  57.100 -51.207  1.00  0.00     0.167 A 
HETATM    2  N   UNL     1     -43.304  58.460 -51.230  1.00  0.00    -0.302 N 
HETATM    3  C   UNL     1     -44.507  59.072 -50.972  1.00  0.00     0.192 A 
HETATM    4  N   UNL     1     -45.430  58.163 -50.757  1.00  0.00    -0.122 NA
HETATM    5  N   UNL     1     -44.843  56.935 -50.902  1.00  0.00    -0.128 NA
ENDROOT
BRANCH   3   6
HETATM    6  S   UNL     1     -44.841  60.762 -51.106  1.00  0.00    -0.081 SA
BRANCH   6   7
HETATM    7  C   UNL     1     -46.318  60.712 -52.164  1.00  0.00     0.185 C 
BRANCH   7   8
HETATM    8  C   UNL     1     -46.085  61.392 -53.512  1.00  0.00     0.229 C 
HETATM    9  N   UNL     1     -45.495  60.607 -54.509  1.00  0.00    -0.348 N 
HETATM   10  C   UNL     1     -45.431  61.179 -55.859  1.00  0.00     0.145 C 
HETATM   11  C   UNL     1     -45.443  59.137 -54.460  1.00  0.00     0.145 C 
HETATM   12  C   UNL     1     -44.317  60.569 -56.726  1.00  0.00     0.143 C 
HETATM   13  N   UNL     1     -44.406  59.094 -56.719  1.00  0.00    -0.378 N 
HETATM   14  C   UNL     1     -44.335  58.535 -55.350  1.00  0.00     0.143 C 
HETATM   15  O   UNL     1     -46.374  62.571 -53.723  1.00  0.00    -0.273 OA
BRANCH  13  16
HETATM   16  C   UNL     1     -43.665  58.380 -57.673  1.00  0.00     0.030 A 
HETATM   17  C   UNL     1     -43.633  56.977 -57.739  1.00  0.00     0.032 A 
HETATM   18  C   UNL     1     -42.855  56.303 -58.690  1.00  0.00     0.039 A 
HETATM   19  C   UNL     1     -42.090  57.032 -59.589  1.00  0.00     0.065 A 
HETATM   20  C   UNL     1     -42.090  58.417 -59.550  1.00  0.00     0.039 A 
HETATM   21  C   UNL     1     -42.868  59.079 -58.596  1.00  0.00     0.032 A 
BRANCH  19  22
HETATM   22  O   UNL     1     -41.312  56.420 -60.526  1.00  0.00    -0.361 OA
HETATM   23  H   UNL     1     -41.839  56.295 -61.332  1.00  0.00     0.217 HD
ENDBRANCH  19  22
ENDBRANCH  13  16
ENDBRANCH   7   8
ENDBRANCH   6   7
ENDBRANCH   3   6
BRANCH   2  24
HETATM   24  C   UNL     1     -42.029  59.063 -51.552  1.00  0.00     0.094 A 
HETATM   25  C   UNL     1     -40.909  58.511 -52.400  1.00  0.00     0.028 A 
HETATM   26  C   UNL     1     -41.766  59.619 -52.936  1.00  0.00     0.028 A 
ENDBRANCH   2  24
BRANCH   1  27
HETATM   27  C   UNL     1     -42.650  55.929 -51.423  1.00  0.00     0.040 A 
HETATM   28  C   UNL     1     -42.537  55.169 -52.636  1.00  0.00     0.006 A 
HETATM   29  C   UNL     1     -43.166  55.212 -53.901  1.00  0.00     0.014 A 
HETATM   30  C   UNL     1     -41.571  54.182 -52.422  1.00  0.00     0.043 A 
HETATM   31  C   UNL     1     -42.811  54.285 -54.889  1.00  0.00     0.001 A 
HETATM   32  C   UNL     1     -41.838  53.322 -54.640  1.00  0.00     0.002 A 
HETATM   33  C   UNL     1     -41.198  53.253 -53.401  1.00  0.00     0.030 A 
HETATM   34  N   UNL     1     -41.121  54.331 -51.133  1.00  0.00    -0.364 N 
HETATM   35  H   UNL     1     -40.417  53.748 -50.704  1.00  0.00     0.165 HD
HETATM   36  C   UNL     1     -41.778  55.366 -50.515  1.00  0.00     0.104 A 
ENDBRANCH   1  27
TORSDOF 7
ENDMDL
MODEL 10
REMARK VINA RESULT:      -7.8      2.901      4.017
REMARK  7 active torsions:
REMARK  status: ('A' for Active; 'I' for Inactive)
REMARK    1  A    between atoms: C_8  and  C_9 
REMARK    2  A    between atoms: N_10  and  C_11 
REMARK    3  A    between atoms: C_14  and  S_15 
REMARK    4  A    between atoms: S_15  and  C_16 
REMARK    5  A    between atoms: C_16  and  C_17 
REMARK       I    between atoms: C_17  and  N_18 
REMARK    6  A    between atoms: N_21  and  C_22 
REMARK    7  A    between atoms: C_25  and  O_26 
ROOT
HETATM    1  C   UNL     1     -42.429  59.271 -58.621  1.00  0.00     0.167 A 
HETATM    2  N   UNL     1     -43.029  59.598 -57.415  1.00  0.00    -0.302 N 
HETATM    3  C   UNL     1     -42.965  58.459 -56.649  1.00  0.00     0.192 A 
HETATM    4  N   UNL     1     -42.332  57.516 -57.308  1.00  0.00    -0.122 NA
HETATM    5  N   UNL     1     -41.998  58.022 -58.535  1.00  0.00    -0.128 NA
ENDROOT
BRANCH   3   6
HETATM    6  S   UNL     1     -43.761  58.202 -55.137  1.00  0.00    -0.081 SA
BRANCH   6   7
HETATM    7  C   UNL     1     -42.474  58.788 -53.996  1.00  0.00     0.185 C 
BRANCH   7   8
HETATM    8  C   UNL     1     -42.468  58.006 -52.683  1.00  0.00     0.229 C 
HETATM    9  N   UNL     1     -41.917  56.720 -52.730  1.00  0.00    -0.348 N 
HETATM   10  C   UNL     1     -41.734  56.026 -51.449  1.00  0.00     0.145 C 
HETATM   11  C   UNL     1     -41.041  56.251 -53.815  1.00  0.00     0.145 C 
HETATM   12  C   UNL     1     -41.685  54.495 -51.589  1.00  0.00     0.143 C 
HETATM   13  N   UNL     1     -40.698  54.101 -52.616  1.00  0.00    -0.378 N 
HETATM   14  C   UNL     1     -40.984  54.714 -53.933  1.00  0.00     0.143 C 
HETATM   15  O   UNL     1     -42.937  58.456 -51.636  1.00  0.00    -0.273 OA
BRANCH  13  16
HETATM   16  C   UNL     1     -40.307  52.755 -52.678  1.00  0.00     0.030 A 
HETATM   17  C   UNL     1     -40.305  52.001 -53.864  1.00  0.00     0.032 A 
HETATM   18  C   UNL     1     -39.935  50.650 -53.875  1.00  0.00     0.039 A 
HETATM   19  C   UNL     1     -39.565  50.031 -52.689  1.00  0.00     0.065 A 
HETATM   20  C   UNL     1     -39.562  50.740 -51.499  1.00  0.00     0.039 A 
HETATM   21  C   UNL     1     -39.934  52.087 -51.498  1.00  0.00     0.032 A 
BRANCH  19  22
HETATM   22  O   UNL     1     -39.205  48.717 -52.651  1.00  0.00    -0.361 OA
HETATM   23  H   UNL     1     -40.005  48.181 -52.533  1.00  0.00     0.217 HD
ENDBRANCH  19  22
ENDBRANCH  13  16
ENDBRANCH   7   8
ENDBRANCH   6   7
ENDBRANCH   3   6
BRANCH   2  24
HETATM   24  C   UNL     1     -43.656  60.865 -57.109  1.00  0.00     0.094 A 
HETATM   25  C   UNL     1     -44.331  61.837 -58.045  1.00  0.00     0.028 A 
HETATM   26  C   UNL     1     -45.164  61.002 -57.119  1.00  0.00     0.028 A 
ENDBRANCH   2  24
BRANCH   1  27
HETATM   27  C   UNL     1     -42.204  60.098 -59.853  1.00  0.00     0.040 A 
HETATM   28  C   UNL     1     -41.340  61.242 -59.946  1.00  0.00     0.006 A 
HETATM   29  C   UNL     1     -40.507  61.937 -59.041  1.00  0.00     0.014 A 
HETATM   30  C   UNL     1     -41.407  61.710 -61.260  1.00  0.00     0.043 A 
HETATM   31  C   UNL     1     -39.783  63.055 -59.475  1.00  0.00     0.001 A 
HETATM   32  C   UNL     1     -39.871  63.486 -60.795  1.00  0.00     0.002 A 
HETATM   33  C   UNL     1     -40.685  62.821 -61.714  1.00  0.00     0.030 A 
HETATM   34  N   UNL     1     -42.280  60.893 -61.936  1.00  0.00    -0.364 N 
HETATM   35  H   UNL     1     -42.524  60.999 -62.910  1.00  0.00     0.165 HD
HETATM   36  C   UNL     1     -42.781  59.931 -61.094  1.00  0.00     0.104 A 
ENDBRANCH   1  27
TORSDOF 7
ENDMDL
