MODEL 1
REMARK VINA RESULT:      -9.5      0.000      0.000
REMARK  5 active torsions:
REMARK  status: ('A' for Active; 'I' for Inactive)
REMARK    1  A    between atoms: C_4  and  C_5 
REMARK    2  A    between atoms: C_5  and  C_6 
REMARK    3  A    between atoms: C_12  and  S_13 
REMARK    4  A    between atoms: S_13  and  C_14 
REMARK    5  A    between atoms: C_14  and  C_15 
ROOT
HETATM    1  C   UNL     1     -43.254  57.840 -55.046  1.00  0.00     0.283 C 
HETATM    2  O   UNL     1     -42.628  58.076 -53.793  1.00  0.00    -0.303 OA
HETATM    3  C   UNL     1     -43.336  57.477 -52.782  1.00  0.00     0.201 A 
HETATM    4  C   UNL     1     -44.466  58.106 -52.289  1.00  0.00     0.144 A 
HETATM    5  N   UNL     1     -45.058  57.597 -51.192  1.00  0.00    -0.142 NA
HETATM    6  N   UNL     1     -44.524  56.472 -50.627  1.00  0.00    -0.122 NA
HETATM    7  C   UNL     1     -43.422  55.899 -51.166  1.00  0.00     0.212 A 
HETATM    8  N   UNL     1     -42.775  56.377 -52.242  1.00  0.00    -0.195 NA
HETATM    9  C   UNL     1     -45.036  59.290 -52.924  1.00  0.00     0.020 A 
HETATM   10  C   UNL     1     -45.078  59.385 -54.335  1.00  0.00     0.023 A 
HETATM   11  N   UNL     1     -44.654  58.327 -55.166  1.00  0.00    -0.259 NA
HETATM   12  C   UNL     1     -45.555  60.346 -52.151  1.00  0.00     0.016 A 
HETATM   13  C   UNL     1     -46.099  61.478 -52.756  1.00  0.00     0.001 A 
HETATM   14  C   UNL     1     -46.150  61.564 -54.143  1.00  0.00     0.002 A 
HETATM   15  C   UNL     1     -45.656  60.519 -54.925  1.00  0.00     0.024 A 
HETATM   16  H   UNL     1     -44.796  58.579 -56.150  1.00  0.00     0.130 HD
ENDROOT
BRANCH   7  17
HETATM   17  S   UNL     1     -42.760  54.434 -50.413  1.00  0.00    -0.084 SA
BRANCH  17  18
HETATM   18  C   UNL     1     -41.029  54.576 -50.954  1.00  0.00     0.121 C 
BRANCH  18  19
HETATM   19  C   UNL     1     -40.617  53.409 -51.821  1.00  0.00    -0.048 A 
HETATM   20  C   UNL     1     -40.944  53.389 -53.187  1.00  0.00     0.009 A 
HETATM   21  C   UNL     1     -40.557  52.315 -53.991  1.00  0.00     0.024 A 
HETATM   22  C   UNL     1     -39.848  51.253 -53.436  1.00  0.00     0.034 A 
HETATM   23 CL   UNL     1     -39.370  49.931 -54.429  1.00  0.00    -0.084 Cl
HETATM   24  C   UNL     1     -39.525  51.253 -52.080  1.00  0.00     0.024 A 
HETATM   25  C   UNL     1     -39.910  52.327 -51.274  1.00  0.00     0.009 A 
ENDBRANCH  18  19
ENDBRANCH  17  18
ENDBRANCH   7  17
BRANCH   1  26
HETATM   26  C   UNL     1     -42.441  58.505 -56.190  1.00  0.00     0.203 C 
HETATM   27  O   UNL     1     -41.821  59.560 -56.006  1.00  0.00    -0.288 OA
BRANCH  26  28
HETATM   28  C   UNL     1     -42.416  57.892 -57.546  1.00  0.00     0.014 A 
HETATM   29  C   UNL     1     -42.926  56.593 -57.684  1.00  0.00     0.015 A 
HETATM   30  C   UNL     1     -42.934  55.968 -58.932  1.00  0.00     0.001 A 
HETATM   31  C   UNL     1     -42.423  56.634 -60.045  1.00  0.00     0.000 A 
HETATM   32  C   UNL     1     -41.900  57.920 -59.910  1.00  0.00     0.001 A 
HETATM   33  C   UNL     1     -41.891  58.551 -58.663  1.00  0.00     0.015 A 
ENDBRANCH  26  28
ENDBRANCH   1  26
TORSDOF 5
ENDMDL
MODEL 2
REMARK VINA RESULT:      -9.4      3.840      7.596
REMARK  5 active torsions:
REMARK  status: ('A' for Active; 'I' for Inactive)
REMARK    1  A    between atoms: C_4  and  C_5 
REMARK    2  A    between atoms: C_5  and  C_6 
REMARK    3  A    between atoms: C_12  and  S_13 
REMARK    4  A    between atoms: S_13  and  C_14 
REMARK    5  A    between atoms: C_14  and  C_15 
ROOT
HETATM    1  C   UNL     1     -41.679  55.886 -54.068  1.00  0.00     0.283 C 
HETATM    2  O   UNL     1     -42.781  56.676 -54.493  1.00  0.00    -0.303 OA
HETATM    3  C   UNL     1     -42.344  57.769 -55.198  1.00  0.00     0.201 A 
HETATM    4  C   UNL     1     -41.874  58.872 -54.505  1.00  0.00     0.144 A 
HETATM    5  N   UNL     1     -41.604  59.996 -55.193  1.00  0.00    -0.142 NA
HETATM    6  N   UNL     1     -41.790  59.991 -56.548  1.00  0.00    -0.122 NA
HETATM    7  C   UNL     1     -42.242  58.874 -57.167  1.00  0.00     0.212 A 
HETATM    8  N   UNL     1     -42.553  57.733 -56.529  1.00  0.00    -0.195 NA
HETATM    9  C   UNL     1     -41.657  58.847 -53.062  1.00  0.00     0.020 A 
HETATM   10  C   UNL     1     -41.111  57.695 -52.448  1.00  0.00     0.023 A 
HETATM   11  N   UNL     1     -40.690  56.578 -53.201  1.00  0.00    -0.259 NA
HETATM   12  C   UNL     1     -41.976  59.962 -52.264  1.00  0.00     0.016 A 
HETATM   13  C   UNL     1     -41.769  59.940 -50.885  1.00  0.00     0.001 A 
HETATM   14  C   UNL     1     -41.222  58.811 -50.286  1.00  0.00     0.002 A 
HETATM   15  C   UNL     1     -40.882  57.703 -51.064  1.00  0.00     0.024 A 
HETATM   16  H   UNL     1     -40.295  55.867 -52.576  1.00  0.00     0.130 HD
ENDROOT
BRANCH   7  17
HETATM   17  S   UNL     1     -42.463  58.898 -58.928  1.00  0.00    -0.084 SA
BRANCH  17  18
HETATM   18  C   UNL     1     -42.860  57.143 -59.203  1.00  0.00     0.121 C 
BRANCH  18  19
HETATM   19  C   UNL     1     -44.228  56.971 -59.822  1.00  0.00    -0.048 A 
HETATM   20  C   UNL     1     -45.181  57.998 -59.737  1.00  0.00     0.009 A 
HETATM   21  C   UNL     1     -46.443  57.843 -60.315  1.00  0.00     0.024 A 
HETATM   22  C   UNL     1     -46.762  56.660 -60.975  1.00  0.00     0.034 A 
HETATM   23 CL   UNL     1     -48.316  56.471 -61.690  1.00  0.00    -0.084 Cl
HETATM   24  C   UNL     1     -45.830  55.626 -61.060  1.00  0.00     0.024 A 
HETATM   25  C   UNL     1     -44.568  55.780 -60.483  1.00  0.00     0.009 A 
ENDBRANCH  18  19
ENDBRANCH  17  18
ENDBRANCH   7  17
BRANCH   1  26
HETATM   26  C   UNL     1     -42.178  54.641 -53.285  1.00  0.00     0.203 C 
HETATM   27  O   UNL     1     -43.331  54.583 -52.841  1.00  0.00    -0.288 OA
BRANCH  26  28
HETATM   28  C   UNL     1     -41.260  53.498 -53.032  1.00  0.00     0.014 A 
HETATM   29  C   UNL     1     -40.914  52.684 -54.122  1.00  0.00     0.015 A 
HETATM   30  C   UNL     1     -40.052  51.601 -53.947  1.00  0.00     0.001 A 
HETATM   31  C   UNL     1     -39.540  51.319 -52.682  1.00  0.00     0.000 A 
HETATM   32  C   UNL     1     -39.893  52.115 -51.591  1.00  0.00     0.001 A 
HETATM   33  C   UNL     1     -40.755  53.202 -51.762  1.00  0.00     0.015 A 
ENDBRANCH  26  28
ENDBRANCH   1  26
TORSDOF 5
ENDMDL
MODEL 3
REMARK VINA RESULT:      -9.3      4.381      8.529
REMARK  5 active torsions:
REMARK  status: ('A' for Active; 'I' for Inactive)
REMARK    1  A    between atoms: C_4  and  C_5 
REMARK    2  A    between atoms: C_5  and  C_6 
REMARK    3  A    between atoms: C_12  and  S_13 
REMARK    4  A    between atoms: S_13  and  C_14 
REMARK    5  A    between atoms: C_14  and  C_15 
ROOT
HETATM    1  C   UNL     1     -41.717  55.818 -54.546  1.00  0.00     0.283 C 
HETATM    2  O   UNL     1     -42.800  56.657 -54.920  1.00  0.00    -0.303 OA
HETATM    3  C   UNL     1     -42.337  57.796 -55.529  1.00  0.00     0.201 A 
HETATM    4  C   UNL     1     -41.860  58.832 -54.744  1.00  0.00     0.144 A 
HETATM    5  N   UNL     1     -41.564  60.003 -55.337  1.00  0.00    -0.142 NA
HETATM    6  N   UNL     1     -41.732  60.110 -56.689  1.00  0.00    -0.122 NA
HETATM    7  C   UNL     1     -42.193  59.053 -57.401  1.00  0.00     0.212 A 
HETATM    8  N   UNL     1     -42.529  57.870 -56.861  1.00  0.00    -0.195 NA
HETATM    9  C   UNL     1     -41.662  58.689 -53.305  1.00  0.00     0.020 A 
HETATM   10  C   UNL     1     -41.142  57.482 -52.779  1.00  0.00     0.023 A 
HETATM   11  N   UNL     1     -40.728  56.423 -53.614  1.00  0.00    -0.259 NA
HETATM   12  C   UNL     1     -41.975  59.741 -52.424  1.00  0.00     0.016 A 
HETATM   13  C   UNL     1     -41.787  59.605 -51.049  1.00  0.00     0.001 A 
HETATM   14  C   UNL     1     -41.265  58.423 -50.536  1.00  0.00     0.002 A 
HETATM   15  C   UNL     1     -40.932  57.376 -51.396  1.00  0.00     0.024 A 
HETATM   16  H   UNL     1     -40.352  55.657 -53.044  1.00  0.00     0.130 HD
ENDROOT
BRANCH   7  17
HETATM   17  S   UNL     1     -42.390  59.222 -59.158  1.00  0.00    -0.084 SA
BRANCH  17  18
HETATM   18  C   UNL     1     -42.698  61.012 -59.254  1.00  0.00     0.121 C 
BRANCH  18  19
HETATM   19  C   UNL     1     -41.594  61.730 -59.994  1.00  0.00    -0.048 A 
HETATM   20  C   UNL     1     -40.576  62.390 -59.287  1.00  0.00     0.009 A 
HETATM   21  C   UNL     1     -39.551  63.048 -59.970  1.00  0.00     0.024 A 
HETATM   22  C   UNL     1     -39.540  63.056 -61.362  1.00  0.00     0.034 A 
HETATM   23 CL   UNL     1     -38.274  63.865 -62.203  1.00  0.00    -0.084 Cl
HETATM   24  C   UNL     1     -40.549  62.415 -62.079  1.00  0.00     0.024 A 
HETATM   25  C   UNL     1     -41.574  61.756 -61.397  1.00  0.00     0.009 A 
ENDBRANCH  18  19
ENDBRANCH  17  18
ENDBRANCH   7  17
BRANCH   1  26
HETATM   26  C   UNL     1     -42.245  54.522 -53.871  1.00  0.00     0.203 C 
HETATM   27  O   UNL     1     -43.457  54.322 -53.731  1.00  0.00    -0.288 OA
BRANCH  26  28
HETATM   28  C   UNL     1     -41.290  53.504 -53.356  1.00  0.00     0.014 A 
HETATM   29  C   UNL     1     -40.780  52.567 -54.267  1.00  0.00     0.015 A 
HETATM   30  C   UNL     1     -39.876  51.592 -53.843  1.00  0.00     0.001 A 
HETATM   31  C   UNL     1     -39.487  51.541 -52.505  1.00  0.00     0.000 A 
HETATM   32  C   UNL     1     -40.004  52.460 -51.592  1.00  0.00     0.001 A 
HETATM   33  C   UNL     1     -40.908  53.440 -52.012  1.00  0.00     0.015 A 
ENDBRANCH  26  28
ENDBRANCH   1  26
TORSDOF 5
ENDMDL
MODEL 4
REMARK VINA RESULT:      -9.1      3.922      8.449
REMARK  5 active torsions:
REMARK  status: ('A' for Active; 'I' for Inactive)
REMARK    1  A    between atoms: C_4  and  C_5 
REMARK    2  A    between atoms: C_5  and  C_6 
REMARK    3  A    between atoms: C_12  and  S_13 
REMARK    4  A    between atoms: S_13  and  C_14 
REMARK    5  A    between atoms: C_14  and  C_15 
ROOT
HETATM    1  C   UNL     1     -44.169  56.844 -53.286  1.00  0.00     0.283 C 
HETATM    2  O   UNL     1     -43.210  57.505 -54.100  1.00  0.00    -0.303 OA
HETATM    3  C   UNL     1     -43.298  57.066 -55.398  1.00  0.00     0.201 A 
HETATM    4  C   UNL     1     -42.701  55.866 -55.743  1.00  0.00     0.144 A 
HETATM    5  N   UNL     1     -42.649  55.525 -57.043  1.00  0.00    -0.142 NA
HETATM    6  N   UNL     1     -43.203  56.373 -57.962  1.00  0.00    -0.122 NA
HETATM    7  C   UNL     1     -43.782  57.528 -57.556  1.00  0.00     0.212 A 
HETATM    8  N   UNL     1     -43.840  57.933 -56.276  1.00  0.00    -0.195 NA
HETATM    9  C   UNL     1     -42.139  54.962 -54.744  1.00  0.00     0.020 A 
HETATM   10  C   UNL     1     -42.807  54.767 -53.511  1.00  0.00     0.023 A 
HETATM   11  N   UNL     1     -44.057  55.362 -53.239  1.00  0.00    -0.259 NA
HETATM   12  C   UNL     1     -40.939  54.270 -54.989  1.00  0.00     0.016 A 
HETATM   13  C   UNL     1     -40.400  53.407 -54.036  1.00  0.00     0.001 A 
HETATM   14  C   UNL     1     -41.065  53.207 -52.830  1.00  0.00     0.002 A 
HETATM   15  C   UNL     1     -42.266  53.871 -52.577  1.00  0.00     0.024 A 
HETATM   16  H   UNL     1     -44.386  55.070 -52.312  1.00  0.00     0.130 HD
ENDROOT
BRANCH   7  17
HETATM   17  S   UNL     1     -44.501  58.602 -58.773  1.00  0.00    -0.084 SA
BRANCH  17  18
HETATM   18  C   UNL     1     -43.137  58.647 -59.976  1.00  0.00     0.121 C 
BRANCH  18  19
HETATM   19  C   UNL     1     -42.289  59.887 -59.812  1.00  0.00    -0.048 A 
HETATM   20  C   UNL     1     -41.806  60.255 -58.546  1.00  0.00     0.009 A 
HETATM   21  C   UNL     1     -41.016  61.397 -58.394  1.00  0.00     0.024 A 
HETATM   22  C   UNL     1     -40.709  62.180 -59.504  1.00  0.00     0.034 A 
HETATM   23 CL   UNL     1     -39.733  63.585 -59.316  1.00  0.00    -0.084 Cl
HETATM   24  C   UNL     1     -41.189  61.834 -60.765  1.00  0.00     0.024 A 
HETATM   25  C   UNL     1     -41.979  60.692 -60.919  1.00  0.00     0.009 A 
ENDBRANCH  18  19
ENDBRANCH  17  18
ENDBRANCH   7  17
BRANCH   1  26
HETATM   26  C   UNL     1     -44.078  57.355 -51.822  1.00  0.00     0.203 C 
HETATM   27  O   UNL     1     -45.022  57.218 -51.036  1.00  0.00    -0.288 OA
BRANCH  26  28
HETATM   28  C   UNL     1     -42.850  58.048 -51.346  1.00  0.00     0.014 A 
HETATM   29  C   UNL     1     -42.916  59.437 -51.156  1.00  0.00     0.015 A 
HETATM   30  C   UNL     1     -41.798  60.140 -50.705  1.00  0.00     0.001 A 
HETATM   31  C   UNL     1     -40.606  59.462 -50.454  1.00  0.00     0.000 A 
HETATM   32  C   UNL     1     -40.530  58.084 -50.657  1.00  0.00     0.001 A 
HETATM   33  C   UNL     1     -41.647  57.375 -51.106  1.00  0.00     0.015 A 
ENDBRANCH  26  28
ENDBRANCH   1  26
TORSDOF 5
ENDMDL
MODEL 5
REMARK VINA RESULT:      -9.0      4.303      8.166
REMARK  5 active torsions:
REMARK  status: ('A' for Active; 'I' for Inactive)
REMARK    1  A    between atoms: C_4  and  C_5 
REMARK    2  A    between atoms: C_5  and  C_6 
REMARK    3  A    between atoms: C_12  and  S_13 
REMARK    4  A    between atoms: S_13  and  C_14 
REMARK    5  A    between atoms: C_14  and  C_15 
ROOT
HETATM    1  C   UNL     1     -41.591  55.415 -54.494  1.00  0.00     0.283 C 
HETATM    2  O   UNL     1     -42.828  55.887 -55.007  1.00  0.00    -0.303 OA
HETATM    3  C   UNL     1     -42.616  56.760 -56.044  1.00  0.00     0.201 A 
HETATM    4  C   UNL     1     -42.282  58.073 -55.759  1.00  0.00     0.144 A 
HETATM    5  N   UNL     1     -42.238  58.959 -56.771  1.00  0.00    -0.142 NA
HETATM    6  N   UNL     1     -42.509  58.517 -58.036  1.00  0.00    -0.122 NA
HETATM    7  C   UNL     1     -42.820  57.215 -58.248  1.00  0.00     0.212 A 
HETATM    8  N   UNL     1     -42.904  56.293 -57.275  1.00  0.00    -0.195 NA
HETATM    9  C   UNL     1     -41.969  58.518 -54.404  1.00  0.00     0.020 A 
HETATM   10  C   UNL     1     -41.210  57.690 -53.545  1.00  0.00     0.023 A 
HETATM   11  N   UNL     1     -40.668  56.462 -53.981  1.00  0.00    -0.259 NA
HETATM   12  C   UNL     1     -42.407  59.771 -53.937  1.00  0.00     0.016 A 
HETATM   13  C   UNL     1     -42.109  60.198 -52.643  1.00  0.00     0.001 A 
HETATM   14  C   UNL     1     -41.353  59.388 -51.804  1.00  0.00     0.002 A 
HETATM   15  C   UNL     1     -40.894  58.150 -52.257  1.00  0.00     0.024 A 
HETATM   16  H   UNL     1     -40.125  56.033 -53.223  1.00  0.00     0.130 HD
ENDROOT
BRANCH   7  17
HETATM   17  S   UNL     1     -43.157  56.672 -59.904  1.00  0.00    -0.084 SA
BRANCH  17  18
HETATM   18  C   UNL     1     -44.790  55.914 -59.643  1.00  0.00     0.121 C 
BRANCH  18  19
HETATM   19  C   UNL     1     -45.891  56.726 -60.283  1.00  0.00    -0.048 A 
HETATM   20  C   UNL     1     -46.910  56.091 -61.012  1.00  0.00     0.009 A 
HETATM   21  C   UNL     1     -47.933  56.840 -61.598  1.00  0.00     0.024 A 
HETATM   22  C   UNL     1     -47.941  58.226 -61.465  1.00  0.00     0.034 A 
HETATM   23 CL   UNL     1     -49.204  59.147 -62.185  1.00  0.00    -0.084 Cl
HETATM   24  C   UNL     1     -46.932  58.872 -60.753  1.00  0.00     0.024 A 
HETATM   25  C   UNL     1     -45.909  58.124 -60.166  1.00  0.00     0.009 A 
ENDBRANCH  18  19
ENDBRANCH  17  18
ENDBRANCH   7  17
BRANCH   1  26
HETATM   26  C   UNL     1     -41.835  54.414 -53.331  1.00  0.00     0.203 C 
HETATM   27  O   UNL     1     -42.693  54.632 -52.467  1.00  0.00    -0.288 OA
BRANCH  26  28
HETATM   28  C   UNL     1     -41.014  53.177 -53.224  1.00  0.00     0.014 A 
HETATM   29  C   UNL     1     -41.001  52.304 -54.322  1.00  0.00     0.015 A 
HETATM   30  C   UNL     1     -40.246  51.132 -54.281  1.00  0.00     0.001 A 
HETATM   31  C   UNL     1     -39.509  50.820 -53.140  1.00  0.00     0.000 A 
HETATM   32  C   UNL     1     -39.531  51.676 -52.039  1.00  0.00     0.001 A 
HETATM   33  C   UNL     1     -40.285  52.853 -52.075  1.00  0.00     0.015 A 
ENDBRANCH  26  28
ENDBRANCH   1  26
TORSDOF 5
ENDMDL
MODEL 6
REMARK VINA RESULT:      -8.8      4.409      8.611
REMARK  5 active torsions:
REMARK  status: ('A' for Active; 'I' for Inactive)
REMARK    1  A    between atoms: C_4  and  C_5 
REMARK    2  A    between atoms: C_5  and  C_6 
REMARK    3  A    between atoms: C_12  and  S_13 
REMARK    4  A    between atoms: S_13  and  C_14 
REMARK    5  A    between atoms: C_14  and  C_15 
ROOT
HETATM    1  C   UNL     1     -44.054  56.968 -53.293  1.00  0.00     0.283 C 
HETATM    2  O   UNL     1     -43.070  57.656 -54.052  1.00  0.00    -0.303 OA
HETATM    3  C   UNL     1     -43.157  57.308 -55.377  1.00  0.00     0.201 A 
HETATM    4  C   UNL     1     -42.588  56.118 -55.798  1.00  0.00     0.144 A 
HETATM    5  N   UNL     1     -42.533  55.864 -57.118  1.00  0.00    -0.142 NA
HETATM    6  N   UNL     1     -43.056  56.786 -57.981  1.00  0.00    -0.122 NA
HETATM    7  C   UNL     1     -43.608  57.927 -57.503  1.00  0.00     0.212 A 
HETATM    8  N   UNL     1     -43.668  58.246 -56.199  1.00  0.00    -0.195 NA
HETATM    9  C   UNL     1     -42.060  55.134 -54.857  1.00  0.00     0.020 A 
HETATM   10  C   UNL     1     -42.745  54.874 -53.647  1.00  0.00     0.023 A 
HETATM   11  N   UNL     1     -43.981  55.484 -53.344  1.00  0.00    -0.259 NA
HETATM   12  C   UNL     1     -40.876  54.428 -55.139  1.00  0.00     0.016 A 
HETATM   13  C   UNL     1     -40.370  53.489 -54.242  1.00  0.00     0.001 A 
HETATM   14  C   UNL     1     -41.051  53.226 -53.058  1.00  0.00     0.002 A 
HETATM   15  C   UNL     1     -42.237  53.903 -52.771  1.00  0.00     0.024 A 
HETATM   16  H   UNL     1     -44.327  55.139 -52.442  1.00  0.00     0.130 HD
ENDROOT
BRANCH   7  17
HETATM   17  S   UNL     1     -44.287  59.099 -58.651  1.00  0.00    -0.084 SA
BRANCH  17  18
HETATM   18  C   UNL     1     -46.059  58.831 -58.338  1.00  0.00     0.121 C 
BRANCH  18  19
HETATM   19  C   UNL     1     -46.764  58.281 -59.556  1.00  0.00    -0.048 A 
HETATM   20  C   UNL     1     -47.476  59.136 -60.412  1.00  0.00     0.009 A 
HETATM   21  C   UNL     1     -48.122  58.630 -61.542  1.00  0.00     0.024 A 
HETATM   22  C   UNL     1     -48.066  57.267 -61.820  1.00  0.00     0.034 A 
HETATM   23 CL   UNL     1     -48.860  56.645 -63.215  1.00  0.00    -0.084 Cl
HETATM   24  C   UNL     1     -47.372  56.403 -60.975  1.00  0.00     0.024 A 
HETATM   25  C   UNL     1     -46.725  56.908 -59.845  1.00  0.00     0.009 A 
ENDBRANCH  18  19
ENDBRANCH  17  18
ENDBRANCH   7  17
BRANCH   1  26
HETATM   26  C   UNL     1     -43.963  57.377 -51.797  1.00  0.00     0.203 C 
HETATM   27  O   UNL     1     -44.891  57.146 -51.012  1.00  0.00    -0.288 OA
BRANCH  26  28
HETATM   28  C   UNL     1     -42.758  58.083 -51.285  1.00  0.00     0.014 A 
HETATM   29  C   UNL     1     -42.858  59.463 -51.052  1.00  0.00     0.015 A 
HETATM   30  C   UNL     1     -41.762  60.177 -50.567  1.00  0.00     0.001 A 
HETATM   31  C   UNL     1     -40.558  59.520 -50.323  1.00  0.00     0.000 A 
HETATM   32  C   UNL     1     -40.447  58.151 -50.568  1.00  0.00     0.001 A 
HETATM   33  C   UNL     1     -41.542  57.430 -51.052  1.00  0.00     0.015 A 
ENDBRANCH  26  28
ENDBRANCH   1  26
TORSDOF 5
ENDMDL
MODEL 7
REMARK VINA RESULT:      -8.8      1.316      1.996
REMARK  5 active torsions:
REMARK  status: ('A' for Active; 'I' for Inactive)
REMARK    1  A    between atoms: C_4  and  C_5 
REMARK    2  A    between atoms: C_5  and  C_6 
REMARK    3  A    between atoms: C_12  and  S_13 
REMARK    4  A    between atoms: S_13  and  C_14 
REMARK    5  A    between atoms: C_14  and  C_15 
ROOT
HETATM    1  C   UNL     1     -43.703  56.613 -55.997  1.00  0.00     0.283 C 
HETATM    2  O   UNL     1     -42.806  57.071 -54.995  1.00  0.00    -0.303 OA
HETATM    3  C   UNL     1     -43.359  56.917 -53.748  1.00  0.00     0.201 A 
HETATM    4  C   UNL     1     -44.274  57.853 -53.298  1.00  0.00     0.144 A 
HETATM    5  N   UNL     1     -44.684  57.786 -52.019  1.00  0.00    -0.142 NA
HETATM    6  N   UNL     1     -44.191  56.786 -51.228  1.00  0.00    -0.122 NA
HETATM    7  C   UNL     1     -43.305  55.894 -51.734  1.00  0.00     0.212 A 
HETATM    8  N   UNL     1     -42.841  55.928 -52.994  1.00  0.00    -0.195 NA
HETATM    9  C   UNL     1     -44.809  58.896 -54.167  1.00  0.00     0.020 A 
HETATM   10  C   UNL     1     -45.130  58.600 -55.513  1.00  0.00     0.023 A 
HETATM   11  N   UNL     1     -45.024  57.293 -56.034  1.00  0.00    -0.259 NA
HETATM   12  C   UNL     1     -45.020  60.201 -53.684  1.00  0.00     0.016 A 
HETATM   13  C   UNL     1     -45.531  61.199 -54.513  1.00  0.00     0.001 A 
HETATM   14  C   UNL     1     -45.857  60.903 -55.832  1.00  0.00     0.002 A 
HETATM   15  C   UNL     1     -45.672  59.610 -56.323  1.00  0.00     0.024 A 
HETATM   16  H   UNL     1     -45.335  57.283 -57.012  1.00  0.00     0.130 HD
ENDROOT
BRANCH   7  17
HETATM   17  S   UNL     1     -42.691  54.602 -50.683  1.00  0.00    -0.084 SA
BRANCH  17  18
HETATM   18  C   UNL     1     -40.928  54.667 -51.127  1.00  0.00     0.121 C 
BRANCH  18  19
HETATM   19  C   UNL     1     -40.511  53.460 -51.934  1.00  0.00    -0.048 A 
HETATM   20  C   UNL     1     -39.937  52.346 -51.300  1.00  0.00     0.009 A 
HETATM   21  C   UNL     1     -39.557  51.226 -52.043  1.00  0.00     0.024 A 
HETATM   22  C   UNL     1     -39.742  51.215 -53.423  1.00  0.00     0.034 A 
HETATM   23 CL   UNL     1     -39.277  49.833 -54.337  1.00  0.00    -0.084 Cl
HETATM   24  C   UNL     1     -40.301  52.316 -54.068  1.00  0.00     0.024 A 
HETATM   25  C   UNL     1     -40.682  53.436 -53.327  1.00  0.00     0.009 A 
ENDBRANCH  18  19
ENDBRANCH  17  18
ENDBRANCH   7  17
BRANCH   1  26
HETATM   26  C   UNL     1     -43.067  56.775 -57.405  1.00  0.00     0.203 C 
HETATM   27  O   UNL     1     -42.819  55.791 -58.112  1.00  0.00    -0.288 OA
BRANCH  26  28
HETATM   28  C   UNL     1     -42.721  58.128 -57.919  1.00  0.00     0.014 A 
HETATM   29  C   UNL     1     -43.069  58.432 -59.243  1.00  0.00     0.015 A 
HETATM   30  C   UNL     1     -42.775  59.686 -59.779  1.00  0.00     0.001 A 
HETATM   31  C   UNL     1     -42.122  60.639 -58.998  1.00  0.00     0.000 A 
HETATM   32  C   UNL     1     -41.759  60.336 -57.685  1.00  0.00     0.001 A 
HETATM   33  C   UNL     1     -42.053  59.082 -57.144  1.00  0.00     0.015 A 
ENDBRANCH  26  28
ENDBRANCH   1  26
TORSDOF 5
ENDMDL
MODEL 8
REMARK VINA RESULT:      -8.8      2.930      5.862
REMARK  5 active torsions:
REMARK  status: ('A' for Active; 'I' for Inactive)
REMARK    1  A    between atoms: C_4  and  C_5 
REMARK    2  A    between atoms: C_5  and  C_6 
REMARK    3  A    between atoms: C_12  and  S_13 
REMARK    4  A    between atoms: S_13  and  C_14 
REMARK    5  A    between atoms: C_14  and  C_15 
ROOT
HETATM    1  C   UNL     1     -42.643  56.513 -55.708  1.00  0.00     0.283 C 
HETATM    2  O   UNL     1     -43.705  55.973 -54.934  1.00  0.00    -0.303 OA
HETATM    3  C   UNL     1     -43.539  56.283 -53.608  1.00  0.00     0.201 A 
HETATM    4  C   UNL     1     -42.660  55.532 -52.847  1.00  0.00     0.144 A 
HETATM    5  N   UNL     1     -42.626  55.735 -51.517  1.00  0.00    -0.142 NA
HETATM    6  N   UNL     1     -43.451  56.685 -50.982  1.00  0.00    -0.122 NA
HETATM    7  C   UNL     1     -44.281  57.393 -51.785  1.00  0.00     0.212 A 
HETATM    8  N   UNL     1     -44.376  57.216 -53.113  1.00  0.00    -0.195 NA
HETATM    9  C   UNL     1     -41.768  54.542 -53.442  1.00  0.00     0.020 A 
HETATM   10  C   UNL     1     -41.137  54.810 -54.680  1.00  0.00     0.023 A 
HETATM   11  N   UNL     1     -41.280  56.052 -55.334  1.00  0.00    -0.259 NA
HETATM   12  C   UNL     1     -41.516  53.316 -52.797  1.00  0.00     0.016 A 
HETATM   13  C   UNL     1     -40.665  52.369 -53.364  1.00  0.00     0.001 A 
HETATM   14  C   UNL     1     -40.037  52.640 -54.575  1.00  0.00     0.002 A 
HETATM   15  C   UNL     1     -40.261  53.857 -55.220  1.00  0.00     0.024 A 
HETATM   16  H   UNL     1     -40.719  56.058 -56.194  1.00  0.00     0.130 HD
ENDROOT
BRANCH   7  17
HETATM   17  S   UNL     1     -45.332  58.626 -51.059  1.00  0.00    -0.084 SA
BRANCH  17  18
HETATM   18  C   UNL     1     -44.380  60.118 -51.485  1.00  0.00     0.121 C 
BRANCH  18  19
HETATM   19  C   UNL     1     -42.894  59.895 -51.329  1.00  0.00    -0.048 A 
HETATM   20  C   UNL     1     -42.291  59.988 -50.064  1.00  0.00     0.009 A 
HETATM   21  C   UNL     1     -40.918  59.776 -49.917  1.00  0.00     0.024 A 
HETATM   22  C   UNL     1     -40.140  59.476 -51.032  1.00  0.00     0.034 A 
HETATM   23 CL   UNL     1     -38.449  59.211 -50.849  1.00  0.00    -0.084 Cl
HETATM   24  C   UNL     1     -40.722  59.390 -52.295  1.00  0.00     0.024 A 
HETATM   25  C   UNL     1     -42.095  59.602 -52.444  1.00  0.00     0.009 A 
ENDBRANCH  18  19
ENDBRANCH  17  18
ENDBRANCH   7  17
BRANCH   1  26
HETATM   26  C   UNL     1     -42.843  56.173 -57.210  1.00  0.00     0.203 C 
HETATM   27  O   UNL     1     -43.208  55.048 -57.570  1.00  0.00    -0.288 OA
BRANCH  26  28
HETATM   28  C   UNL     1     -42.570  57.200 -58.252  1.00  0.00     0.014 A 
HETATM   29  C   UNL     1     -42.345  58.518 -57.827  1.00  0.00     0.015 A 
HETATM   30  C   UNL     1     -42.078  59.523 -58.758  1.00  0.00     0.001 A 
HETATM   31  C   UNL     1     -42.046  59.219 -60.118  1.00  0.00     0.000 A 
HETATM   32  C   UNL     1     -42.285  57.913 -60.547  1.00  0.00     0.001 A 
HETATM   33  C   UNL     1     -42.551  56.903 -59.619  1.00  0.00     0.015 A 
ENDBRANCH  26  28
ENDBRANCH   1  26
TORSDOF 5
ENDMDL
MODEL 9
REMARK VINA RESULT:      -8.7      4.184      7.572
REMARK  5 active torsions:
REMARK  status: ('A' for Active; 'I' for Inactive)
REMARK    1  A    between atoms: C_4  and  C_5 
REMARK    2  A    between atoms: C_5  and  C_6 
REMARK    3  A    between atoms: C_12  and  S_13 
REMARK    4  A    between atoms: S_13  and  C_14 
REMARK    5  A    between atoms: C_14  and  C_15 
ROOT
HETATM    1  C   UNL     1     -42.096  56.277 -55.341  1.00  0.00     0.283 C 
HETATM    2  O   UNL     1     -42.965  56.418 -54.227  1.00  0.00    -0.303 OA
HETATM    3  C   UNL     1     -42.338  57.093 -53.210  1.00  0.00     0.201 A 
HETATM    4  C   UNL     1     -41.463  56.406 -52.387  1.00  0.00     0.144 A 
HETATM    5  N   UNL     1     -40.981  57.031 -51.297  1.00  0.00    -0.142 NA
HETATM    6  N   UNL     1     -41.365  58.322 -51.064  1.00  0.00    -0.122 NA
HETATM    7  C   UNL     1     -42.217  58.942 -51.916  1.00  0.00     0.212 A 
HETATM    8  N   UNL     1     -42.750  58.360 -53.003  1.00  0.00    -0.195 NA
HETATM    9  C   UNL     1     -41.044  55.037 -52.670  1.00  0.00     0.020 A 
HETATM   10  C   UNL     1     -40.776  54.639 -54.001  1.00  0.00     0.023 A 
HETATM   11  N   UNL     1     -40.825  55.553 -55.075  1.00  0.00    -0.259 NA
HETATM   12  C   UNL     1     -40.892  54.098 -51.632  1.00  0.00     0.016 A 
HETATM   13  C   UNL     1     -40.493  52.790 -51.900  1.00  0.00     0.001 A 
HETATM   14  C   UNL     1     -40.219  52.405 -53.207  1.00  0.00     0.002 A 
HETATM   15  C   UNL     1     -40.345  53.327 -54.248  1.00  0.00     0.024 A 
HETATM   16  H   UNL     1     -40.567  55.078 -55.947  1.00  0.00     0.130 HD
ENDROOT
BRANCH   7  17
HETATM   17  S   UNL     1     -42.689  60.622 -51.589  1.00  0.00    -0.084 SA
BRANCH  17  18
HETATM   18  C   UNL     1     -44.157  60.324 -50.556  1.00  0.00     0.121 C 
BRANCH  18  19
HETATM   19  C   UNL     1     -44.366  61.432 -49.550  1.00  0.00    -0.048 A 
HETATM   20  C   UNL     1     -43.958  62.743 -49.842  1.00  0.00     0.009 A 
HETATM   21  C   UNL     1     -44.157  63.769 -48.916  1.00  0.00     0.024 A 
HETATM   22  C   UNL     1     -44.758  63.491 -47.692  1.00  0.00     0.034 A 
HETATM   23 CL   UNL     1     -45.006  64.757 -46.552  1.00  0.00    -0.084 Cl
HETATM   24  C   UNL     1     -45.159  62.193 -47.382  1.00  0.00     0.024 A 
HETATM   25  C   UNL     1     -44.961  61.165 -48.307  1.00  0.00     0.009 A 
ENDBRANCH  18  19
ENDBRANCH  17  18
ENDBRANCH   7  17
BRANCH   1  26
HETATM   26  C   UNL     1     -42.815  55.527 -56.496  1.00  0.00     0.203 C 
HETATM   27  O   UNL     1     -43.235  54.374 -56.347  1.00  0.00    -0.288 OA
BRANCH  26  28
HETATM   28  C   UNL     1     -42.987  56.182 -57.821  1.00  0.00     0.014 A 
HETATM   29  C   UNL     1     -43.608  55.443 -58.839  1.00  0.00     0.015 A 
HETATM   30  C   UNL     1     -43.802  56.007 -60.101  1.00  0.00     0.001 A 
HETATM   31  C   UNL     1     -43.369  57.307 -60.355  1.00  0.00     0.000 A 
HETATM   32  C   UNL     1     -42.737  58.041 -59.350  1.00  0.00     0.001 A 
HETATM   33  C   UNL     1     -42.541  57.482 -58.085  1.00  0.00     0.015 A 
ENDBRANCH  26  28
ENDBRANCH   1  26
TORSDOF 5
ENDMDL
MODEL 10
REMARK VINA RESULT:      -8.6      4.090      7.938
REMARK  5 active torsions:
REMARK  status: ('A' for Active; 'I' for Inactive)
REMARK    1  A    between atoms: C_4  and  C_5 
REMARK    2  A    between atoms: C_5  and  C_6 
REMARK    3  A    between atoms: C_12  and  S_13 
REMARK    4  A    between atoms: S_13  and  C_14 
REMARK    5  A    between atoms: C_14  and  C_15 
ROOT
HETATM    1  C   UNL     1     -43.020  55.807 -54.576  1.00  0.00     0.283 C 
HETATM    2  O   UNL     1     -41.820  56.534 -54.356  1.00  0.00    -0.303 OA
HETATM    3  C   UNL     1     -42.089  57.872 -54.206  1.00  0.00     0.201 A 
HETATM    4  C   UNL     1     -42.300  58.645 -55.335  1.00  0.00     0.144 A 
HETATM    5  N   UNL     1     -42.399  59.979 -55.190  1.00  0.00    -0.142 NA
HETATM    6  N   UNL     1     -42.304  60.507 -53.932  1.00  0.00    -0.122 NA
HETATM    7  C   UNL     1     -42.107  59.692 -52.868  1.00  0.00     0.212 A 
HETATM    8  N   UNL     1     -41.975  58.358 -52.954  1.00  0.00    -0.195 NA
HETATM    9  C   UNL     1     -42.427  58.059 -56.665  1.00  0.00     0.020 A 
HETATM   10  C   UNL     1     -43.138  56.848 -56.840  1.00  0.00     0.023 A 
HETATM   11  N   UNL     1     -43.806  56.215 -55.771  1.00  0.00    -0.259 NA
HETATM   12  C   UNL     1     -41.856  58.686 -57.789  1.00  0.00     0.016 A 
HETATM   13  C   UNL     1     -41.976  58.127 -59.060  1.00  0.00     0.001 A 
HETATM   14  C   UNL     1     -42.685  56.943 -59.232  1.00  0.00     0.002 A 
HETATM   15  C   UNL     1     -43.273  56.317 -58.132  1.00  0.00     0.024 A 
HETATM   16  H   UNL     1     -44.287  55.374 -56.110  1.00  0.00     0.130 HD
ENDROOT
BRANCH   7  17
HETATM   17  S   UNL     1     -41.997  60.409 -51.247  1.00  0.00    -0.084 SA
BRANCH  17  18
HETATM   18  C   UNL     1     -43.207  61.755 -51.433  1.00  0.00     0.121 C 
BRANCH  18  19
HETATM   19  C   UNL     1     -43.774  62.184 -50.100  1.00  0.00    -0.048 A 
HETATM   20  C   UNL     1     -44.401  61.249 -49.261  1.00  0.00     0.009 A 
HETATM   21  C   UNL     1     -44.919  61.642 -48.025  1.00  0.00     0.024 A 
HETATM   22  C   UNL     1     -44.821  62.972 -47.624  1.00  0.00     0.034 A 
HETATM   23 CL   UNL     1     -45.457  63.455 -46.099  1.00  0.00    -0.084 Cl
HETATM   24  C   UNL     1     -44.211  63.914 -48.449  1.00  0.00     0.024 A 
HETATM   25  C   UNL     1     -43.691  63.522 -49.685  1.00  0.00     0.009 A 
ENDBRANCH  18  19
ENDBRANCH  17  18
ENDBRANCH   7  17
BRANCH   1  26
HETATM   26  C   UNL     1     -42.713  54.292 -54.729  1.00  0.00     0.203 C 
HETATM   27  O   UNL     1     -43.261  53.612 -55.604  1.00  0.00    -0.288 OA
BRANCH  26  28
HETATM   28  C   UNL     1     -41.763  53.624 -53.798  1.00  0.00     0.014 A 
HETATM   29  C   UNL     1     -40.850  52.708 -54.343  1.00  0.00     0.015 A 
HETATM   30  C   UNL     1     -39.932  52.054 -53.521  1.00  0.00     0.001 A 
HETATM   31  C   UNL     1     -39.928  52.303 -52.149  1.00  0.00     0.000 A 
HETATM   32  C   UNL     1     -40.844  53.201 -51.600  1.00  0.00     0.001 A 
HETATM   33  C   UNL     1     -41.765  53.859 -52.419  1.00  0.00     0.015 A 
ENDBRANCH  26  28
ENDBRANCH   1  26
TORSDOF 5
ENDMDL
