MODEL 1
REMARK VINA RESULT:      -7.4      0.000      0.000
REMARK  3 active torsions:
REMARK  status: ('A' for Active; 'I' for Inactive)
REMARK    1  A    between atoms: C_11  and  N_12 
REMARK       I    between atoms: N_12  and  C_13 
REMARK       I    between atoms: C_13  and  N_14 
REMARK    2  A    between atoms: N_14  and  C_15 
REMARK    3  A    between atoms: C_16  and  O_17 
ROOT
HETATM    1  N   UNL     1     -42.135  55.865 -51.306  1.00  0.00    -0.338 N 
HETATM    2  C   UNL     1     -41.945  54.533 -51.576  1.00  0.00     0.321 C 
HETATM    3  N   UNL     1     -40.651  54.182 -51.855  1.00  0.00    -0.306 N 
HETATM    4  O   UNL     1     -42.921  53.798 -51.507  1.00  0.00    -0.247 OA
HETATM    5  H   UNL     1     -43.104  55.991 -51.042  1.00  0.00     0.164 HD
HETATM    6  H   UNL     1     -39.993  54.595 -51.209  1.00  0.00     0.171 HD
ENDROOT
BRANCH   1   7
HETATM    7  C   UNL     1     -41.368  56.962 -51.874  1.00  0.00     0.091 C 
HETATM    8  C   UNL     1     -41.712  58.315 -51.249  1.00  0.00     0.063 C 
HETATM    9  C   UNL     1     -42.982  59.009 -51.767  1.00  0.00     0.121 C 
HETATM   10  N   UNL     1     -43.066  58.908 -53.273  1.00  0.00    -0.059 N 
HETATM   11  C   UNL     1     -44.279  58.495 -51.132  1.00  0.00     0.046 C 
HETATM   12  C   UNL     1     -42.890  60.518 -51.446  1.00  0.00     0.046 C 
HETATM   13  C   UNL     1     -42.729  57.613 -53.986  1.00  0.00     0.121 C 
HETATM   14  H   UNL     1     -42.441  59.630 -53.661  1.00  0.00     0.279 HD
HETATM   15  H   UNL     1     -44.006  59.209 -53.574  1.00  0.00     0.279 HD
HETATM   16  C   UNL     1     -43.922  56.654 -53.949  1.00  0.00     0.046 C 
HETATM   17  C   UNL     1     -42.494  57.994 -55.464  1.00  0.00     0.046 C 
HETATM   18  C   UNL     1     -41.435  57.028 -53.405  1.00  0.00     0.063 C 
ENDBRANCH   1   7
BRANCH   3  19
HETATM   19  C   UNL     1     -40.301  52.900 -52.348  1.00  0.00     0.072 A 
HETATM   20  C   UNL     1     -40.349  52.567 -53.719  1.00  0.00     0.095 A 
HETATM   21  C   UNL     1     -40.024  51.262 -54.117  1.00  0.00     0.042 A 
HETATM   22  C   UNL     1     -39.637  50.310 -53.170  1.00  0.00     0.045 A 
HETATM   23  C   UNL     1     -39.548  50.669 -51.834  1.00  0.00     0.118 A 
HETATM   24  F   UNL     1     -39.157  49.761 -50.930  1.00  0.00    -0.206 F 
HETATM   25  C   UNL     1     -39.861  51.955 -51.414  1.00  0.00     0.074 A 
BRANCH  20  26
HETATM   26  O   UNL     1     -40.610  53.586 -54.602  1.00  0.00    -0.354 OA
HETATM   27  C   UNL     1     -41.953  53.700 -55.060  1.00  0.00     0.210 C 
ENDBRANCH  20  26
ENDBRANCH   3  19
TORSDOF 3
ENDMDL
MODEL 2
REMARK VINA RESULT:      -7.3      1.784      2.604
REMARK  3 active torsions:
REMARK  status: ('A' for Active; 'I' for Inactive)
REMARK    1  A    between atoms: C_11  and  N_12 
REMARK       I    between atoms: N_12  and  C_13 
REMARK       I    between atoms: C_13  and  N_14 
REMARK    2  A    between atoms: N_14  and  C_15 
REMARK    3  A    between atoms: C_16  and  O_17 
ROOT
HETATM    1  N   UNL     1     -41.546  55.494 -52.595  1.00  0.00    -0.338 N 
HETATM    2  C   UNL     1     -41.437  54.145 -52.364  1.00  0.00     0.321 C 
HETATM    3  N   UNL     1     -40.228  53.599 -52.704  1.00  0.00    -0.306 N 
HETATM    4  O   UNL     1     -42.396  53.580 -51.854  1.00  0.00    -0.247 OA
HETATM    5  H   UNL     1     -42.443  55.796 -52.238  1.00  0.00     0.164 HD
HETATM    6  H   UNL     1     -39.450  54.160 -52.388  1.00  0.00     0.171 HD
ENDROOT
BRANCH   1   7
HETATM    7  C   UNL     1     -40.881  56.226 -53.660  1.00  0.00     0.091 C 
HETATM    8  C   UNL     1     -40.875  57.739 -53.429  1.00  0.00     0.063 C 
HETATM    9  C   UNL     1     -42.165  58.494 -53.791  1.00  0.00     0.121 C 
HETATM   10  N   UNL     1     -42.716  58.003 -55.110  1.00  0.00    -0.059 N 
HETATM   11  C   UNL     1     -43.251  58.429 -52.711  1.00  0.00     0.046 C 
HETATM   12  C   UNL     1     -41.825  59.986 -54.000  1.00  0.00     0.046 C 
HETATM   13  C   UNL     1     -42.748  56.523 -55.438  1.00  0.00     0.121 C 
HETATM   14  H   UNL     1     -42.169  58.459 -55.856  1.00  0.00     0.279 HD
HETATM   15  H   UNL     1     -43.666  58.384 -55.236  1.00  0.00     0.279 HD
HETATM   16  C   UNL     1     -43.965  55.856 -54.789  1.00  0.00     0.046 C 
HETATM   17  C   UNL     1     -42.939  56.434 -56.967  1.00  0.00     0.046 C 
HETATM   18  C   UNL     1     -41.406  55.883 -55.060  1.00  0.00     0.063 C 
ENDBRANCH   1   7
BRANCH   3  19
HETATM   19  C   UNL     1     -40.006  52.200 -52.722  1.00  0.00     0.072 A 
HETATM   20  C   UNL     1     -39.767  51.446 -51.552  1.00  0.00     0.095 A 
HETATM   21  C   UNL     1     -39.517  50.071 -51.664  1.00  0.00     0.042 A 
HETATM   22  C   UNL     1     -39.525  49.450 -52.915  1.00  0.00     0.045 A 
HETATM   23  C   UNL     1     -39.811  50.196 -54.049  1.00  0.00     0.118 A 
HETATM   24  F   UNL     1     -39.838  49.596 -55.246  1.00  0.00    -0.206 F 
HETATM   25  C   UNL     1     -40.065  51.559 -53.965  1.00  0.00     0.074 A 
BRANCH  20  26
HETATM   26  O   UNL     1     -39.904  52.097 -50.350  1.00  0.00    -0.354 OA
HETATM   27  C   UNL     1     -40.653  51.421 -49.346  1.00  0.00     0.210 C 
ENDBRANCH  20  26
ENDBRANCH   3  19
TORSDOF 3
ENDMDL
MODEL 3
REMARK VINA RESULT:      -7.3      2.727      4.377
REMARK  3 active torsions:
REMARK  status: ('A' for Active; 'I' for Inactive)
REMARK    1  A    between atoms: C_11  and  N_12 
REMARK       I    between atoms: N_12  and  C_13 
REMARK       I    between atoms: C_13  and  N_14 
REMARK    2  A    between atoms: N_14  and  C_15 
REMARK    3  A    between atoms: C_16  and  O_17 
ROOT
HETATM    1  N   UNL     1     -41.513  55.090 -56.155  1.00  0.00    -0.338 N 
HETATM    2  C   UNL     1     -40.837  54.637 -55.049  1.00  0.00     0.321 C 
HETATM    3  N   UNL     1     -41.430  53.584 -54.403  1.00  0.00    -0.306 N 
HETATM    4  O   UNL     1     -39.776  55.181 -54.773  1.00  0.00    -0.247 OA
HETATM    5  H   UNL     1     -40.948  55.809 -56.588  1.00  0.00     0.164 HD
HETATM    6  H   UNL     1     -41.747  52.870 -55.044  1.00  0.00     0.171 HD
ENDROOT
BRANCH   1   7
HETATM    7  C   UNL     1     -42.955  55.064 -56.334  1.00  0.00     0.091 C 
HETATM    8  C   UNL     1     -43.390  55.534 -57.724  1.00  0.00     0.063 C 
HETATM    9  C   UNL     1     -43.445  57.053 -57.949  1.00  0.00     0.121 C 
HETATM   10  N   UNL     1     -44.077  57.744 -56.761  1.00  0.00    -0.059 N 
HETATM   11  C   UNL     1     -42.087  57.688 -58.265  1.00  0.00     0.046 C 
HETATM   12  C   UNL     1     -44.370  57.344 -59.152  1.00  0.00     0.046 C 
HETATM   13  C   UNL     1     -43.722  57.337 -55.345  1.00  0.00     0.121 C 
HETATM   14  H   UNL     1     -45.098  57.633 -56.854  1.00  0.00     0.279 HD
HETATM   15  H   UNL     1     -43.932  58.762 -56.854  1.00  0.00     0.279 HD
HETATM   16  C   UNL     1     -42.409  57.996 -54.911  1.00  0.00     0.046 C 
HETATM   17  C   UNL     1     -44.840  57.911 -54.449  1.00  0.00     0.046 C 
HETATM   18  C   UNL     1     -43.723  55.807 -55.234  1.00  0.00     0.063 C 
ENDBRANCH   1   7
BRANCH   3  19
HETATM   19  C   UNL     1     -40.984  53.119 -53.141  1.00  0.00     0.072 A 
HETATM   20  C   UNL     1     -40.086  52.039 -52.996  1.00  0.00     0.095 A 
HETATM   21  C   UNL     1     -39.727  51.618 -51.708  1.00  0.00     0.042 A 
HETATM   22  C   UNL     1     -40.234  52.272 -50.582  1.00  0.00     0.045 A 
HETATM   23  C   UNL     1     -41.076  53.362 -50.745  1.00  0.00     0.118 A 
HETATM   24  F   UNL     1     -41.546  54.002 -49.666  1.00  0.00    -0.206 F 
HETATM   25  C   UNL     1     -41.445  53.802 -52.010  1.00  0.00     0.074 A 
BRANCH  20  26
HETATM   26  O   UNL     1     -39.527  51.532 -54.144  1.00  0.00    -0.354 OA
HETATM   27  C   UNL     1     -39.710  50.139 -54.375  1.00  0.00     0.210 C 
ENDBRANCH  20  26
ENDBRANCH   3  19
TORSDOF 3
ENDMDL
MODEL 4
REMARK VINA RESULT:      -7.3      1.781      3.129
REMARK  3 active torsions:
REMARK  status: ('A' for Active; 'I' for Inactive)
REMARK    1  A    between atoms: C_11  and  N_12 
REMARK       I    between atoms: N_12  and  C_13 
REMARK       I    between atoms: C_13  and  N_14 
REMARK    2  A    between atoms: N_14  and  C_15 
REMARK    3  A    between atoms: C_16  and  O_17 
ROOT
HETATM    1  N   UNL     1     -41.825  56.185 -54.111  1.00  0.00    -0.338 N 
HETATM    2  C   UNL     1     -41.058  55.047 -54.114  1.00  0.00     0.321 C 
HETATM    3  N   UNL     1     -41.586  53.994 -53.416  1.00  0.00    -0.306 N 
HETATM    4  O   UNL     1     -40.015  55.070 -54.756  1.00  0.00    -0.247 OA
HETATM    5  H   UNL     1     -41.376  56.861 -54.715  1.00  0.00     0.164 HD
HETATM    6  H   UNL     1     -42.568  53.858 -53.611  1.00  0.00     0.171 HD
ENDROOT
BRANCH   1   7
HETATM    7  C   UNL     1     -42.699  56.612 -53.031  1.00  0.00     0.091 C 
HETATM    8  C   UNL     1     -43.863  57.479 -53.516  1.00  0.00     0.063 C 
HETATM    9  C   UNL     1     -43.552  58.962 -53.776  1.00  0.00     0.121 C 
HETATM   10  N   UNL     1     -42.689  59.527 -52.671  1.00  0.00    -0.059 N 
HETATM   11  C   UNL     1     -42.907  59.235 -55.140  1.00  0.00     0.046 C 
HETATM   12  C   UNL     1     -44.874  59.761 -53.735  1.00  0.00     0.046 C 
HETATM   13  C   UNL     1     -41.522  58.735 -52.113  1.00  0.00     0.121 C 
HETATM   14  H   UNL     1     -43.312  59.735 -51.877  1.00  0.00     0.279 HD
HETATM   15  H   UNL     1     -42.343  60.455 -52.961  1.00  0.00     0.279 HD
HETATM   16  C   UNL     1     -40.295  58.880 -53.018  1.00  0.00     0.046 C 
HETATM   17  C   UNL     1     -41.174  59.394 -50.761  1.00  0.00     0.046 C 
HETATM   18  C   UNL     1     -41.955  57.284 -51.870  1.00  0.00     0.063 C 
ENDBRANCH   1   7
BRANCH   3  19
HETATM   19  C   UNL     1     -40.849  52.814 -53.146  1.00  0.00     0.072 A 
HETATM   20  C   UNL     1     -40.352  52.498 -51.863  1.00  0.00     0.095 A 
HETATM   21  C   UNL     1     -39.597  51.329 -51.692  1.00  0.00     0.042 A 
HETATM   22  C   UNL     1     -39.358  50.477 -52.772  1.00  0.00     0.045 A 
HETATM   23  C   UNL     1     -39.895  50.778 -54.015  1.00  0.00     0.118 A 
HETATM   24  F   UNL     1     -39.682  49.950 -55.046  1.00  0.00    -0.206 F 
HETATM   25  C   UNL     1     -40.649  51.928 -54.211  1.00  0.00     0.074 A 
BRANCH  20  26
HETATM   26  O   UNL     1     -40.737  53.311 -50.825  1.00  0.00    -0.354 OA
HETATM   27  C   UNL     1     -39.702  54.036 -50.170  1.00  0.00     0.210 C 
ENDBRANCH  20  26
ENDBRANCH   3  19
TORSDOF 3
ENDMDL
MODEL 5
REMARK VINA RESULT:      -7.3      2.063      3.920
REMARK  3 active torsions:
REMARK  status: ('A' for Active; 'I' for Inactive)
REMARK    1  A    between atoms: C_11  and  N_12 
REMARK       I    between atoms: N_12  and  C_13 
REMARK       I    between atoms: C_13  and  N_14 
REMARK    2  A    between atoms: N_14  and  C_15 
REMARK    3  A    between atoms: C_16  and  O_17 
ROOT
HETATM    1  N   UNL     1     -41.509  55.351 -56.061  1.00  0.00    -0.338 N 
HETATM    2  C   UNL     1     -40.718  54.578 -55.249  1.00  0.00     0.321 C 
HETATM    3  N   UNL     1     -41.318  53.443 -54.771  1.00  0.00    -0.306 N 
HETATM    4  O   UNL     1     -39.567  54.950 -55.062  1.00  0.00    -0.247 OA
HETATM    5  H   UNL     1     -40.941  56.112 -56.411  1.00  0.00     0.164 HD
HETATM    6  H   UNL     1     -41.824  52.945 -55.489  1.00  0.00     0.171 HD
ENDROOT
BRANCH   1   7
HETATM    7  C   UNL     1     -42.953  55.483 -55.959  1.00  0.00     0.091 C 
HETATM    8  C   UNL     1     -43.579  56.146 -57.188  1.00  0.00     0.063 C 
HETATM    9  C   UNL     1     -43.500  57.679 -57.256  1.00  0.00     0.121 C 
HETATM   10  N   UNL     1     -43.819  58.289 -55.909  1.00  0.00    -0.059 N 
HETATM   11  C   UNL     1     -42.158  58.213 -57.770  1.00  0.00     0.046 C 
HETATM   12  C   UNL     1     -44.590  58.190 -58.224  1.00  0.00     0.046 C 
HETATM   13  C   UNL     1     -43.259  57.692 -54.633  1.00  0.00     0.121 C 
HETATM   14  H   UNL     1     -44.846  58.287 -55.812  1.00  0.00     0.279 HD
HETATM   15  H   UNL     1     -43.577  59.292 -55.933  1.00  0.00     0.279 HD
HETATM   16  C   UNL     1     -41.822  58.170 -54.403  1.00  0.00     0.046 C 
HETATM   17  C   UNL     1     -44.121  58.266 -53.487  1.00  0.00     0.046 C 
HETATM   18  C   UNL     1     -43.416  56.167 -54.666  1.00  0.00     0.063 C 
ENDBRANCH   1   7
BRANCH   3  19
HETATM   19  C   UNL     1     -40.727  52.636 -53.768  1.00  0.00     0.072 A 
HETATM   20  C   UNL     1     -40.644  53.032 -52.415  1.00  0.00     0.095 A 
HETATM   21  C   UNL     1     -40.007  52.189 -51.494  1.00  0.00     0.042 A 
HETATM   22  C   UNL     1     -39.479  50.962 -51.905  1.00  0.00     0.045 A 
HETATM   23  C   UNL     1     -39.614  50.567 -53.227  1.00  0.00     0.118 A 
HETATM   24  F   UNL     1     -39.126  49.382 -53.617  1.00  0.00    -0.206 F 
HETATM   25  C   UNL     1     -40.243  51.383 -54.160  1.00  0.00     0.074 A 
BRANCH  20  26
HETATM   26  O   UNL     1     -41.299  54.187 -52.060  1.00  0.00    -0.354 OA
HETATM   27  C   UNL     1     -42.578  54.029 -51.455  1.00  0.00     0.210 C 
ENDBRANCH  20  26
ENDBRANCH   3  19
TORSDOF 3
ENDMDL
MODEL 6
REMARK VINA RESULT:      -7.0      4.284      6.877
REMARK  3 active torsions:
REMARK  status: ('A' for Active; 'I' for Inactive)
REMARK    1  A    between atoms: C_11  and  N_12 
REMARK       I    between atoms: N_12  and  C_13 
REMARK       I    between atoms: C_13  and  N_14 
REMARK    2  A    between atoms: N_14  and  C_15 
REMARK    3  A    between atoms: C_16  and  O_17 
ROOT
HETATM    1  N   UNL     1     -42.755  56.279 -54.493  1.00  0.00    -0.338 N 
HETATM    2  C   UNL     1     -43.176  56.764 -55.706  1.00  0.00     0.321 C 
HETATM    3  N   UNL     1     -42.289  56.593 -56.735  1.00  0.00    -0.306 N 
HETATM    4  O   UNL     1     -44.295  57.260 -55.758  1.00  0.00    -0.247 OA
HETATM    5  H   UNL     1     -43.515  56.391 -53.835  1.00  0.00     0.164 HD
HETATM    6  H   UNL     1     -41.894  55.664 -56.751  1.00  0.00     0.171 HD
ENDROOT
BRANCH   1   7
HETATM    7  C   UNL     1     -41.375  56.223 -54.038  1.00  0.00     0.091 C 
HETATM    8  C   UNL     1     -40.980  54.843 -53.507  1.00  0.00     0.063 C 
HETATM    9  C   UNL     1     -41.410  54.512 -52.069  1.00  0.00     0.121 C 
HETATM   10  N   UNL     1     -41.169  55.694 -51.157  1.00  0.00    -0.059 N 
HETATM   11  C   UNL     1     -42.862  54.038 -51.943  1.00  0.00     0.046 C 
HETATM   12  C   UNL     1     -40.515  53.372 -51.533  1.00  0.00     0.046 C 
HETATM   13  C   UNL     1     -41.513  57.102 -51.601  1.00  0.00     0.121 C 
HETATM   14  H   UNL     1     -40.165  55.695 -50.920  1.00  0.00     0.279 HD
HETATM   15  H   UNL     1     -41.633  55.516 -50.253  1.00  0.00     0.279 HD
HETATM   16  C   UNL     1     -43.007  57.376 -51.406  1.00  0.00     0.046 C 
HETATM   17  C   UNL     1     -40.747  58.044 -50.646  1.00  0.00     0.046 C 
HETATM   18  C   UNL     1     -41.016  57.325 -53.035  1.00  0.00     0.063 C 
ENDBRANCH   1   7
BRANCH   3  19
HETATM   19  C   UNL     1     -42.468  57.203 -58.002  1.00  0.00     0.072 A 
HETATM   20  C   UNL     1     -43.092  56.548 -59.086  1.00  0.00     0.095 A 
HETATM   21  C   UNL     1     -43.193  57.210 -60.317  1.00  0.00     0.042 A 
HETATM   22  C   UNL     1     -42.701  58.510 -60.464  1.00  0.00     0.045 A 
HETATM   23  C   UNL     1     -42.136  59.156 -59.375  1.00  0.00     0.118 A 
HETATM   24  F   UNL     1     -41.683  60.409 -59.511  1.00  0.00    -0.206 F 
HETATM   25  C   UNL     1     -42.027  58.523 -58.143  1.00  0.00     0.074 A 
BRANCH  20  26
HETATM   26  O   UNL     1     -43.668  55.327 -58.832  1.00  0.00    -0.354 OA
HETATM   27  C   UNL     1     -44.460  54.770 -59.875  1.00  0.00     0.210 C 
ENDBRANCH  20  26
ENDBRANCH   3  19
TORSDOF 3
ENDMDL
MODEL 7
REMARK VINA RESULT:      -6.8      2.453      3.297
REMARK  3 active torsions:
REMARK  status: ('A' for Active; 'I' for Inactive)
REMARK    1  A    between atoms: C_11  and  N_12 
REMARK       I    between atoms: N_12  and  C_13 
REMARK       I    between atoms: C_13  and  N_14 
REMARK    2  A    between atoms: N_14  and  C_15 
REMARK    3  A    between atoms: C_16  and  O_17 
ROOT
HETATM    1  N   UNL     1     -42.769  58.055 -50.985  1.00  0.00    -0.338 N 
HETATM    2  C   UNL     1     -42.621  56.759 -51.412  1.00  0.00     0.321 C 
HETATM    3  N   UNL     1     -41.325  56.363 -51.610  1.00  0.00    -0.306 N 
HETATM    4  O   UNL     1     -43.636  56.086 -51.538  1.00  0.00    -0.247 OA
HETATM    5  H   UNL     1     -43.752  58.208 -50.802  1.00  0.00     0.164 HD
HETATM    6  H   UNL     1     -40.717  56.645 -50.854  1.00  0.00     0.171 HD
ENDROOT
BRANCH   1   7
HETATM    7  C   UNL     1     -41.891  59.163 -51.324  1.00  0.00     0.091 C 
HETATM    8  C   UNL     1     -42.123  60.395 -50.448  1.00  0.00     0.063 C 
HETATM    9  C   UNL     1     -43.311  61.294 -50.827  1.00  0.00     0.121 C 
HETATM   10  N   UNL     1     -43.369  61.496 -52.324  1.00  0.00    -0.059 N 
HETATM   11  C   UNL     1     -44.664  60.792 -50.311  1.00  0.00     0.046 C 
HETATM   12  C   UNL     1     -43.088  62.696 -50.217  1.00  0.00     0.046 C 
HETATM   13  C   UNL     1     -43.136  60.337 -53.275  1.00  0.00     0.121 C 
HETATM   14  H   UNL     1     -42.671  62.217 -52.560  1.00  0.00     0.279 HD
HETATM   15  H   UNL     1     -44.269  61.938 -52.565  1.00  0.00     0.279 HD
HETATM   16  C   UNL     1     -44.413  59.507 -53.432  1.00  0.00     0.046 C 
HETATM   17  C   UNL     1     -42.832  60.974 -54.648  1.00  0.00     0.046 C 
HETATM   18  C   UNL     1     -41.915  59.531 -52.813  1.00  0.00     0.063 C 
ENDBRANCH   1   7
BRANCH   3  19
HETATM   19  C   UNL     1     -40.993  55.134 -52.234  1.00  0.00     0.072 A 
HETATM   20  C   UNL     1     -40.793  53.938 -51.513  1.00  0.00     0.095 A 
HETATM   21  C   UNL     1     -40.428  52.775 -52.206  1.00  0.00     0.042 A 
HETATM   22  C   UNL     1     -40.285  52.795 -53.596  1.00  0.00     0.045 A 
HETATM   23  C   UNL     1     -40.535  53.968 -54.293  1.00  0.00     0.118 A 
HETATM   24  F   UNL     1     -40.417  53.982 -55.627  1.00  0.00    -0.206 F 
HETATM   25  C   UNL     1     -40.900  55.133 -53.631  1.00  0.00     0.074 A 
BRANCH  20  26
HETATM   26  O   UNL     1     -41.078  53.962 -50.169  1.00  0.00    -0.354 OA
HETATM   27  C   UNL     1     -39.963  53.976 -49.284  1.00  0.00     0.210 C 
ENDBRANCH  20  26
ENDBRANCH   3  19
TORSDOF 3
ENDMDL
MODEL 8
REMARK VINA RESULT:      -6.8      3.980      6.545
REMARK  3 active torsions:
REMARK  status: ('A' for Active; 'I' for Inactive)
REMARK    1  A    between atoms: C_11  and  N_12 
REMARK       I    between atoms: N_12  and  C_13 
REMARK       I    between atoms: C_13  and  N_14 
REMARK    2  A    between atoms: N_14  and  C_15 
REMARK    3  A    between atoms: C_16  and  O_17 
ROOT
HETATM    1  N   UNL     1     -42.905  56.042 -54.112  1.00  0.00    -0.338 N 
HETATM    2  C   UNL     1     -43.441  56.331 -55.342  1.00  0.00     0.321 C 
HETATM    3  N   UNL     1     -42.647  56.004 -56.408  1.00  0.00    -0.306 N 
HETATM    4  O   UNL     1     -44.568  56.811 -55.369  1.00  0.00    -0.247 OA
HETATM    5  H   UNL     1     -43.605  56.254 -53.413  1.00  0.00     0.164 HD
HETATM    6  H   UNL     1     -42.240  55.084 -56.316  1.00  0.00     0.171 HD
ENDROOT
BRANCH   1   7
HETATM    7  C   UNL     1     -41.490  56.060 -53.781  1.00  0.00     0.091 C 
HETATM    8  C   UNL     1     -41.003  54.740 -53.179  1.00  0.00     0.063 C 
HETATM    9  C   UNL     1     -41.293  54.518 -51.686  1.00  0.00     0.121 C 
HETATM   10  N   UNL     1     -41.012  55.777 -50.897  1.00  0.00    -0.059 N 
HETATM   11  C   UNL     1     -42.711  54.017 -51.392  1.00  0.00     0.046 C 
HETATM   12  C   UNL     1     -40.316  53.449 -51.145  1.00  0.00     0.046 C 
HETATM   13  C   UNL     1     -41.441  57.134 -51.419  1.00  0.00     0.121 C 
HETATM   14  H   UNL     1     -39.992  55.824 -50.754  1.00  0.00     0.279 HD
HETATM   15  H   UNL     1     -41.389  55.661 -49.943  1.00  0.00     0.279 HD
HETATM   16  C   UNL     1     -42.921  57.383 -51.112  1.00  0.00     0.046 C 
HETATM   17  C   UNL     1     -40.627  58.171 -50.617  1.00  0.00     0.046 C 
HETATM   18  C   UNL     1     -41.080  57.251 -52.906  1.00  0.00     0.063 C 
ENDBRANCH   1   7
BRANCH   3  19
HETATM   19  C   UNL     1     -42.948  56.408 -57.733  1.00  0.00     0.072 A 
HETATM   20  C   UNL     1     -42.734  57.723 -58.200  1.00  0.00     0.095 A 
HETATM   21  C   UNL     1     -43.097  58.049 -59.514  1.00  0.00     0.042 A 
HETATM   22  C   UNL     1     -43.643  57.079 -60.358  1.00  0.00     0.045 A 
HETATM   23  C   UNL     1     -43.799  55.780 -59.898  1.00  0.00     0.118 A 
HETATM   24  F   UNL     1     -44.304  54.845 -60.714  1.00  0.00    -0.206 F 
HETATM   25  C   UNL     1     -43.445  55.430 -58.601  1.00  0.00     0.074 A 
BRANCH  20  26
HETATM   26  O   UNL     1     -42.074  58.586 -57.359  1.00  0.00    -0.354 OA
HETATM   27  C   UNL     1     -41.697  59.843 -57.910  1.00  0.00     0.210 C 
ENDBRANCH  20  26
ENDBRANCH   3  19
TORSDOF 3
ENDMDL
MODEL 9
REMARK VINA RESULT:      -6.7     15.456     17.254
REMARK  3 active torsions:
REMARK  status: ('A' for Active; 'I' for Inactive)
REMARK    1  A    between atoms: C_11  and  N_12 
REMARK       I    between atoms: N_12  and  C_13 
REMARK       I    between atoms: C_13  and  N_14 
REMARK    2  A    between atoms: N_14  and  C_15 
REMARK    3  A    between atoms: C_16  and  O_17 
ROOT
HETATM    1  N   UNL     1     -34.315  41.439 -54.464  1.00  0.00    -0.338 N 
HETATM    2  C   UNL     1     -34.692  41.317 -55.778  1.00  0.00     0.321 C 
HETATM    3  N   UNL     1     -36.036  41.453 -56.006  1.00  0.00    -0.306 N 
HETATM    4  O   UNL     1     -33.808  41.139 -56.606  1.00  0.00    -0.247 OA
HETATM    5  H   UNL     1     -33.305  41.398 -54.428  1.00  0.00     0.164 HD
HETATM    6  H   UNL     1     -36.432  42.238 -55.510  1.00  0.00     0.171 HD
ENDROOT
BRANCH   1   7
HETATM    7  C   UNL     1     -35.119  41.058 -53.314  1.00  0.00     0.091 C 
HETATM    8  C   UNL     1     -34.416  41.327 -51.982  1.00  0.00     0.063 C 
HETATM    9  C   UNL     1     -33.378  40.286 -51.531  1.00  0.00     0.121 C 
HETATM   10  N   UNL     1     -33.894  38.885 -51.764  1.00  0.00    -0.059 N 
HETATM   11  C   UNL     1     -32.001  40.456 -52.181  1.00  0.00     0.046 C 
HETATM   12  C   UNL     1     -33.175  40.417 -50.005  1.00  0.00     0.046 C 
HETATM   13  C   UNL     1     -34.618  38.526 -53.047  1.00  0.00     0.121 C 
HETATM   14  H   UNL     1     -34.538  38.666 -50.990  1.00  0.00     0.279 HD
HETATM   15  H   UNL     1     -33.117  38.219 -51.633  1.00  0.00     0.279 HD
HETATM   16  C   UNL     1     -33.614  38.243 -54.169  1.00  0.00     0.046 C 
HETATM   17  C   UNL     1     -35.363  37.205 -52.755  1.00  0.00     0.046 C 
HETATM   18  C   UNL     1     -35.642  39.618 -53.383  1.00  0.00     0.063 C 
ENDBRANCH   1   7
BRANCH   3  19
HETATM   19  C   UNL     1     -36.626  41.162 -57.261  1.00  0.00     0.072 A 
HETATM   20  C   UNL     1     -37.159  39.895 -57.582  1.00  0.00     0.095 A 
HETATM   21  C   UNL     1     -37.690  39.681 -58.862  1.00  0.00     0.042 A 
HETATM   22  C   UNL     1     -37.711  40.716 -59.801  1.00  0.00     0.045 A 
HETATM   23  C   UNL     1     -37.229  41.968 -59.452  1.00  0.00     0.118 A 
HETATM   24  F   UNL     1     -37.268  42.965 -60.345  1.00  0.00    -0.206 F 
HETATM   25  C   UNL     1     -36.700  42.207 -58.189  1.00  0.00     0.074 A 
BRANCH  20  26
HETATM   26  O   UNL     1     -37.224  38.969 -56.570  1.00  0.00    -0.354 OA
HETATM   27  C   UNL     1     -36.369  37.837 -56.690  1.00  0.00     0.210 C 
ENDBRANCH  20  26
ENDBRANCH   3  19
TORSDOF 3
ENDMDL
MODEL 10
REMARK VINA RESULT:      -6.7     15.036     17.061
REMARK  3 active torsions:
REMARK  status: ('A' for Active; 'I' for Inactive)
REMARK    1  A    between atoms: C_11  and  N_12 
REMARK       I    between atoms: N_12  and  C_13 
REMARK       I    between atoms: C_13  and  N_14 
REMARK    2  A    between atoms: N_14  and  C_15 
REMARK    3  A    between atoms: C_16  and  O_17 
ROOT
HETATM    1  N   UNL     1     -36.220  39.303 -56.398  1.00  0.00    -0.338 N 
HETATM    2  C   UNL     1     -35.943  39.436 -55.060  1.00  0.00     0.321 C 
HETATM    3  N   UNL     1     -35.310  40.601 -54.716  1.00  0.00    -0.306 N 
HETATM    4  O   UNL     1     -36.313  38.538 -54.315  1.00  0.00    -0.247 OA
HETATM    5  H   UNL     1     -36.750  38.450 -56.520  1.00  0.00     0.164 HD
HETATM    6  H   UNL     1     -35.725  41.409 -55.158  1.00  0.00     0.171 HD
ENDROOT
BRANCH   1   7
HETATM    7  C   UNL     1     -35.423  39.849 -57.485  1.00  0.00     0.091 C 
HETATM    8  C   UNL     1     -36.027  41.121 -58.085  1.00  0.00     0.063 C 
HETATM    9  C   UNL     1     -37.170  40.928 -59.094  1.00  0.00     0.121 C 
HETATM   10  N   UNL     1     -36.850  39.802 -60.051  1.00  0.00    -0.059 N 
HETATM   11  C   UNL     1     -38.541  40.696 -58.449  1.00  0.00     0.046 C 
HETATM   12  C   UNL     1     -37.288  42.202 -59.960  1.00  0.00     0.046 C 
HETATM   13  C   UNL     1     -36.234  38.509 -59.553  1.00  0.00     0.121 C 
HETATM   14  H   UNL     1     -36.207  40.182 -60.762  1.00  0.00     0.279 HD
HETATM   15  H   UNL     1     -37.700  39.571 -60.589  1.00  0.00     0.279 HD
HETATM   16  C   UNL     1     -37.314  37.587 -58.978  1.00  0.00     0.046 C 
HETATM   17  C   UNL     1     -35.655  37.810 -60.802  1.00  0.00     0.046 C 
HETATM   18  C   UNL     1     -35.094  38.825 -58.578  1.00  0.00     0.063 C 
ENDBRANCH   1   7
BRANCH   3  19
HETATM   19  C   UNL     1     -34.773  40.820 -53.423  1.00  0.00     0.072 A 
HETATM   20  C   UNL     1     -35.392  41.654 -52.467  1.00  0.00     0.095 A 
HETATM   21  C   UNL     1     -34.772  41.847 -51.225  1.00  0.00     0.042 A 
HETATM   22  C   UNL     1     -33.567  41.205 -50.928  1.00  0.00     0.045 A 
HETATM   23  C   UNL     1     -32.998  40.350 -51.860  1.00  0.00     0.118 A 
HETATM   24  F   UNL     1     -31.854  39.719 -51.568  1.00  0.00    -0.206 F 
HETATM   25  C   UNL     1     -33.594  40.139 -53.098  1.00  0.00     0.074 A 
BRANCH  20  26
HETATM   26  O   UNL     1     -36.637  42.145 -52.778  1.00  0.00    -0.354 OA
HETATM   27  C   UNL     1     -37.748  41.332 -52.414  1.00  0.00     0.210 C 
ENDBRANCH  20  26
ENDBRANCH   3  19
TORSDOF 3
ENDMDL
