MODEL 1
REMARK VINA RESULT:      -7.8      0.000      0.000
REMARK  4 active torsions:
REMARK  status: ('A' for Active; 'I' for Inactive)
REMARK    1  A    between atoms: C_2  and  C_3 
REMARK    2  A    between atoms: C_4  and  N_5 
REMARK       I    between atoms: N_5  and  C_6 
REMARK       I    between atoms: C_6  and  N_7 
REMARK    3  A    between atoms: C_8  and  C_9 
REMARK    4  A    between atoms: C_21  and  C_22 
ROOT
HETATM    1  N   UNL     1     -43.677  55.291 -52.589  1.00  0.00    -0.209 NA
HETATM    2  C   UNL     1     -43.651  56.573 -52.109  1.00  0.00     0.301 C 
HETATM    3  N   UNL     1     -42.835  57.512 -52.684  1.00  0.00    -0.330 N 
HETATM    4  C   UNL     1     -42.878  58.908 -52.240  1.00  0.00     0.125 C 
HETATM    5  C   UNL     1     -41.817  59.623 -53.088  1.00  0.00     0.032 C 
HETATM    6  C   UNL     1     -40.818  58.524 -53.391  1.00  0.00     0.022 C 
HETATM    7  C   UNL     1     -41.707  57.303 -53.583  1.00  0.00     0.128 C 
HETATM    8  O   UNL     1     -44.450  56.845 -51.209  1.00  0.00    -0.254 OA
HETATM    9  H   UNL     1     -44.375  54.824 -52.017  1.00  0.00     0.138 HD
ENDROOT
BRANCH   1  10
HETATM   10  C   UNL     1     -42.552  54.457 -52.763  1.00  0.00     0.029 A 
HETATM   11  C   UNL     1     -41.775  54.051 -51.649  1.00  0.00    -0.036 A 
HETATM   12  C   UNL     1     -40.655  53.229 -51.860  1.00  0.00     0.009 A 
HETATM   13  C   UNL     1     -40.333  52.777 -53.133  1.00  0.00     0.001 A 
HETATM   14  C   UNL     1     -41.144  53.119 -54.210  1.00  0.00     0.009 A 
HETATM   15  C   UNL     1     -42.272  53.954 -54.055  1.00  0.00    -0.036 A 
BRANCH  11  16
HETATM   16  C   UNL     1     -42.103  54.406 -50.212  1.00  0.00     0.036 C 
HETATM   17  C   UNL     1     -41.164  55.453 -49.630  1.00  0.00     0.010 C 
ENDBRANCH  11  16
BRANCH  15  18
HETATM   18  C   UNL     1     -43.119  54.127 -55.304  1.00  0.00     0.036 C 
HETATM   19  C   UNL     1     -42.751  55.156 -56.360  1.00  0.00     0.010 C 
ENDBRANCH  15  18
ENDBRANCH   1  10
BRANCH   4  20
HETATM   20  C   UNL     1     -44.218  59.568 -52.385  1.00  0.00     0.014 A 
HETATM   21  C   UNL     1     -44.983  60.312 -51.437  1.00  0.00     0.061 A 
HETATM   22  C   UNL     1     -44.639  60.677 -50.042  1.00  0.00     0.073 C 
HETATM   23  N   UNL     1     -46.157  60.711 -51.942  1.00  0.00    -0.179 NA
HETATM   24  N   UNL     1     -46.134  60.274 -53.206  1.00  0.00    -0.282 N 
HETATM   25  H   UNL     1     -46.925  60.495 -53.801  1.00  0.00     0.189 HD
HETATM   26  C   UNL     1     -45.018  59.556 -53.519  1.00  0.00     0.034 A 
HETATM   27  C   UNL     1     -44.815  58.957 -54.859  1.00  0.00     0.070 C 
ENDBRANCH   4  20
TORSDOF 4
ENDMDL
MODEL 2
REMARK VINA RESULT:      -7.7      0.236      1.631
REMARK  4 active torsions:
REMARK  status: ('A' for Active; 'I' for Inactive)
REMARK    1  A    between atoms: C_2  and  C_3 
REMARK    2  A    between atoms: C_4  and  N_5 
REMARK       I    between atoms: N_5  and  C_6 
REMARK       I    between atoms: C_6  and  N_7 
REMARK    3  A    between atoms: C_8  and  C_9 
REMARK    4  A    between atoms: C_21  and  C_22 
ROOT
HETATM    1  N   UNL     1     -43.593  55.305 -52.540  1.00  0.00    -0.209 NA
HETATM    2  C   UNL     1     -43.514  56.575 -52.037  1.00  0.00     0.301 C 
HETATM    3  N   UNL     1     -42.677  57.498 -52.610  1.00  0.00    -0.330 N 
HETATM    4  C   UNL     1     -42.664  58.885 -52.139  1.00  0.00     0.125 C 
HETATM    5  C   UNL     1     -41.596  59.580 -52.995  1.00  0.00     0.032 C 
HETATM    6  C   UNL     1     -40.641  58.454 -53.337  1.00  0.00     0.022 C 
HETATM    7  C   UNL     1     -41.574  57.268 -53.536  1.00  0.00     0.128 C 
HETATM    8  O   UNL     1     -44.286  56.857 -51.117  1.00  0.00    -0.254 OA
HETATM    9  H   UNL     1     -44.295  54.850 -51.964  1.00  0.00     0.138 HD
ENDROOT
BRANCH   1  10
HETATM   10  C   UNL     1     -42.500  54.437 -52.752  1.00  0.00     0.029 A 
HETATM   11  C   UNL     1     -41.709  53.993 -51.663  1.00  0.00    -0.036 A 
HETATM   12  C   UNL     1     -40.622  53.138 -51.912  1.00  0.00     0.009 A 
HETATM   13  C   UNL     1     -40.347  52.691 -53.197  1.00  0.00     0.001 A 
HETATM   14  C   UNL     1     -41.173  53.071 -54.249  1.00  0.00     0.009 A 
HETATM   15  C   UNL     1     -42.269  53.940 -54.056  1.00  0.00    -0.036 A 
BRANCH  11  16
HETATM   16  C   UNL     1     -41.988  54.342 -50.214  1.00  0.00     0.036 C 
HETATM   17  C   UNL     1     -41.017  55.372 -49.654  1.00  0.00     0.010 C 
ENDBRANCH  11  16
BRANCH  15  18
HETATM   18  C   UNL     1     -43.142  54.154 -55.281  1.00  0.00     0.036 C 
HETATM   19  C   UNL     1     -42.746  55.154 -56.355  1.00  0.00     0.010 C 
ENDBRANCH  15  18
ENDBRANCH   1  10
BRANCH   4  20
HETATM   20  C   UNL     1     -43.983  59.593 -52.246  1.00  0.00     0.014 A 
HETATM   21  C   UNL     1     -44.926  59.621 -53.316  1.00  0.00     0.061 A 
HETATM   22  C   UNL     1     -44.880  58.913 -54.619  1.00  0.00     0.073 C 
HETATM   23  N   UNL     1     -45.976  60.406 -53.040  1.00  0.00    -0.179 NA
HETATM   24  N   UNL     1     -45.739  60.841 -51.798  1.00  0.00    -0.282 N 
HETATM   25  H   UNL     1     -46.434  61.437 -51.363  1.00  0.00     0.189 HD
HETATM   26  C   UNL     1     -44.549  60.418 -51.285  1.00  0.00     0.034 A 
HETATM   27  C   UNL     1     -44.087  60.816 -49.935  1.00  0.00     0.070 C 
ENDBRANCH   4  20
TORSDOF 4
ENDMDL
MODEL 3
REMARK VINA RESULT:      -7.6      0.566      2.729
REMARK  4 active torsions:
REMARK  status: ('A' for Active; 'I' for Inactive)
REMARK    1  A    between atoms: C_2  and  C_3 
REMARK    2  A    between atoms: C_4  and  N_5 
REMARK       I    between atoms: N_5  and  C_6 
REMARK       I    between atoms: C_6  and  N_7 
REMARK    3  A    between atoms: C_8  and  C_9 
REMARK    4  A    between atoms: C_21  and  C_22 
ROOT
HETATM    1  N   UNL     1     -43.896  55.376 -52.147  1.00  0.00    -0.209 NA
HETATM    2  C   UNL     1     -43.878  56.657 -51.664  1.00  0.00     0.301 C 
HETATM    3  N   UNL     1     -43.068  57.603 -52.238  1.00  0.00    -0.330 N 
HETATM    4  C   UNL     1     -43.119  58.997 -51.790  1.00  0.00     0.125 C 
HETATM    5  C   UNL     1     -42.065  59.721 -52.638  1.00  0.00     0.032 C 
HETATM    6  C   UNL     1     -41.059  58.629 -52.946  1.00  0.00     0.022 C 
HETATM    7  C   UNL     1     -41.940  57.403 -53.140  1.00  0.00     0.128 C 
HETATM    8  O   UNL     1     -44.676  56.922 -50.762  1.00  0.00    -0.254 OA
HETATM    9  H   UNL     1     -44.590  54.903 -51.575  1.00  0.00     0.138 HD
ENDROOT
BRANCH   1  10
HETATM   10  C   UNL     1     -42.766  54.550 -52.326  1.00  0.00     0.029 A 
HETATM   11  C   UNL     1     -42.433  54.049 -53.609  1.00  0.00    -0.036 A 
HETATM   12  C   UNL     1     -41.306  53.222 -53.748  1.00  0.00     0.009 A 
HETATM   13  C   UNL     1     -40.496  52.931 -52.659  1.00  0.00     0.001 A 
HETATM   14  C   UNL     1     -40.787  53.489 -51.419  1.00  0.00     0.009 A 
HETATM   15  C   UNL     1     -41.915  54.314 -51.221  1.00  0.00    -0.036 A 
BRANCH  11  16
HETATM   16  C   UNL     1     -43.194  54.390 -54.876  1.00  0.00     0.036 C 
HETATM   17  C   UNL     1     -42.306  54.981 -55.961  1.00  0.00     0.010 C 
ENDBRANCH  11  16
BRANCH  15  18
HETATM   18  C   UNL     1     -42.018  54.941 -49.841  1.00  0.00     0.036 C 
HETATM   19  C   UNL     1     -40.953  54.687 -48.787  1.00  0.00     0.010 C 
ENDBRANCH  15  18
ENDBRANCH   1  10
BRANCH   4  20
HETATM   20  C   UNL     1     -44.463  59.650 -51.931  1.00  0.00     0.014 A 
HETATM   21  C   UNL     1     -45.236  60.377 -50.977  1.00  0.00     0.061 A 
HETATM   22  C   UNL     1     -44.897  60.730 -49.577  1.00  0.00     0.073 C 
HETATM   23  N   UNL     1     -46.412  60.773 -51.480  1.00  0.00    -0.179 NA
HETATM   24  N   UNL     1     -46.383  60.350 -52.748  1.00  0.00    -0.282 N 
HETATM   25  H   UNL     1     -47.174  60.572 -53.342  1.00  0.00     0.189 HD
HETATM   26  C   UNL     1     -45.261  59.644 -53.066  1.00  0.00     0.034 A 
HETATM   27  C   UNL     1     -45.051  59.061 -54.412  1.00  0.00     0.070 C 
ENDBRANCH   4  20
TORSDOF 4
ENDMDL
MODEL 4
REMARK VINA RESULT:      -7.4      0.476      3.132
REMARK  4 active torsions:
REMARK  status: ('A' for Active; 'I' for Inactive)
REMARK    1  A    between atoms: C_2  and  C_3 
REMARK    2  A    between atoms: C_4  and  N_5 
REMARK       I    between atoms: N_5  and  C_6 
REMARK       I    between atoms: C_6  and  N_7 
REMARK    3  A    between atoms: C_8  and  C_9 
REMARK    4  A    between atoms: C_21  and  C_22 
ROOT
HETATM    1  N   UNL     1     -43.600  55.268 -52.439  1.00  0.00    -0.209 NA
HETATM    2  C   UNL     1     -43.471  56.537 -51.942  1.00  0.00     0.301 C 
HETATM    3  N   UNL     1     -42.679  57.455 -52.583  1.00  0.00    -0.330 N 
HETATM    4  C   UNL     1     -42.617  58.842 -52.113  1.00  0.00     0.125 C 
HETATM    5  C   UNL     1     -41.621  59.532 -53.055  1.00  0.00     0.032 C 
HETATM    6  C   UNL     1     -40.706  58.400 -53.478  1.00  0.00     0.022 C 
HETATM    7  C   UNL     1     -41.660  57.220 -53.599  1.00  0.00     0.128 C 
HETATM    8  O   UNL     1     -44.160  56.822 -50.960  1.00  0.00    -0.254 OA
HETATM    9  H   UNL     1     -44.254  54.817 -51.806  1.00  0.00     0.138 HD
ENDROOT
BRANCH   1  10
HETATM   10  C   UNL     1     -42.535  54.394 -52.744  1.00  0.00     0.029 A 
HETATM   11  C   UNL     1     -42.366  53.893 -54.059  1.00  0.00    -0.036 A 
HETATM   12  C   UNL     1     -41.300  53.017 -54.324  1.00  0.00     0.009 A 
HETATM   13  C   UNL     1     -40.392  52.678 -53.331  1.00  0.00     0.001 A 
HETATM   14  C   UNL     1     -40.521  53.234 -52.063  1.00  0.00     0.009 A 
HETATM   15  C   UNL     1     -41.582  54.107 -51.739  1.00  0.00    -0.036 A 
BRANCH  11  16
HETATM   16  C   UNL     1     -43.242  54.283 -55.234  1.00  0.00     0.036 C 
HETATM   17  C   UNL     1     -42.484  55.042 -56.314  1.00  0.00     0.010 C 
ENDBRANCH  11  16
BRANCH  15  18
HETATM   18  C   UNL     1     -41.507  54.722 -50.352  1.00  0.00     0.036 C 
HETATM   19  C   UNL     1     -40.293  54.500 -49.464  1.00  0.00     0.010 C 
ENDBRANCH  15  18
ENDBRANCH   1  10
BRANCH   4  20
HETATM   20  C   UNL     1     -43.936  59.559 -52.107  1.00  0.00     0.014 A 
HETATM   21  C   UNL     1     -44.984  59.562 -53.075  1.00  0.00     0.061 A 
HETATM   22  C   UNL     1     -45.076  58.813 -54.352  1.00  0.00     0.073 C 
HETATM   23  N   UNL     1     -45.995  60.365 -52.718  1.00  0.00    -0.179 NA
HETATM   24  N   UNL     1     -45.630  60.836 -51.522  1.00  0.00    -0.282 N 
HETATM   25  H   UNL     1     -46.272  61.453 -51.037  1.00  0.00     0.189 HD
HETATM   26  C   UNL     1     -44.396  60.418 -51.119  1.00  0.00     0.034 A 
HETATM   27  C   UNL     1     -43.795  60.855 -49.838  1.00  0.00     0.070 C 
ENDBRANCH   4  20
TORSDOF 4
ENDMDL
MODEL 5
REMARK VINA RESULT:      -7.0      2.592      3.504
REMARK  4 active torsions:
REMARK  status: ('A' for Active; 'I' for Inactive)
REMARK    1  A    between atoms: C_2  and  C_3 
REMARK    2  A    between atoms: C_4  and  N_5 
REMARK       I    between atoms: N_5  and  C_6 
REMARK       I    between atoms: C_6  and  N_7 
REMARK    3  A    between atoms: C_8  and  C_9 
REMARK    4  A    between atoms: C_21  and  C_22 
ROOT
HETATM    1  N   UNL     1     -42.780  53.973 -53.731  1.00  0.00    -0.209 NA
HETATM    2  C   UNL     1     -43.283  55.215 -54.010  1.00  0.00     0.301 C 
HETATM    3  N   UNL     1     -42.438  56.279 -54.197  1.00  0.00    -0.330 N 
HETATM    4  C   UNL     1     -42.966  57.588 -54.595  1.00  0.00     0.125 C 
HETATM    5  C   UNL     1     -41.735  58.501 -54.670  1.00  0.00     0.032 C 
HETATM    6  C   UNL     1     -40.783  57.881 -53.666  1.00  0.00     0.022 C 
HETATM    7  C   UNL     1     -41.028  56.390 -53.843  1.00  0.00     0.128 C 
HETATM    8  O   UNL     1     -44.503  55.298 -54.166  1.00  0.00    -0.254 OA
HETATM    9  H   UNL     1     -43.601  53.378 -53.675  1.00  0.00     0.138 HD
ENDROOT
BRANCH   1  10
HETATM   10  C   UNL     1     -41.883  53.667 -52.686  1.00  0.00     0.029 A 
HETATM   11  C   UNL     1     -42.173  54.049 -51.351  1.00  0.00    -0.036 A 
HETATM   12  C   UNL     1     -41.252  53.737 -50.337  1.00  0.00     0.009 A 
HETATM   13  C   UNL     1     -40.096  53.023 -50.618  1.00  0.00     0.001 A 
HETATM   14  C   UNL     1     -39.857  52.586 -51.917  1.00  0.00     0.009 A 
HETATM   15  C   UNL     1     -40.741  52.885 -52.976  1.00  0.00    -0.036 A 
BRANCH  11  16
HETATM   16  C   UNL     1     -43.453  54.741 -50.926  1.00  0.00     0.036 C 
HETATM   17  C   UNL     1     -43.275  56.236 -50.704  1.00  0.00     0.010 C 
ENDBRANCH  11  16
BRANCH  15  18
HETATM   18  C   UNL     1     -40.399  52.229 -54.303  1.00  0.00     0.036 C 
HETATM   19  C   UNL     1     -39.949  50.779 -54.363  1.00  0.00     0.010 C 
ENDBRANCH  15  18
ENDBRANCH   1  10
BRANCH   4  20
HETATM   20  C   UNL     1     -43.717  57.589 -55.894  1.00  0.00     0.014 A 
HETATM   21  C   UNL     1     -44.861  58.344 -56.292  1.00  0.00     0.061 A 
HETATM   22  C   UNL     1     -45.605  59.379 -55.535  1.00  0.00     0.073 C 
HETATM   23  N   UNL     1     -45.262  58.031 -57.531  1.00  0.00    -0.179 NA
HETATM   24  N   UNL     1     -44.368  57.126 -57.944  1.00  0.00    -0.282 N 
HETATM   25  H   UNL     1     -44.458  56.765 -58.887  1.00  0.00     0.189 HD
HETATM   26  C   UNL     1     -43.443  56.796 -56.999  1.00  0.00     0.034 A 
HETATM   27  C   UNL     1     -42.386  55.788 -57.248  1.00  0.00     0.070 C 
ENDBRANCH   4  20
TORSDOF 4
ENDMDL
MODEL 6
REMARK VINA RESULT:      -6.9      2.900      4.942
REMARK  4 active torsions:
REMARK  status: ('A' for Active; 'I' for Inactive)
REMARK    1  A    between atoms: C_2  and  C_3 
REMARK    2  A    between atoms: C_4  and  N_5 
REMARK       I    between atoms: N_5  and  C_6 
REMARK       I    between atoms: C_6  and  N_7 
REMARK    3  A    between atoms: C_8  and  C_9 
REMARK    4  A    between atoms: C_21  and  C_22 
ROOT
HETATM    1  N   UNL     1     -40.891  56.113 -53.760  1.00  0.00    -0.209 NA
HETATM    2  C   UNL     1     -41.688  56.187 -54.871  1.00  0.00     0.301 C 
HETATM    3  N   UNL     1     -42.858  56.901 -54.838  1.00  0.00    -0.330 N 
HETATM    4  C   UNL     1     -43.663  57.066 -56.052  1.00  0.00     0.125 C 
HETATM    5  C   UNL     1     -44.883  57.883 -55.606  1.00  0.00     0.032 C 
HETATM    6  C   UNL     1     -45.036  57.507 -54.145  1.00  0.00     0.022 C 
HETATM    7  C   UNL     1     -43.593  57.383 -53.675  1.00  0.00     0.128 C 
HETATM    8  O   UNL     1     -41.257  55.659 -55.899  1.00  0.00    -0.254 OA
HETATM    9  H   UNL     1     -40.092  55.564 -54.062  1.00  0.00     0.138 HD
ENDROOT
BRANCH   1  10
HETATM   10  C   UNL     1     -41.309  55.701 -52.476  1.00  0.00     0.029 A 
HETATM   11  C   UNL     1     -41.666  54.351 -52.232  1.00  0.00    -0.036 A 
HETATM   12  C   UNL     1     -42.087  53.978 -50.944  1.00  0.00     0.009 A 
HETATM   13  C   UNL     1     -42.113  54.901 -49.908  1.00  0.00     0.001 A 
HETATM   14  C   UNL     1     -41.689  56.206 -50.138  1.00  0.00     0.009 A 
HETATM   15  C   UNL     1     -41.270  56.636 -51.416  1.00  0.00    -0.036 A 
BRANCH  11  16
HETATM   16  C   UNL     1     -41.576  53.249 -53.269  1.00  0.00     0.036 C 
HETATM   17  C   UNL     1     -40.237  52.526 -53.253  1.00  0.00     0.010 C 
ENDBRANCH  11  16
BRANCH  15  18
HETATM   18  C   UNL     1     -40.722  58.052 -51.468  1.00  0.00     0.036 C 
HETATM   19  C   UNL     1     -40.846  58.982 -50.273  1.00  0.00     0.010 C 
ENDBRANCH  15  18
ENDBRANCH   1  10
BRANCH   4  20
HETATM   20  C   UNL     1     -42.950  57.740 -57.187  1.00  0.00     0.014 A 
HETATM   21  C   UNL     1     -42.334  59.026 -57.251  1.00  0.00     0.061 A 
HETATM   22  C   UNL     1     -42.193  60.046 -56.184  1.00  0.00     0.073 C 
HETATM   23  N   UNL     1     -41.830  59.282 -58.465  1.00  0.00    -0.179 NA
HETATM   24  N   UNL     1     -42.073  58.166 -59.160  1.00  0.00    -0.282 N 
HETATM   25  H   UNL     1     -41.742  58.120 -60.117  1.00  0.00     0.189 HD
HETATM   26  C   UNL     1     -42.768  57.224 -58.462  1.00  0.00     0.034 A 
HETATM   27  C   UNL     1     -43.165  55.930 -59.064  1.00  0.00     0.070 C 
ENDBRANCH   4  20
TORSDOF 4
ENDMDL
MODEL 7
REMARK VINA RESULT:      -6.8      3.197      5.608
REMARK  4 active torsions:
REMARK  status: ('A' for Active; 'I' for Inactive)
REMARK    1  A    between atoms: C_2  and  C_3 
REMARK    2  A    between atoms: C_4  and  N_5 
REMARK       I    between atoms: N_5  and  C_6 
REMARK       I    between atoms: C_6  and  N_7 
REMARK    3  A    between atoms: C_8  and  C_9 
REMARK    4  A    between atoms: C_21  and  C_22 
ROOT
HETATM    1  N   UNL     1     -41.091  56.025 -54.549  1.00  0.00    -0.209 NA
HETATM    2  C   UNL     1     -41.960  55.955 -55.604  1.00  0.00     0.301 C 
HETATM    3  N   UNL     1     -43.003  56.840 -55.704  1.00  0.00    -0.330 N 
HETATM    4  C   UNL     1     -43.875  56.833 -56.881  1.00  0.00     0.125 C 
HETATM    5  C   UNL     1     -44.915  57.928 -56.606  1.00  0.00     0.032 C 
HETATM    6  C   UNL     1     -44.996  57.954 -55.092  1.00  0.00     0.022 C 
HETATM    7  C   UNL     1     -43.554  57.710 -54.672  1.00  0.00     0.128 C 
HETATM    8  O   UNL     1     -41.704  55.126 -56.481  1.00  0.00    -0.254 OA
HETATM    9  H   UNL     1     -40.412  55.293 -54.736  1.00  0.00     0.138 HD
ENDROOT
BRANCH   1  10
HETATM   10  C   UNL     1     -41.454  56.018 -53.186  1.00  0.00     0.029 A 
HETATM   11  C   UNL     1     -41.887  54.821 -52.560  1.00  0.00    -0.036 A 
HETATM   12  C   UNL     1     -42.250  54.853 -51.203  1.00  0.00     0.009 A 
HETATM   13  C   UNL     1     -42.146  56.023 -50.464  1.00  0.00     0.001 A 
HETATM   14  C   UNL     1     -41.647  57.174 -51.066  1.00  0.00     0.009 A 
HETATM   15  C   UNL     1     -41.282  57.201 -52.430  1.00  0.00    -0.036 A 
BRANCH  11  16
HETATM   16  C   UNL     1     -41.940  53.474 -53.252  1.00  0.00     0.036 C 
HETATM   17  C   UNL     1     -40.595  52.763 -53.273  1.00  0.00     0.010 C 
ENDBRANCH  11  16
BRANCH  15  18
HETATM   18  C   UNL     1     -40.641  58.496 -52.898  1.00  0.00     0.036 C 
HETATM   19  C   UNL     1     -41.414  59.805 -52.866  1.00  0.00     0.010 C 
ENDBRANCH  15  18
ENDBRANCH   1  10
BRANCH   4  20
HETATM   20  C   UNL     1     -43.169  57.078 -58.183  1.00  0.00     0.014 A 
HETATM   21  C   UNL     1     -43.168  56.311 -59.386  1.00  0.00     0.061 A 
HETATM   22  C   UNL     1     -43.910  55.065 -59.698  1.00  0.00     0.073 C 
HETATM   23  N   UNL     1     -42.375  56.846 -60.323  1.00  0.00    -0.179 NA
HETATM   24  N   UNL     1     -41.907  57.962 -59.754  1.00  0.00    -0.282 N 
HETATM   25  H   UNL     1     -41.299  58.558 -60.305  1.00  0.00     0.189 HD
HETATM   26  C   UNL     1     -42.318  58.137 -58.466  1.00  0.00     0.034 A 
HETATM   27  C   UNL     1     -41.884  59.295 -57.650  1.00  0.00     0.070 C 
ENDBRANCH   4  20
TORSDOF 4
ENDMDL
MODEL 8
REMARK VINA RESULT:      -6.7      2.938      4.770
REMARK  4 active torsions:
REMARK  status: ('A' for Active; 'I' for Inactive)
REMARK    1  A    between atoms: C_2  and  C_3 
REMARK    2  A    between atoms: C_4  and  N_5 
REMARK       I    between atoms: N_5  and  C_6 
REMARK       I    between atoms: C_6  and  N_7 
REMARK    3  A    between atoms: C_8  and  C_9 
REMARK    4  A    between atoms: C_21  and  C_22 
ROOT
HETATM    1  N   UNL     1     -40.783  56.213 -53.870  1.00  0.00    -0.209 NA
HETATM    2  C   UNL     1     -41.657  56.177 -54.924  1.00  0.00     0.301 C 
HETATM    3  N   UNL     1     -42.815  56.911 -54.890  1.00  0.00    -0.330 N 
HETATM    4  C   UNL     1     -43.703  56.954 -56.054  1.00  0.00     0.125 C 
HETATM    5  C   UNL     1     -44.879  57.838 -55.619  1.00  0.00     0.032 C 
HETATM    6  C   UNL     1     -44.930  57.630 -54.118  1.00  0.00     0.022 C 
HETATM    7  C   UNL     1     -43.459  57.533 -53.739  1.00  0.00     0.128 C 
HETATM    8  O   UNL     1     -41.307  55.530 -55.914  1.00  0.00    -0.254 OA
HETATM    9  H   UNL     1     -40.013  55.619 -54.164  1.00  0.00     0.138 HD
ENDROOT
BRANCH   1  10
HETATM   10  C   UNL     1     -41.112  55.954 -52.523  1.00  0.00     0.029 A 
HETATM   11  C   UNL     1     -41.046  56.986 -51.552  1.00  0.00    -0.036 A 
HETATM   12  C   UNL     1     -41.371  56.690 -50.218  1.00  0.00     0.009 A 
HETATM   13  C   UNL     1     -41.797  55.421 -49.852  1.00  0.00     0.001 A 
HETATM   14  C   UNL     1     -41.932  54.435 -50.824  1.00  0.00     0.009 A 
HETATM   15  C   UNL     1     -41.605  54.675 -52.176  1.00  0.00    -0.036 A 
BRANCH  11  16
HETATM   16  C   UNL     1     -40.690  58.425 -51.868  1.00  0.00     0.036 C 
HETATM   17  C   UNL     1     -39.889  59.096 -50.761  1.00  0.00     0.010 C 
ENDBRANCH  11  16
BRANCH  15  18
HETATM   18  C   UNL     1     -41.928  53.535 -53.127  1.00  0.00     0.036 C 
HETATM   19  C   UNL     1     -40.823  52.673 -53.716  1.00  0.00     0.010 C 
ENDBRANCH  15  18
ENDBRANCH   1  10
BRANCH   4  20
HETATM   20  C   UNL     1     -43.066  57.485 -57.306  1.00  0.00     0.014 A 
HETATM   21  C   UNL     1     -42.384  58.716 -57.538  1.00  0.00     0.061 A 
HETATM   22  C   UNL     1     -42.076  59.807 -56.581  1.00  0.00     0.073 C 
HETATM   23  N   UNL     1     -41.988  58.839 -58.811  1.00  0.00    -0.179 NA
HETATM   24  N   UNL     1     -42.366  57.690 -59.382  1.00  0.00    -0.282 N 
HETATM   25  H   UNL     1     -42.135  57.545 -60.358  1.00  0.00     0.189 HD
HETATM   26  C   UNL     1     -43.044  56.856 -58.543  1.00  0.00     0.034 A 
HETATM   27  C   UNL     1     -43.575  55.548 -58.990  1.00  0.00     0.070 C 
ENDBRANCH   4  20
TORSDOF 4
ENDMDL
MODEL 9
REMARK VINA RESULT:      -6.7      2.287      3.438
REMARK  4 active torsions:
REMARK  status: ('A' for Active; 'I' for Inactive)
REMARK    1  A    between atoms: C_2  and  C_3 
REMARK    2  A    between atoms: C_4  and  N_5 
REMARK       I    between atoms: N_5  and  C_6 
REMARK       I    between atoms: C_6  and  N_7 
REMARK    3  A    between atoms: C_8  and  C_9 
REMARK    4  A    between atoms: C_21  and  C_22 
ROOT
HETATM    1  N   UNL     1     -43.341  54.956 -53.737  1.00  0.00    -0.209 NA
HETATM    2  C   UNL     1     -43.658  56.260 -54.009  1.00  0.00     0.301 C 
HETATM    3  N   UNL     1     -42.671  57.203 -54.135  1.00  0.00    -0.330 N 
HETATM    4  C   UNL     1     -42.999  58.577 -54.526  1.00  0.00     0.125 C 
HETATM    5  C   UNL     1     -41.654  59.316 -54.528  1.00  0.00     0.032 C 
HETATM    6  C   UNL     1     -40.841  58.557 -53.498  1.00  0.00     0.022 C 
HETATM    7  C   UNL     1     -41.276  57.115 -53.718  1.00  0.00     0.128 C 
HETATM    8  O   UNL     1     -44.848  56.510 -54.215  1.00  0.00    -0.254 OA
HETATM    9  H   UNL     1     -44.236  54.477 -53.729  1.00  0.00     0.138 HD
ENDROOT
BRANCH   1  10
HETATM   10  C   UNL     1     -42.542  54.515 -52.660  1.00  0.00     0.029 A 
HETATM   11  C   UNL     1     -42.880  54.850 -51.325  1.00  0.00    -0.036 A 
HETATM   12  C   UNL     1     -42.057  54.401 -50.279  1.00  0.00     0.009 A 
HETATM   13  C   UNL     1     -40.952  53.602 -50.534  1.00  0.00     0.001 A 
HETATM   14  C   UNL     1     -40.670  53.214 -51.840  1.00  0.00     0.009 A 
HETATM   15  C   UNL     1     -41.456  53.649 -52.929  1.00  0.00    -0.036 A 
BRANCH  11  16
HETATM   16  C   UNL     1     -44.120  55.632 -50.935  1.00  0.00     0.036 C 
HETATM   17  C   UNL     1     -43.857  57.122 -50.779  1.00  0.00     0.010 C 
ENDBRANCH  11  16
BRANCH  15  18
HETATM   18  C   UNL     1     -41.090  53.036 -54.270  1.00  0.00     0.036 C 
HETATM   19  C   UNL     1     -40.288  51.748 -54.347  1.00  0.00     0.010 C 
ENDBRANCH  15  18
ENDBRANCH   1  10
BRANCH   4  20
HETATM   20  C   UNL     1     -43.683  58.701 -55.856  1.00  0.00     0.014 A 
HETATM   21  C   UNL     1     -43.400  58.057 -57.098  1.00  0.00     0.061 A 
HETATM   22  C   UNL     1     -42.365  57.041 -57.407  1.00  0.00     0.073 C 
HETATM   23  N   UNL     1     -44.223  58.464 -58.073  1.00  0.00    -0.179 NA
HETATM   24  N   UNL     1     -45.050  59.321 -57.465  1.00  0.00    -0.282 N 
HETATM   25  H   UNL     1     -45.792  59.738 -58.015  1.00  0.00     0.189 HD
HETATM   26  C   UNL     1     -44.756  59.529 -56.150  1.00  0.00     0.034 A 
HETATM   27  C   UNL     1     -45.534  60.467 -55.307  1.00  0.00     0.070 C 
ENDBRANCH   4  20
TORSDOF 4
ENDMDL
MODEL 10
REMARK VINA RESULT:      -6.5     16.384     19.213
REMARK  4 active torsions:
REMARK  status: ('A' for Active; 'I' for Inactive)
REMARK    1  A    between atoms: C_2  and  C_3 
REMARK    2  A    between atoms: C_4  and  N_5 
REMARK       I    between atoms: N_5  and  C_6 
REMARK       I    between atoms: C_6  and  N_7 
REMARK    3  A    between atoms: C_8  and  C_9 
REMARK    4  A    between atoms: C_21  and  C_22 
ROOT
HETATM    1  N   UNL     1     -35.885  41.722 -53.178  1.00  0.00    -0.209 NA
HETATM    2  C   UNL     1     -35.575  40.797 -52.217  1.00  0.00     0.301 C 
HETATM    3  N   UNL     1     -35.108  39.558 -52.573  1.00  0.00    -0.330 N 
HETATM    4  C   UNL     1     -34.680  38.602 -51.548  1.00  0.00     0.125 C 
HETATM    5  C   UNL     1     -34.261  37.349 -52.330  1.00  0.00     0.032 C 
HETATM    6  C   UNL     1     -35.120  37.418 -53.578  1.00  0.00     0.022 C 
HETATM    7  C   UNL     1     -35.162  38.910 -53.878  1.00  0.00     0.128 C 
HETATM    8  O   UNL     1     -35.655  41.167 -51.044  1.00  0.00    -0.254 OA
HETATM    9  H   UNL     1     -36.168  42.544 -52.652  1.00  0.00     0.138 HD
ENDROOT
BRANCH   1  10
HETATM   10  C   UNL     1     -36.760  41.513 -54.265  1.00  0.00     0.029 A 
HETATM   11  C   UNL     1     -38.124  41.195 -54.043  1.00  0.00    -0.036 A 
HETATM   12  C   UNL     1     -38.964  40.984 -55.149  1.00  0.00     0.009 A 
HETATM   13  C   UNL     1     -38.488  41.129 -56.445  1.00  0.00     0.001 A 
HETATM   14  C   UNL     1     -37.168  41.517 -56.652  1.00  0.00     0.009 A 
HETATM   15  C   UNL     1     -36.277  41.727 -55.577  1.00  0.00    -0.036 A 
BRANCH  11  16
HETATM   16  C   UNL     1     -38.763  41.112 -52.671  1.00  0.00     0.036 C 
HETATM   17  C   UNL     1     -40.253  41.418 -52.691  1.00  0.00     0.010 C 
ENDBRANCH  11  16
BRANCH  15  18
HETATM   18  C   UNL     1     -34.913  42.266 -55.970  1.00  0.00     0.036 C 
HETATM   19  C   UNL     1     -33.771  41.323 -56.315  1.00  0.00     0.010 C 
ENDBRANCH  15  18
ENDBRANCH   1  10
BRANCH   4  20
HETATM   20  C   UNL     1     -33.563  39.086 -50.670  1.00  0.00     0.014 A 
HETATM   21  C   UNL     1     -32.362  39.779 -51.010  1.00  0.00     0.061 A 
HETATM   22  C   UNL     1     -31.904  40.255 -52.338  1.00  0.00     0.073 C 
HETATM   23  N   UNL     1     -31.593  40.005 -49.938  1.00  0.00    -0.179 NA
HETATM   24  N   UNL     1     -32.301  39.509 -48.918  1.00  0.00    -0.282 N 
HETATM   25  H   UNL     1     -31.919  39.602 -47.983  1.00  0.00     0.189 HD
HETATM   26  C   UNL     1     -33.470  38.917 -49.296  1.00  0.00     0.034 A 
HETATM   27  C   UNL     1     -34.383  38.279 -48.320  1.00  0.00     0.070 C 
ENDBRANCH   4  20
TORSDOF 4
ENDMDL
