MODEL 1
REMARK VINA RESULT:      -9.7      0.000      0.000
REMARK  5 active torsions:
REMARK  status: ('A' for Active; 'I' for Inactive)
REMARK    1  A    between atoms: C_3  and  O_4 
REMARK    2  A    between atoms: C_6  and  N_7 
REMARK       I    between atoms: N_7  and  C_8 
REMARK    3  A    between atoms: C_8  and  C_9 
REMARK    4  A    between atoms: C_12  and  C_13 
REMARK    5  A    between atoms: C_18  and  C_19 
ROOT
HETATM    1  C   UNL     1     -42.919  56.578 -55.704  1.00  0.00     0.096 C 
HETATM    2  C   UNL     1     -42.213  55.970 -54.683  1.00  0.00     0.138 C 
HETATM    3  N   UNL     1     -42.130  56.905 -53.675  1.00  0.00    -0.240 N 
HETATM    4  C   UNL     1     -41.421  56.703 -52.422  1.00  0.00     0.221 C 
HETATM    5  C   UNL     1     -41.129  55.207 -52.202  1.00  0.00     0.066 C 
HETATM    6  C   UNL     1     -40.624  54.570 -53.501  1.00  0.00     0.118 C 
HETATM    7  N   UNL     1     -41.637  54.741 -54.552  1.00  0.00    -0.365 N 
HETATM    8  N   UNL     1     -42.575  58.117 -54.036  1.00  0.00    -0.181 NA
HETATM    9  C   UNL     1     -43.084  57.910 -55.254  1.00  0.00     0.160 C 
HETATM   10  H   UNL     1     -41.362  54.256 -55.410  1.00  0.00     0.161 HD
ENDROOT
BRANCH   1  11
HETATM   11  C   UNL     1     -43.363  56.036 -56.979  1.00  0.00     0.261 C 
HETATM   12  N   UNL     1     -44.328  56.811 -57.595  1.00  0.00    -0.323 N 
HETATM   13  H   UNL     1     -44.517  57.702 -57.148  1.00  0.00     0.169 HD
HETATM   14  O   UNL     1     -42.863  55.011 -57.426  1.00  0.00    -0.267 OA
BRANCH  12  15
HETATM   15  C   UNL     1     -45.005  56.552 -58.803  1.00  0.00     0.037 A 
HETATM   16  C   UNL     1     -44.564  55.642 -59.766  1.00  0.00     0.066 A 
HETATM   17  C   UNL     1     -45.308  55.442 -60.928  1.00  0.00     0.067 A 
HETATM   18  C   UNL     1     -46.491  56.136 -61.154  1.00  0.00     0.036 A 
HETATM   19  C   UNL     1     -46.940  57.043 -60.197  1.00  0.00     0.005 A 
HETATM   20  C   UNL     1     -46.202  57.247 -59.026  1.00  0.00     0.029 A 
BRANCH  17  21
HETATM   21  O   UNL     1     -44.837  54.537 -61.835  1.00  0.00    -0.361 OA
HETATM   22  H   UNL     1     -44.006  54.161 -61.503  1.00  0.00     0.217 HD
ENDBRANCH  17  21
ENDBRANCH  12  15
ENDBRANCH   1  11
BRANCH   4  23
HETATM   23  C   UNL     1     -42.195  57.249 -51.242  1.00  0.00     0.409 C 
HETATM   24  F   UNL     1     -43.517  56.977 -51.324  1.00  0.00    -0.169 F 
HETATM   25  F   UNL     1     -41.750  56.660 -50.099  1.00  0.00    -0.169 F 
HETATM   26  F   UNL     1     -42.044  58.576 -51.061  1.00  0.00    -0.169 F 
ENDBRANCH   4  23
BRANCH   6  27
HETATM   27  C   UNL     1     -40.319  53.096 -53.319  1.00  0.00    -0.035 A 
HETATM   28  C   UNL     1     -39.900  52.582 -52.076  1.00  0.00     0.012 A 
HETATM   29  C   UNL     1     -39.603  51.226 -51.932  1.00  0.00     0.043 A 
HETATM   30  C   UNL     1     -39.720  50.379 -53.026  1.00  0.00     0.116 A 
HETATM   31  F   UNL     1     -39.433  49.077 -52.888  1.00  0.00    -0.206 F 
HETATM   32  C   UNL     1     -40.131  50.861 -54.263  1.00  0.00     0.043 A 
HETATM   33  C   UNL     1     -40.429  52.216 -54.409  1.00  0.00     0.012 A 
ENDBRANCH   6  27
TORSDOF 5
ENDMDL
MODEL 2
REMARK VINA RESULT:      -9.0      3.502      7.453
REMARK  5 active torsions:
REMARK  status: ('A' for Active; 'I' for Inactive)
REMARK    1  A    between atoms: C_3  and  O_4 
REMARK    2  A    between atoms: C_6  and  N_7 
REMARK       I    between atoms: N_7  and  C_8 
REMARK    3  A    between atoms: C_8  and  C_9 
REMARK    4  A    between atoms: C_12  and  C_13 
REMARK    5  A    between atoms: C_18  and  C_19 
ROOT
HETATM    1  C   UNL     1     -42.282  55.628 -52.025  1.00  0.00     0.096 C 
HETATM    2  C   UNL     1     -42.634  56.476 -53.059  1.00  0.00     0.138 C 
HETATM    3  N   UNL     1     -42.580  57.749 -52.537  1.00  0.00    -0.240 N 
HETATM    4  C   UNL     1     -42.927  58.955 -53.270  1.00  0.00     0.221 C 
HETATM    5  C   UNL     1     -42.969  58.672 -54.783  1.00  0.00     0.066 C 
HETATM    6  C   UNL     1     -43.697  57.352 -55.055  1.00  0.00     0.118 C 
HETATM    7  N   UNL     1     -43.005  56.262 -54.354  1.00  0.00    -0.365 N 
HETATM    8  N   UNL     1     -42.390  57.772 -51.210  1.00  0.00    -0.181 NA
HETATM    9  C   UNL     1     -42.176  56.488 -50.905  1.00  0.00     0.160 C 
HETATM   10  H   UNL     1     -43.421  55.356 -54.580  1.00  0.00     0.161 HD
ENDROOT
BRANCH   1  11
HETATM   11  C   UNL     1     -42.104  54.185 -52.025  1.00  0.00     0.261 C 
HETATM   12  N   UNL     1     -40.883  53.786 -52.537  1.00  0.00    -0.323 N 
HETATM   13  H   UNL     1     -40.231  54.537 -52.735  1.00  0.00     0.169 HD
HETATM   14  O   UNL     1     -42.972  53.452 -51.566  1.00  0.00    -0.267 OA
BRANCH  12  15
HETATM   15  C   UNL     1     -40.414  52.471 -52.728  1.00  0.00     0.037 A 
HETATM   16  C   UNL     1     -39.914  51.664 -51.704  1.00  0.00     0.066 A 
HETATM   17  C   UNL     1     -39.482  50.369 -51.986  1.00  0.00     0.067 A 
HETATM   18  C   UNL     1     -39.537  49.857 -53.278  1.00  0.00     0.036 A 
HETATM   19  C   UNL     1     -40.037  50.655 -54.304  1.00  0.00     0.005 A 
HETATM   20  C   UNL     1     -40.477  51.954 -54.029  1.00  0.00     0.029 A 
BRANCH  17  21
HETATM   21  O   UNL     1     -39.008  49.618 -50.950  1.00  0.00    -0.361 OA
HETATM   22  H   UNL     1     -38.342  48.997 -51.288  1.00  0.00     0.217 HD
ENDBRANCH  17  21
ENDBRANCH  12  15
ENDBRANCH   1  11
BRANCH   4  23
HETATM   23  C   UNL     1     -41.958  60.084 -52.991  1.00  0.00     0.409 C 
HETATM   24  F   UNL     1     -40.670  59.675 -53.020  1.00  0.00    -0.169 F 
HETATM   25  F   UNL     1     -42.083  61.035 -53.956  1.00  0.00    -0.169 F 
HETATM   26  F   UNL     1     -42.180  60.711 -51.819  1.00  0.00    -0.169 F 
ENDBRANCH   4  23
BRANCH   6  27
HETATM   27  C   UNL     1     -43.765  57.045 -56.538  1.00  0.00    -0.035 A 
HETATM   28  C   UNL     1     -43.033  55.982 -57.100  1.00  0.00     0.012 A 
HETATM   29  C   UNL     1     -43.090  55.726 -58.471  1.00  0.00     0.043 A 
HETATM   30  C   UNL     1     -43.875  56.532 -59.286  1.00  0.00     0.116 A 
HETATM   31  F   UNL     1     -43.928  56.288 -60.603  1.00  0.00    -0.206 F 
HETATM   32  C   UNL     1     -44.606  57.588 -58.757  1.00  0.00     0.043 A 
HETATM   33  C   UNL     1     -44.551  57.845 -57.386  1.00  0.00     0.012 A 
ENDBRANCH   6  27
TORSDOF 5
ENDMDL
MODEL 3
REMARK VINA RESULT:      -8.7      1.710      2.478
REMARK  5 active torsions:
REMARK  status: ('A' for Active; 'I' for Inactive)
REMARK    1  A    between atoms: C_3  and  O_4 
REMARK    2  A    between atoms: C_6  and  N_7 
REMARK       I    between atoms: N_7  and  C_8 
REMARK    3  A    between atoms: C_8  and  C_9 
REMARK    4  A    between atoms: C_12  and  C_13 
REMARK    5  A    between atoms: C_18  and  C_19 
ROOT
HETATM    1  C   UNL     1     -42.639  58.931 -56.256  1.00  0.00     0.096 C 
HETATM    2  C   UNL     1     -42.107  58.228 -55.192  1.00  0.00     0.138 C 
HETATM    3  N   UNL     1     -42.052  59.119 -54.142  1.00  0.00    -0.240 N 
HETATM    4  C   UNL     1     -41.506  58.812 -52.830  1.00  0.00     0.221 C 
HETATM    5  C   UNL     1     -41.375  57.290 -52.643  1.00  0.00     0.066 C 
HETATM    6  C   UNL     1     -40.789  56.650 -53.906  1.00  0.00     0.118 C 
HETATM    7  N   UNL     1     -41.661  56.947 -55.050  1.00  0.00    -0.365 N 
HETATM    8  N   UNL     1     -42.345  60.378 -54.497  1.00  0.00    -0.181 NA
HETATM    9  C   UNL     1     -42.733  60.258 -55.770  1.00  0.00     0.160 C 
HETATM   10  H   UNL     1     -41.338  56.467 -55.894  1.00  0.00     0.161 HD
ENDROOT
BRANCH   1  11
HETATM   11  C   UNL     1     -42.987  58.475 -57.592  1.00  0.00     0.261 C 
HETATM   12  N   UNL     1     -43.892  57.430 -57.593  1.00  0.00    -0.323 N 
HETATM   13  H   UNL     1     -44.284  57.195 -56.687  1.00  0.00     0.169 HD
HETATM   14  O   UNL     1     -42.519  59.029 -58.579  1.00  0.00    -0.267 OA
BRANCH  12  15
HETATM   15  C   UNL     1     -44.396  56.723 -58.703  1.00  0.00     0.037 A 
HETATM   16  C   UNL     1     -45.450  57.171 -59.502  1.00  0.00     0.066 A 
HETATM   17  C   UNL     1     -45.874  56.408 -60.589  1.00  0.00     0.067 A 
HETATM   18  C   UNL     1     -45.265  55.197 -60.900  1.00  0.00     0.036 A 
HETATM   19  C   UNL     1     -44.211  54.745 -60.109  1.00  0.00     0.005 A 
HETATM   20  C   UNL     1     -43.776  55.506 -59.019  1.00  0.00     0.029 A 
BRANCH  17  21
HETATM   21  O   UNL     1     -46.904  56.893 -61.342  1.00  0.00    -0.361 OA
HETATM   22  H   UNL     1     -47.654  57.092 -60.759  1.00  0.00     0.217 HD
ENDBRANCH  17  21
ENDBRANCH  12  15
ENDBRANCH   1  11
BRANCH   4  23
HETATM   23  C   UNL     1     -42.353  59.390 -51.718  1.00  0.00     0.409 C 
HETATM   24  F   UNL     1     -43.676  59.295 -51.976  1.00  0.00    -0.169 F 
HETATM   25  F   UNL     1     -42.132  58.690 -50.572  1.00  0.00    -0.169 F 
HETATM   26  F   UNL     1     -42.066  60.676 -51.429  1.00  0.00    -0.169 F 
ENDBRANCH   4  23
BRANCH   6  27
HETATM   27  C   UNL     1     -40.639  55.149 -53.754  1.00  0.00    -0.035 A 
HETATM   28  C   UNL     1     -40.265  54.336 -54.841  1.00  0.00     0.012 A 
HETATM   29  C   UNL     1     -40.152  52.953 -54.689  1.00  0.00     0.043 A 
HETATM   30  C   UNL     1     -40.413  52.376 -53.453  1.00  0.00     0.116 A 
HETATM   31  F   UNL     1     -40.307  51.048 -53.307  1.00  0.00    -0.206 F 
HETATM   32  C   UNL     1     -40.785  53.155 -52.365  1.00  0.00     0.043 A 
HETATM   33  C   UNL     1     -40.898  54.539 -52.514  1.00  0.00     0.012 A 
ENDBRANCH   6  27
TORSDOF 5
ENDMDL
MODEL 4
REMARK VINA RESULT:      -8.5      4.326      7.126
REMARK  5 active torsions:
REMARK  status: ('A' for Active; 'I' for Inactive)
REMARK    1  A    between atoms: C_3  and  O_4 
REMARK    2  A    between atoms: C_6  and  N_7 
REMARK       I    between atoms: N_7  and  C_8 
REMARK    3  A    between atoms: C_8  and  C_9 
REMARK    4  A    between atoms: C_12  and  C_13 
REMARK    5  A    between atoms: C_18  and  C_19 
ROOT
HETATM    1  C   UNL     1     -43.884  58.196 -53.393  1.00  0.00     0.096 C 
HETATM    2  C   UNL     1     -43.410  57.008 -53.918  1.00  0.00     0.138 C 
HETATM    3  N   UNL     1     -43.768  57.015 -55.249  1.00  0.00    -0.240 N 
HETATM    4  C   UNL     1     -43.512  55.926 -56.176  1.00  0.00     0.221 C 
HETATM    5  C   UNL     1     -42.458  54.963 -55.598  1.00  0.00     0.066 C 
HETATM    6  C   UNL     1     -42.750  54.683 -54.121  1.00  0.00     0.118 C 
HETATM    7  N   UNL     1     -42.743  55.949 -53.376  1.00  0.00    -0.365 N 
HETATM    8  N   UNL     1     -44.581  58.030 -55.575  1.00  0.00    -0.181 NA
HETATM    9  C   UNL     1     -44.623  58.764 -54.458  1.00  0.00     0.160 C 
HETATM   10  H   UNL     1     -42.857  55.787 -52.372  1.00  0.00     0.161 HD
ENDROOT
BRANCH   1  11
HETATM   11  C   UNL     1     -43.732  58.748 -52.057  1.00  0.00     0.261 C 
HETATM   12  N   UNL     1     -44.617  59.775 -51.787  1.00  0.00    -0.323 N 
HETATM   13  H   UNL     1     -45.326  59.933 -52.495  1.00  0.00     0.169 HD
HETATM   14  O   UNL     1     -42.908  58.280 -51.281  1.00  0.00    -0.267 OA
BRANCH  12  15
HETATM   15  C   UNL     1     -44.705  60.557 -50.618  1.00  0.00     0.037 A 
HETATM   16  C   UNL     1     -45.468  60.211 -49.502  1.00  0.00     0.066 A 
HETATM   17  C   UNL     1     -45.484  61.043 -48.383  1.00  0.00     0.067 A 
HETATM   18  C   UNL     1     -44.751  62.224 -48.353  1.00  0.00     0.036 A 
HETATM   19  C   UNL     1     -43.984  62.575 -49.462  1.00  0.00     0.005 A 
HETATM   20  C   UNL     1     -43.959  61.744 -50.587  1.00  0.00     0.029 A 
BRANCH  17  21
HETATM   21  O   UNL     1     -46.241  60.656 -47.315  1.00  0.00    -0.361 OA
HETATM   22  H   UNL     1     -47.157  60.945 -47.457  1.00  0.00     0.217 HD
ENDBRANCH  17  21
ENDBRANCH  12  15
ENDBRANCH   1  11
BRANCH   4  23
HETATM   23  C   UNL     1     -43.053  56.431 -57.526  1.00  0.00     0.409 C 
HETATM   24  F   UNL     1     -42.109  57.394 -57.422  1.00  0.00    -0.169 F 
HETATM   25  F   UNL     1     -42.485  55.408 -58.221  1.00  0.00    -0.169 F 
HETATM   26  F   UNL     1     -44.053  56.896 -58.300  1.00  0.00    -0.169 F 
ENDBRANCH   4  23
BRANCH   6  27
HETATM   27  C   UNL     1     -41.735  53.731 -53.520  1.00  0.00    -0.035 A 
HETATM   28  C   UNL     1     -41.402  53.781 -52.153  1.00  0.00     0.012 A 
HETATM   29  C   UNL     1     -40.449  52.910 -51.621  1.00  0.00     0.043 A 
HETATM   30  C   UNL     1     -39.823  51.989 -52.451  1.00  0.00     0.116 A 
HETATM   31  F   UNL     1     -38.907  51.155 -51.941  1.00  0.00    -0.206 F 
HETATM   32  C   UNL     1     -40.133  51.920 -53.803  1.00  0.00     0.043 A 
HETATM   33  C   UNL     1     -41.086  52.788 -54.338  1.00  0.00     0.012 A 
ENDBRANCH   6  27
TORSDOF 5
ENDMDL
MODEL 5
REMARK VINA RESULT:      -8.2     14.716     17.285
REMARK  5 active torsions:
REMARK  status: ('A' for Active; 'I' for Inactive)
REMARK    1  A    between atoms: C_3  and  O_4 
REMARK    2  A    between atoms: C_6  and  N_7 
REMARK       I    between atoms: N_7  and  C_8 
REMARK    3  A    between atoms: C_8  and  C_9 
REMARK    4  A    between atoms: C_12  and  C_13 
REMARK    5  A    between atoms: C_18  and  C_19 
ROOT
HETATM    1  C   UNL     1     -36.742  41.477 -57.411  1.00  0.00     0.096 C 
HETATM    2  C   UNL     1     -35.579  41.108 -56.761  1.00  0.00     0.138 C 
HETATM    3  N   UNL     1     -35.714  41.556 -55.465  1.00  0.00    -0.240 N 
HETATM    4  C   UNL     1     -34.693  41.426 -54.439  1.00  0.00     0.221 C 
HETATM    5  C   UNL     1     -33.634  40.390 -54.860  1.00  0.00     0.066 C 
HETATM    6  C   UNL     1     -33.249  40.594 -56.329  1.00  0.00     0.118 C 
HETATM    7  N   UNL     1     -34.448  40.464 -57.168  1.00  0.00    -0.365 N 
HETATM    8  N   UNL     1     -36.792  42.332 -55.280  1.00  0.00    -0.181 NA
HETATM    9  C   UNL     1     -37.432  42.256 -56.451  1.00  0.00     0.160 C 
HETATM   10  H   UNL     1     -34.209  40.518 -58.161  1.00  0.00     0.161 HD
ENDROOT
BRANCH   1  11
HETATM   11  C   UNL     1     -37.175  41.202 -58.772  1.00  0.00     0.261 C 
HETATM   12  N   UNL     1     -37.573  39.893 -58.963  1.00  0.00    -0.323 N 
HETATM   13  H   UNL     1     -37.626  39.329 -58.122  1.00  0.00     0.169 HD
HETATM   14  O   UNL     1     -37.197  42.096 -59.609  1.00  0.00    -0.267 OA
BRANCH  12  15
HETATM   15  C   UNL     1     -37.996  39.284 -60.161  1.00  0.00     0.037 A 
HETATM   16  C   UNL     1     -37.358  39.452 -61.392  1.00  0.00     0.066 A 
HETATM   17  C   UNL     1     -37.842  38.799 -62.524  1.00  0.00     0.067 A 
HETATM   18  C   UNL     1     -38.960  37.975 -62.456  1.00  0.00     0.036 A 
HETATM   19  C   UNL     1     -39.601  37.799 -61.232  1.00  0.00     0.005 A 
HETATM   20  C   UNL     1     -39.119  38.447 -60.090  1.00  0.00     0.029 A 
BRANCH  17  21
HETATM   21  O   UNL     1     -37.179  38.992 -63.701  1.00  0.00    -0.361 OA
HETATM   22  H   UNL     1     -37.183  39.939 -63.914  1.00  0.00     0.217 HD
ENDBRANCH  17  21
ENDBRANCH  12  15
ENDBRANCH   1  11
BRANCH   4  23
HETATM   23  C   UNL     1     -35.284  41.034 -53.102  1.00  0.00     0.409 C 
HETATM   24  F   UNL     1     -36.199  40.046 -53.214  1.00  0.00    -0.169 F 
HETATM   25  F   UNL     1     -34.297  40.557 -52.295  1.00  0.00    -0.169 F 
HETATM   26  F   UNL     1     -35.845  42.062 -52.435  1.00  0.00    -0.169 F 
ENDBRANCH   4  23
BRANCH   6  27
HETATM   27  C   UNL     1     -32.201  39.594 -56.776  1.00  0.00    -0.035 A 
HETATM   28  C   UNL     1     -32.547  38.462 -57.539  1.00  0.00     0.012 A 
HETATM   29  C   UNL     1     -31.572  37.540 -57.925  1.00  0.00     0.043 A 
HETATM   30  C   UNL     1     -30.250  37.742 -57.549  1.00  0.00     0.116 A 
HETATM   31  F   UNL     1     -29.315  36.856 -57.917  1.00  0.00    -0.206 F 
HETATM   32  C   UNL     1     -29.883  38.850 -56.795  1.00  0.00     0.043 A 
HETATM   33  C   UNL     1     -30.856  39.774 -56.409  1.00  0.00     0.012 A 
ENDBRANCH   6  27
TORSDOF 5
ENDMDL
MODEL 6
REMARK VINA RESULT:      -8.1     15.695     17.701
REMARK  5 active torsions:
REMARK  status: ('A' for Active; 'I' for Inactive)
REMARK    1  A    between atoms: C_3  and  O_4 
REMARK    2  A    between atoms: C_6  and  N_7 
REMARK       I    between atoms: N_7  and  C_8 
REMARK    3  A    between atoms: C_8  and  C_9 
REMARK    4  A    between atoms: C_12  and  C_13 
REMARK    5  A    between atoms: C_18  and  C_19 
ROOT
HETATM    1  C   UNL     1     -37.446  38.807 -50.349  1.00  0.00     0.096 C 
HETATM    2  C   UNL     1     -36.780  39.662 -51.208  1.00  0.00     0.138 C 
HETATM    3  N   UNL     1     -35.616  40.013 -50.561  1.00  0.00    -0.240 N 
HETATM    4  C   UNL     1     -34.632  40.945 -51.086  1.00  0.00     0.221 C 
HETATM    5  C   UNL     1     -34.852  41.170 -52.594  1.00  0.00     0.066 C 
HETATM    6  C   UNL     1     -36.344  41.354 -52.889  1.00  0.00     0.118 C 
HETATM    7  N   UNL     1     -37.079  40.164 -52.440  1.00  0.00    -0.365 N 
HETATM    8  N   UNL     1     -35.565  39.590 -49.290  1.00  0.00    -0.181 NA
HETATM    9  C   UNL     1     -36.659  38.831 -49.172  1.00  0.00     0.160 C 
HETATM   10  H   UNL     1     -38.068  40.224 -52.695  1.00  0.00     0.161 HD
ENDROOT
BRANCH   1  11
HETATM   11  C   UNL     1     -38.689  38.077 -50.541  1.00  0.00     0.261 C 
HETATM   12  N   UNL     1     -39.812  38.819 -50.226  1.00  0.00    -0.323 N 
HETATM   13  H   UNL     1     -39.640  39.797 -50.018  1.00  0.00     0.169 HD
HETATM   14  O   UNL     1     -38.675  36.933 -50.979  1.00  0.00    -0.267 OA
BRANCH  12  15
HETATM   15  C   UNL     1     -41.158  38.403 -50.249  1.00  0.00     0.037 A 
HETATM   16  C   UNL     1     -41.889  38.186 -51.418  1.00  0.00     0.066 A 
HETATM   17  C   UNL     1     -43.215  37.762 -51.342  1.00  0.00     0.067 A 
HETATM   18  C   UNL     1     -43.834  37.550 -50.116  1.00  0.00     0.036 A 
HETATM   19  C   UNL     1     -43.110  37.761 -48.944  1.00  0.00     0.005 A 
HETATM   20  C   UNL     1     -41.778  38.182 -49.011  1.00  0.00     0.029 A 
BRANCH  17  21
HETATM   21  O   UNL     1     -43.884  37.558 -52.514  1.00  0.00    -0.361 OA
HETATM   22  H   UNL     1     -44.379  36.726 -52.454  1.00  0.00     0.217 HD
ENDBRANCH  17  21
ENDBRANCH  12  15
ENDBRANCH   1  11
BRANCH   4  23
HETATM   23  C   UNL     1     -33.217  40.467 -50.845  1.00  0.00     0.409 C 
HETATM   24  F   UNL     1     -33.062  39.154 -51.126  1.00  0.00    -0.169 F 
HETATM   25  F   UNL     1     -32.366  41.141 -51.667  1.00  0.00    -0.169 F 
HETATM   26  F   UNL     1     -32.776  40.689 -49.591  1.00  0.00    -0.169 F 
ENDBRANCH   4  23
BRANCH   6  27
HETATM   27  C   UNL     1     -36.598  41.585 -54.366  1.00  0.00    -0.035 A 
HETATM   28  C   UNL     1     -37.808  41.196 -54.971  1.00  0.00     0.012 A 
HETATM   29  C   UNL     1     -38.016  41.398 -56.337  1.00  0.00     0.043 A 
HETATM   30  C   UNL     1     -37.018  41.985 -57.103  1.00  0.00     0.116 A 
HETATM   31  F   UNL     1     -37.217  42.176 -58.414  1.00  0.00    -0.206 F 
HETATM   32  C   UNL     1     -35.814  42.377 -56.530  1.00  0.00     0.043 A 
HETATM   33  C   UNL     1     -35.604  42.177 -55.165  1.00  0.00     0.012 A 
ENDBRANCH   6  27
TORSDOF 5
ENDMDL
MODEL 7
REMARK VINA RESULT:      -8.1      3.871      8.117
REMARK  5 active torsions:
REMARK  status: ('A' for Active; 'I' for Inactive)
REMARK    1  A    between atoms: C_3  and  O_4 
REMARK    2  A    between atoms: C_6  and  N_7 
REMARK       I    between atoms: N_7  and  C_8 
REMARK    3  A    between atoms: C_8  and  C_9 
REMARK    4  A    between atoms: C_12  and  C_13 
REMARK    5  A    between atoms: C_18  and  C_19 
ROOT
HETATM    1  C   UNL     1     -42.954  55.517 -55.109  1.00  0.00     0.096 C 
HETATM    2  C   UNL     1     -43.469  56.778 -54.875  1.00  0.00     0.138 C 
HETATM    3  N   UNL     1     -43.721  57.318 -56.117  1.00  0.00    -0.240 N 
HETATM    4  C   UNL     1     -44.226  58.663 -56.342  1.00  0.00     0.221 C 
HETATM    5  C   UNL     1     -44.812  59.244 -55.043  1.00  0.00     0.066 C 
HETATM    6  C   UNL     1     -43.884  58.942 -53.862  1.00  0.00     0.118 C 
HETATM    7  N   UNL     1     -43.714  57.488 -53.736  1.00  0.00    -0.365 N 
HETATM    8  N   UNL     1     -43.249  56.574 -57.126  1.00  0.00    -0.181 NA
HETATM    9  C   UNL     1     -42.814  55.466 -56.517  1.00  0.00     0.160 C 
HETATM   10  H   UNL     1     -43.162  57.252 -52.908  1.00  0.00     0.161 HD
ENDROOT
BRANCH   1  11
HETATM   11  C   UNL     1     -42.579  54.475 -54.167  1.00  0.00     0.261 C 
HETATM   12  N   UNL     1     -41.362  53.887 -54.459  1.00  0.00    -0.323 N 
HETATM   13  H   UNL     1     -40.838  54.326 -55.209  1.00  0.00     0.169 HD
HETATM   14  O   UNL     1     -43.295  54.218 -53.207  1.00  0.00    -0.267 OA
BRANCH  12  15
HETATM   15  C   UNL     1     -40.732  52.821 -53.787  1.00  0.00     0.037 A 
HETATM   16  C   UNL     1     -40.472  51.577 -54.366  1.00  0.00     0.066 A 
HETATM   17  C   UNL     1     -39.833  50.584 -53.625  1.00  0.00     0.067 A 
HETATM   18  C   UNL     1     -39.444  50.805 -52.309  1.00  0.00     0.036 A 
HETATM   19  C   UNL     1     -39.697  52.045 -51.725  1.00  0.00     0.005 A 
HETATM   20  C   UNL     1     -40.334  53.048 -52.462  1.00  0.00     0.029 A 
BRANCH  17  21
HETATM   21  O   UNL     1     -39.596  49.388 -54.238  1.00  0.00    -0.361 OA
HETATM   22  H   UNL     1     -38.735  49.049 -53.947  1.00  0.00     0.217 HD
ENDBRANCH  17  21
ENDBRANCH  12  15
ENDBRANCH   1  11
BRANCH   4  23
HETATM   23  C   UNL     1     -45.275  58.696 -57.432  1.00  0.00     0.409 C 
HETATM   24  F   UNL     1     -46.159  57.678 -57.327  1.00  0.00    -0.169 F 
HETATM   25  F   UNL     1     -45.996  59.846 -57.330  1.00  0.00    -0.169 F 
HETATM   26  F   UNL     1     -44.762  58.688 -58.679  1.00  0.00    -0.169 F 
ENDBRANCH   4  23
BRANCH   6  27
HETATM   27  C   UNL     1     -44.427  59.507 -52.564  1.00  0.00    -0.035 A 
HETATM   28  C   UNL     1     -44.217  60.853 -52.206  1.00  0.00     0.012 A 
HETATM   29  C   UNL     1     -44.707  61.351 -50.997  1.00  0.00     0.043 A 
HETATM   30  C   UNL     1     -45.404  60.509 -50.141  1.00  0.00     0.116 A 
HETATM   31  F   UNL     1     -45.872  60.987 -48.980  1.00  0.00    -0.206 F 
HETATM   32  C   UNL     1     -45.624  59.177 -50.470  1.00  0.00     0.043 A 
HETATM   33  C   UNL     1     -45.136  58.677 -51.679  1.00  0.00     0.012 A 
ENDBRANCH   6  27
TORSDOF 5
ENDMDL
MODEL 8
REMARK VINA RESULT:      -8.0      3.958      7.538
REMARK  5 active torsions:
REMARK  status: ('A' for Active; 'I' for Inactive)
REMARK    1  A    between atoms: C_3  and  O_4 
REMARK    2  A    between atoms: C_6  and  N_7 
REMARK       I    between atoms: N_7  and  C_8 
REMARK    3  A    between atoms: C_8  and  C_9 
REMARK    4  A    between atoms: C_12  and  C_13 
REMARK    5  A    between atoms: C_18  and  C_19 
ROOT
HETATM    1  C   UNL     1     -42.994  56.469 -52.221  1.00  0.00     0.096 C 
HETATM    2  C   UNL     1     -43.438  57.134 -53.349  1.00  0.00     0.138 C 
HETATM    3  N   UNL     1     -44.446  57.969 -52.920  1.00  0.00    -0.240 N 
HETATM    4  C   UNL     1     -45.234  58.824 -53.793  1.00  0.00     0.221 C 
HETATM    5  C   UNL     1     -44.546  58.977 -55.162  1.00  0.00     0.066 C 
HETATM    6  C   UNL     1     -44.031  57.619 -55.650  1.00  0.00     0.118 C 
HETATM    7  N   UNL     1     -43.086  57.075 -54.665  1.00  0.00    -0.365 N 
HETATM    8  N   UNL     1     -44.797  57.766 -51.642  1.00  0.00    -0.181 NA
HETATM    9  C   UNL     1     -43.895  56.881 -51.209  1.00  0.00     0.160 C 
HETATM   10  H   UNL     1     -42.664  56.206 -55.000  1.00  0.00     0.161 HD
ENDROOT
BRANCH   1  11
HETATM   11  C   UNL     1     -41.901  55.521 -52.070  1.00  0.00     0.261 C 
HETATM   12  N   UNL     1     -42.010  54.425 -52.906  1.00  0.00    -0.323 N 
HETATM   13  H   UNL     1     -42.758  54.475 -53.589  1.00  0.00     0.169 HD
HETATM   14  O   UNL     1     -40.985  55.749 -51.289  1.00  0.00    -0.267 OA
BRANCH  12  15
HETATM   15  C   UNL     1     -41.159  53.305 -52.978  1.00  0.00     0.037 A 
HETATM   16  C   UNL     1     -40.666  52.624 -51.863  1.00  0.00     0.066 A 
HETATM   17  C   UNL     1     -39.838  51.516 -52.032  1.00  0.00     0.067 A 
HETATM   18  C   UNL     1     -39.485  51.068 -53.300  1.00  0.00     0.036 A 
HETATM   19  C   UNL     1     -39.974  51.740 -54.418  1.00  0.00     0.005 A 
HETATM   20  C   UNL     1     -40.809  52.850 -54.257  1.00  0.00     0.029 A 
BRANCH  17  21
HETATM   21  O   UNL     1     -39.389  50.882 -50.911  1.00  0.00    -0.361 OA
HETATM   22  H   UNL     1     -38.650  50.300 -51.151  1.00  0.00     0.217 HD
ENDBRANCH  17  21
ENDBRANCH  12  15
ENDBRANCH   1  11
BRANCH   4  23
HETATM   23  C   UNL     1     -45.465  60.190 -53.185  1.00  0.00     0.409 C 
HETATM   24  F   UNL     1     -44.376  60.655 -52.534  1.00  0.00    -0.169 F 
HETATM   25  F   UNL     1     -45.734  61.085 -54.175  1.00  0.00    -0.169 F 
HETATM   26  F   UNL     1     -46.518  60.238 -52.344  1.00  0.00    -0.169 F 
ENDBRANCH   4  23
BRANCH   6  27
HETATM   27  C   UNL     1     -43.353  57.731 -57.001  1.00  0.00    -0.035 A 
HETATM   28  C   UNL     1     -43.463  56.708 -57.963  1.00  0.00     0.012 A 
HETATM   29  C   UNL     1     -42.815  56.818 -59.194  1.00  0.00     0.043 A 
HETATM   30  C   UNL     1     -42.053  57.946 -59.470  1.00  0.00     0.116 A 
HETATM   31  F   UNL     1     -41.429  58.050 -60.651  1.00  0.00    -0.206 F 
HETATM   32  C   UNL     1     -41.928  58.969 -58.538  1.00  0.00     0.043 A 
HETATM   33  C   UNL     1     -42.576  58.862 -57.306  1.00  0.00     0.012 A 
ENDBRANCH   6  27
TORSDOF 5
ENDMDL
MODEL 9
REMARK VINA RESULT:      -7.9     15.445     19.145
REMARK  5 active torsions:
REMARK  status: ('A' for Active; 'I' for Inactive)
REMARK    1  A    between atoms: C_3  and  O_4 
REMARK    2  A    between atoms: C_6  and  N_7 
REMARK       I    between atoms: N_7  and  C_8 
REMARK    3  A    between atoms: C_8  and  C_9 
REMARK    4  A    between atoms: C_12  and  C_13 
REMARK    5  A    between atoms: C_18  and  C_19 
ROOT
HETATM    1  C   UNL     1     -35.183  41.212 -52.895  1.00  0.00     0.096 C 
HETATM    2  C   UNL     1     -34.781  40.749 -54.134  1.00  0.00     0.138 C 
HETATM    3  N   UNL     1     -35.772  41.124 -55.015  1.00  0.00    -0.240 N 
HETATM    4  C   UNL     1     -35.781  40.795 -56.431  1.00  0.00     0.221 C 
HETATM    5  C   UNL     1     -34.384  40.339 -56.888  1.00  0.00     0.066 C 
HETATM    6  C   UNL     1     -33.780  39.375 -55.863  1.00  0.00     0.118 C 
HETATM    7  N   UNL     1     -33.693  40.044 -54.558  1.00  0.00    -0.365 N 
HETATM    8  N   UNL     1     -36.854  41.636 -54.412  1.00  0.00    -0.181 NA
HETATM    9  C   UNL     1     -36.484  41.720 -53.130  1.00  0.00     0.160 C 
HETATM   10  H   UNL     1     -33.221  39.452 -53.870  1.00  0.00     0.161 HD
ENDROOT
BRANCH   1  11
HETATM   11  C   UNL     1     -34.494  41.163 -51.615  1.00  0.00     0.261 C 
HETATM   12  N   UNL     1     -34.109  39.886 -51.252  1.00  0.00    -0.323 N 
HETATM   13  H   UNL     1     -34.245  39.174 -51.962  1.00  0.00     0.169 HD
HETATM   14  O   UNL     1     -34.275  42.192 -50.988  1.00  0.00    -0.267 OA
BRANCH  12  15
HETATM   15  C   UNL     1     -33.473  39.480 -50.062  1.00  0.00     0.037 A 
HETATM   16  C   UNL     1     -32.174  39.847 -49.705  1.00  0.00     0.066 A 
HETATM   17  C   UNL     1     -31.632  39.406 -48.499  1.00  0.00     0.067 A 
HETATM   18  C   UNL     1     -32.361  38.599 -47.633  1.00  0.00     0.036 A 
HETATM   19  C   UNL     1     -33.659  38.230 -47.981  1.00  0.00     0.005 A 
HETATM   20  C   UNL     1     -34.213  38.672 -49.187  1.00  0.00     0.029 A 
BRANCH  17  21
HETATM   21  O   UNL     1     -30.361  39.798 -48.193  1.00  0.00    -0.361 OA
HETATM   22  H   UNL     1     -30.345  40.763 -48.086  1.00  0.00     0.217 HD
ENDBRANCH  17  21
ENDBRANCH  12  15
ENDBRANCH   1  11
BRANCH   4  23
HETATM   23  C   UNL     1     -36.238  41.963 -57.278  1.00  0.00     0.409 C 
HETATM   24  F   UNL     1     -35.484  43.067 -57.081  1.00  0.00    -0.169 F 
HETATM   25  F   UNL     1     -36.114  41.641 -58.595  1.00  0.00    -0.169 F 
HETATM   26  F   UNL     1     -37.532  42.292 -57.096  1.00  0.00    -0.169 F 
ENDBRANCH   4  23
BRANCH   6  27
HETATM   27  C   UNL     1     -32.403  38.899 -56.285  1.00  0.00    -0.035 A 
HETATM   28  C   UNL     1     -31.274  39.732 -56.176  1.00  0.00     0.012 A 
HETATM   29  C   UNL     1     -30.018  39.285 -56.589  1.00  0.00     0.043 A 
HETATM   30  C   UNL     1     -29.885  38.007 -57.116  1.00  0.00     0.116 A 
HETATM   31  F   UNL     1     -28.680  37.578 -57.515  1.00  0.00    -0.206 F 
HETATM   32  C   UNL     1     -30.983  37.165 -57.236  1.00  0.00     0.043 A 
HETATM   33  C   UNL     1     -32.241  37.609 -56.822  1.00  0.00     0.012 A 
ENDBRANCH   6  27
TORSDOF 5
ENDMDL
MODEL 10
REMARK VINA RESULT:      -7.8     15.374     17.082
REMARK  5 active torsions:
REMARK  status: ('A' for Active; 'I' for Inactive)
REMARK    1  A    between atoms: C_3  and  O_4 
REMARK    2  A    between atoms: C_6  and  N_7 
REMARK       I    between atoms: N_7  and  C_8 
REMARK    3  A    between atoms: C_8  and  C_9 
REMARK    4  A    between atoms: C_12  and  C_13 
REMARK    5  A    between atoms: C_18  and  C_19 
ROOT
HETATM    1  C   UNL     1     -37.270  40.843 -54.046  1.00  0.00     0.096 C 
HETATM    2  C   UNL     1     -35.994  40.482 -53.656  1.00  0.00     0.138 C 
HETATM    3  N   UNL     1     -36.032  40.393 -52.281  1.00  0.00    -0.240 N 
HETATM    4  C   UNL     1     -34.884  40.086 -51.444  1.00  0.00     0.221 C 
HETATM    5  C   UNL     1     -33.744  39.488 -52.290  1.00  0.00     0.066 C 
HETATM    6  C   UNL     1     -33.578  40.282 -53.590  1.00  0.00     0.118 C 
HETATM    7  N   UNL     1     -34.839  40.251 -54.343  1.00  0.00    -0.365 N 
HETATM    8  N   UNL     1     -37.181  40.836 -51.752  1.00  0.00    -0.181 NA
HETATM    9  C   UNL     1     -37.943  41.076 -52.823  1.00  0.00     0.160 C 
HETATM   10  H   UNL     1     -34.735  40.706 -55.253  1.00  0.00     0.161 HD
ENDROOT
BRANCH   1  11
HETATM   11  C   UNL     1     -37.822  41.010 -55.381  1.00  0.00     0.261 C 
HETATM   12  N   UNL     1     -36.926  40.693 -56.385  1.00  0.00    -0.323 N 
HETATM   13  H   UNL     1     -36.055  40.279 -56.073  1.00  0.00     0.169 HD
HETATM   14  O   UNL     1     -38.985  41.364 -55.532  1.00  0.00    -0.267 OA
BRANCH  12  15
HETATM   15  C   UNL     1     -37.118  40.792 -57.778  1.00  0.00     0.037 A 
HETATM   16  C   UNL     1     -37.029  41.986 -58.496  1.00  0.00     0.066 A 
HETATM   17  C   UNL     1     -37.222  41.986 -59.876  1.00  0.00     0.067 A 
HETATM   18  C   UNL     1     -37.506  40.810 -60.563  1.00  0.00     0.036 A 
HETATM   19  C   UNL     1     -37.593  39.614 -59.854  1.00  0.00     0.005 A 
HETATM   20  C   UNL     1     -37.396  39.605 -58.470  1.00  0.00     0.029 A 
BRANCH  17  21
HETATM   21  O   UNL     1     -37.118  43.178 -60.532  1.00  0.00    -0.361 OA
HETATM   22  H   UNL     1     -36.182  43.429 -60.585  1.00  0.00     0.217 HD
ENDBRANCH  17  21
ENDBRANCH  12  15
ENDBRANCH   1  11
BRANCH   4  23
HETATM   23  C   UNL     1     -35.241  39.132 -50.326  1.00  0.00     0.409 C 
HETATM   24  F   UNL     1     -35.996  39.718 -49.370  1.00  0.00    -0.169 F 
HETATM   25  F   UNL     1     -35.980  38.105 -50.827  1.00  0.00    -0.169 F 
HETATM   26  F   UNL     1     -34.170  38.565 -49.734  1.00  0.00    -0.169 F 
ENDBRANCH   4  23
BRANCH   6  27
HETATM   27  C   UNL     1     -32.457  39.724 -54.446  1.00  0.00    -0.035 A 
HETATM   28  C   UNL     1     -31.654  38.658 -53.998  1.00  0.00     0.012 A 
HETATM   29  C   UNL     1     -30.612  38.172 -54.790  1.00  0.00     0.043 A 
HETATM   30  C   UNL     1     -30.367  38.748 -56.030  1.00  0.00     0.116 A 
HETATM   31  F   UNL     1     -29.366  38.283 -56.789  1.00  0.00    -0.206 F 
HETATM   32  C   UNL     1     -31.144  39.802 -56.494  1.00  0.00     0.043 A 
HETATM   33  C   UNL     1     -32.187  40.290 -55.704  1.00  0.00     0.012 A 
ENDBRANCH   6  27
TORSDOF 5
ENDMDL
