MODEL 1
REMARK VINA RESULT:      -9.0      0.000      0.000
REMARK  3 active torsions:
REMARK  status: ('A' for Active; 'I' for Inactive)
REMARK    1  A    between atoms: C_2  and  N_3 
REMARK       I    between atoms: N_3  and  C_4 
REMARK    2  A    between atoms: C_4  and  C_5 
REMARK    3  A    between atoms: C_20  and  C_21 
REMARK       I    between atoms: C_21  and  N_22 
ROOT
HETATM    1  C   UNL     1     -42.492  57.401 -56.498  1.00  0.00     0.032 A 
HETATM    2  C   UNL     1     -42.490  56.015 -56.671  1.00  0.00     0.036 A 
HETATM    3  C   UNL     1     -43.158  55.457 -57.775  1.00  0.00     0.046 A 
HETATM    4  C   UNL     1     -43.824  56.296 -58.691  1.00  0.00     0.030 A 
HETATM    5  C   UNL     1     -43.807  57.667 -58.476  1.00  0.00     0.063 A 
HETATM    6  N   UNL     1     -44.529  58.205 -59.506  1.00  0.00    -0.277 N 
HETATM    7  H   UNL     1     -44.728  59.185 -59.669  1.00  0.00     0.189 HD
HETATM    8  N   UNL     1     -45.007  57.301 -60.379  1.00  0.00    -0.168 NA
HETATM    9  C   UNL     1     -44.578  56.118 -59.888  1.00  0.00     0.156 A 
HETATM   10  C   UNL     1     -43.152  58.257 -57.393  1.00  0.00     0.034 A 
ENDROOT
BRANCH   2  11
HETATM   11  N   UNL     1     -41.849  55.109 -55.796  1.00  0.00    -0.323 N 
HETATM   12  C   UNL     1     -42.394  54.491 -54.686  1.00  0.00     0.256 C 
HETATM   13  O   UNL     1     -43.545  54.587 -54.279  1.00  0.00    -0.267 OA
HETATM   14  H   UNL     1     -40.907  54.857 -56.066  1.00  0.00     0.169 HD
BRANCH  12  15
HETATM   15  C   UNL     1     -41.477  53.589 -53.936  1.00  0.00     0.038 A 
HETATM   16  C   UNL     1     -40.990  52.401 -54.477  1.00  0.00     0.061 A 
HETATM   17  C   UNL     1     -40.138  51.649 -53.691  1.00  0.00     0.128 A 
HETATM   18 CL   UNL     1     -39.495  50.168 -54.269  1.00  0.00    -0.062 Cl
HETATM   19  N   UNL     1     -39.742  51.983 -52.450  1.00  0.00    -0.225 NA
HETATM   20  C   UNL     1     -40.215  53.148 -51.973  1.00  0.00     0.128 A 
HETATM   21 CL   UNL     1     -39.673  53.546 -50.396  1.00  0.00    -0.062 Cl
HETATM   22  C   UNL     1     -41.071  53.984 -52.660  1.00  0.00     0.061 A 
ENDBRANCH  12  15
ENDBRANCH   2  11
BRANCH   9  23
HETATM   23  C   UNL     1     -44.887  54.848 -60.559  1.00  0.00     0.270 C 
HETATM   24  N   UNL     1     -45.166  53.817 -59.705  1.00  0.00    -0.365 N 
HETATM   25  H   UNL     1     -45.146  53.993 -58.708  1.00  0.00     0.159 HD
HETATM   26  H   UNL     1     -45.396  52.906 -60.072  1.00  0.00     0.159 HD
HETATM   27  O   UNL     1     -44.902  54.694 -61.777  1.00  0.00    -0.266 OA
ENDBRANCH   9  23
TORSDOF 3
ENDMDL
MODEL 2
REMARK VINA RESULT:      -8.9      0.093      1.806
REMARK  3 active torsions:
REMARK  status: ('A' for Active; 'I' for Inactive)
REMARK    1  A    between atoms: C_2  and  N_3 
REMARK       I    between atoms: N_3  and  C_4 
REMARK    2  A    between atoms: C_4  and  C_5 
REMARK    3  A    between atoms: C_20  and  C_21 
REMARK       I    between atoms: C_21  and  N_22 
ROOT
HETATM    1  C   UNL     1     -42.516  57.471 -56.527  1.00  0.00     0.032 A 
HETATM    2  C   UNL     1     -42.503  56.083 -56.684  1.00  0.00     0.036 A 
HETATM    3  C   UNL     1     -43.162  55.506 -57.783  1.00  0.00     0.046 A 
HETATM    4  C   UNL     1     -43.833  56.330 -58.710  1.00  0.00     0.030 A 
HETATM    5  C   UNL     1     -43.828  57.703 -58.512  1.00  0.00     0.063 A 
HETATM    6  N   UNL     1     -44.552  58.222 -59.549  1.00  0.00    -0.277 N 
HETATM    7  H   UNL     1     -44.759  59.199 -59.724  1.00  0.00     0.189 HD
HETATM    8  N   UNL     1     -45.020  57.304 -60.413  1.00  0.00    -0.168 NA
HETATM    9  C   UNL     1     -44.582  56.131 -59.907  1.00  0.00     0.156 A 
HETATM   10  C   UNL     1     -43.182  58.310 -57.434  1.00  0.00     0.034 A 
ENDROOT
BRANCH   2  11
HETATM   11  N   UNL     1     -41.856  55.193 -55.797  1.00  0.00    -0.323 N 
HETATM   12  C   UNL     1     -42.414  54.536 -54.716  1.00  0.00     0.256 C 
HETATM   13  O   UNL     1     -43.583  54.578 -54.352  1.00  0.00    -0.267 OA
HETATM   14  H   UNL     1     -40.895  54.985 -56.034  1.00  0.00     0.169 HD
BRANCH  12  15
HETATM   15  C   UNL     1     -41.488  53.664 -53.943  1.00  0.00     0.038 A 
HETATM   16  C   UNL     1     -41.071  53.976 -52.651  1.00  0.00     0.061 A 
HETATM   17  C   UNL     1     -40.216  53.086 -52.028  1.00  0.00     0.128 A 
HETATM   18 CL   UNL     1     -39.644  53.391 -50.440  1.00  0.00    -0.062 Cl
HETATM   19  N   UNL     1     -39.765  51.944 -52.575  1.00  0.00    -0.225 NA
HETATM   20  C   UNL     1     -40.208  51.667 -53.814  1.00  0.00     0.128 A 
HETATM   21 CL   UNL     1     -39.624  50.195 -54.469  1.00  0.00    -0.062 Cl
HETATM   22  C   UNL     1     -41.061  52.475 -54.538  1.00  0.00     0.061 A 
ENDBRANCH  12  15
ENDBRANCH   2  11
BRANCH   9  23
HETATM   23  C   UNL     1     -44.878  54.850 -60.565  1.00  0.00     0.270 C 
HETATM   24  N   UNL     1     -45.128  53.821 -59.698  1.00  0.00    -0.365 N 
HETATM   25  H   UNL     1     -45.098  54.006 -58.703  1.00  0.00     0.159 HD
HETATM   26  H   UNL     1     -45.347  52.904 -60.056  1.00  0.00     0.159 HD
HETATM   27  O   UNL     1     -44.906  54.687 -61.781  1.00  0.00    -0.266 OA
ENDBRANCH   9  23
TORSDOF 3
ENDMDL
MODEL 3
REMARK VINA RESULT:      -8.5      3.722      7.852
REMARK  3 active torsions:
REMARK  status: ('A' for Active; 'I' for Inactive)
REMARK    1  A    between atoms: C_2  and  N_3 
REMARK       I    between atoms: N_3  and  C_4 
REMARK    2  A    between atoms: C_4  and  C_5 
REMARK    3  A    between atoms: C_20  and  C_21 
REMARK       I    between atoms: C_21  and  N_22 
ROOT
HETATM    1  C   UNL     1     -41.172  55.323 -53.836  1.00  0.00     0.032 A 
HETATM    2  C   UNL     1     -41.254  54.520 -54.976  1.00  0.00     0.036 A 
HETATM    3  C   UNL     1     -40.888  53.165 -54.893  1.00  0.00     0.046 A 
HETATM    4  C   UNL     1     -40.440  52.633 -53.667  1.00  0.00     0.030 A 
HETATM    5  C   UNL     1     -40.367  53.468 -52.562  1.00  0.00     0.063 A 
HETATM    6  N   UNL     1     -39.900  52.684 -51.544  1.00  0.00    -0.277 N 
HETATM    7  H   UNL     1     -39.720  52.964 -50.587  1.00  0.00     0.189 HD
HETATM    8  N   UNL     1     -39.672  51.404 -51.889  1.00  0.00    -0.168 NA
HETATM    9  C   UNL     1     -40.002  51.359 -53.199  1.00  0.00     0.156 A 
HETATM   10  C   UNL     1     -40.724  54.817 -52.606  1.00  0.00     0.034 A 
ENDROOT
BRANCH   2  11
HETATM   11  N   UNL     1     -41.689  54.981 -56.239  1.00  0.00    -0.323 N 
HETATM   12  C   UNL     1     -42.802  55.756 -56.509  1.00  0.00     0.256 C 
HETATM   13  O   UNL     1     -43.594  56.216 -55.696  1.00  0.00    -0.267 OA
HETATM   14  H   UNL     1     -41.070  54.756 -57.007  1.00  0.00     0.169 HD
BRANCH  12  15
HETATM   15  C   UNL     1     -43.027  56.084 -57.943  1.00  0.00     0.038 A 
HETATM   16  C   UNL     1     -43.836  55.306 -58.770  1.00  0.00     0.061 A 
HETATM   17  C   UNL     1     -43.977  55.712 -60.083  1.00  0.00     0.128 A 
HETATM   18 CL   UNL     1     -44.946  54.814 -61.176  1.00  0.00    -0.062 Cl
HETATM   19  N   UNL     1     -43.399  56.802 -60.616  1.00  0.00    -0.225 NA
HETATM   20  C   UNL     1     -42.645  57.539 -59.781  1.00  0.00     0.128 A 
HETATM   21 CL   UNL     1     -41.939  58.928 -60.494  1.00  0.00    -0.062 Cl
HETATM   22  C   UNL     1     -42.427  57.237 -58.453  1.00  0.00     0.061 A 
ENDBRANCH  12  15
ENDBRANCH   2  11
BRANCH   9  23
HETATM   23  C   UNL     1     -39.901  50.117 -53.977  1.00  0.00     0.270 C 
HETATM   24  N   UNL     1     -41.037  49.793 -54.666  1.00  0.00    -0.365 N 
HETATM   25  H   UNL     1     -41.838  50.410 -54.598  1.00  0.00     0.159 HD
HETATM   26  H   UNL     1     -41.062  48.961 -55.234  1.00  0.00     0.159 HD
HETATM   27  O   UNL     1     -38.898  49.411 -54.026  1.00  0.00    -0.266 OA
ENDBRANCH   9  23
TORSDOF 3
ENDMDL
MODEL 4
REMARK VINA RESULT:      -8.5      1.745      1.965
REMARK  3 active torsions:
REMARK  status: ('A' for Active; 'I' for Inactive)
REMARK    1  A    between atoms: C_2  and  N_3 
REMARK       I    between atoms: N_3  and  C_4 
REMARK    2  A    between atoms: C_4  and  C_5 
REMARK    3  A    between atoms: C_20  and  C_21 
REMARK       I    between atoms: C_21  and  N_22 
ROOT
HETATM    1  C   UNL     1     -43.958  56.783 -54.704  1.00  0.00     0.032 A 
HETATM    2  C   UNL     1     -43.129  55.856 -55.338  1.00  0.00     0.036 A 
HETATM    3  C   UNL     1     -42.935  55.941 -56.728  1.00  0.00     0.046 A 
HETATM    4  C   UNL     1     -43.581  56.954 -57.466  1.00  0.00     0.030 A 
HETATM    5  C   UNL     1     -44.402  57.849 -56.797  1.00  0.00     0.063 A 
HETATM    6  N   UNL     1     -44.882  58.692 -57.761  1.00  0.00    -0.277 N 
HETATM    7  H   UNL     1     -45.518  59.471 -57.633  1.00  0.00     0.189 HD
HETATM    8  N   UNL     1     -44.436  58.428 -59.001  1.00  0.00    -0.168 NA
HETATM    9  C   UNL     1     -43.630  57.356 -58.834  1.00  0.00     0.156 A 
HETATM   10  C   UNL     1     -44.616  57.797 -55.418  1.00  0.00     0.034 A 
ENDROOT
BRANCH   2  11
HETATM   11  N   UNL     1     -42.452  54.812 -54.668  1.00  0.00    -0.323 N 
HETATM   12  C   UNL     1     -41.103  54.747 -54.368  1.00  0.00     0.256 C 
HETATM   13  O   UNL     1     -40.256  55.600 -54.597  1.00  0.00    -0.267 OA
HETATM   14  H   UNL     1     -43.050  54.070 -54.330  1.00  0.00     0.169 HD
BRANCH  12  15
HETATM   15  C   UNL     1     -40.660  53.513 -53.663  1.00  0.00     0.038 A 
HETATM   16  C   UNL     1     -40.196  52.389 -54.344  1.00  0.00     0.061 A 
HETATM   17  C   UNL     1     -39.803  51.304 -53.583  1.00  0.00     0.128 A 
HETATM   18 CL   UNL     1     -39.227  49.874 -54.333  1.00  0.00    -0.062 Cl
HETATM   19  N   UNL     1     -39.829  51.259 -52.240  1.00  0.00    -0.225 NA
HETATM   20  C   UNL     1     -40.261  52.371 -51.619  1.00  0.00     0.128 A 
HETATM   21 CL   UNL     1     -40.263  52.279 -49.908  1.00  0.00    -0.062 Cl
HETATM   22  C   UNL     1     -40.680  53.515 -52.267  1.00  0.00     0.061 A 
ENDBRANCH  12  15
ENDBRANCH   2  11
BRANCH   9  23
HETATM   23  C   UNL     1     -42.923  56.739 -59.964  1.00  0.00     0.270 C 
HETATM   24  N   UNL     1     -41.615  57.121 -60.082  1.00  0.00    -0.365 N 
HETATM   25  H   UNL     1     -41.237  57.775 -59.407  1.00  0.00     0.159 HD
HETATM   26  H   UNL     1     -41.045  56.746 -60.825  1.00  0.00     0.159 HD
HETATM   27  O   UNL     1     -43.433  55.946 -60.750  1.00  0.00    -0.266 OA
ENDBRANCH   9  23
TORSDOF 3
ENDMDL
MODEL 5
REMARK VINA RESULT:      -8.4      3.685      7.974
REMARK  3 active torsions:
REMARK  status: ('A' for Active; 'I' for Inactive)
REMARK    1  A    between atoms: C_2  and  N_3 
REMARK       I    between atoms: N_3  and  C_4 
REMARK    2  A    between atoms: C_4  and  C_5 
REMARK    3  A    between atoms: C_20  and  C_21 
REMARK       I    between atoms: C_21  and  N_22 
ROOT
HETATM    1  C   UNL     1     -41.103  55.275 -53.613  1.00  0.00     0.032 A 
HETATM    2  C   UNL     1     -41.172  54.529 -54.791  1.00  0.00     0.036 A 
HETATM    3  C   UNL     1     -40.797  53.174 -54.774  1.00  0.00     0.046 A 
HETATM    4  C   UNL     1     -40.350  52.585 -53.574  1.00  0.00     0.030 A 
HETATM    5  C   UNL     1     -40.290  53.365 -52.428  1.00  0.00     0.063 A 
HETATM    6  N   UNL     1     -39.823  52.534 -51.447  1.00  0.00    -0.277 N 
HETATM    7  H   UNL     1     -39.650  52.768 -50.477  1.00  0.00     0.189 HD
HETATM    8  N   UNL     1     -39.583  51.275 -51.855  1.00  0.00    -0.168 NA
HETATM    9  C   UNL     1     -39.906  51.293 -53.167  1.00  0.00     0.156 A 
HETATM   10  C   UNL     1     -40.657  54.711 -52.407  1.00  0.00     0.034 A 
ENDROOT
BRANCH   2  11
HETATM   11  N   UNL     1     -41.604  55.049 -56.032  1.00  0.00    -0.323 N 
HETATM   12  C   UNL     1     -42.720  55.832 -56.269  1.00  0.00     0.256 C 
HETATM   13  O   UNL     1     -43.517  56.249 -55.438  1.00  0.00    -0.267 OA
HETATM   14  H   UNL     1     -40.982  54.863 -56.808  1.00  0.00     0.169 HD
BRANCH  12  15
HETATM   15  C   UNL     1     -42.940  56.227 -57.687  1.00  0.00     0.038 A 
HETATM   16  C   UNL     1     -42.425  57.407 -58.222  1.00  0.00     0.061 A 
HETATM   17  C   UNL     1     -42.687  57.665 -59.555  1.00  0.00     0.128 A 
HETATM   18 CL   UNL     1     -42.102  59.095 -60.298  1.00  0.00    -0.062 Cl
HETATM   19  N   UNL     1     -43.394  56.862 -60.368  1.00  0.00    -0.225 NA
HETATM   20  C   UNL     1     -43.853  55.723 -59.820  1.00  0.00     0.128 A 
HETATM   21 CL   UNL     1     -44.734  54.718 -60.894  1.00  0.00    -0.062 Cl
HETATM   22  C   UNL     1     -43.659  55.354 -58.505  1.00  0.00     0.061 A 
ENDBRANCH  12  15
ENDBRANCH   2  11
BRANCH   9  23
HETATM   23  C   UNL     1     -39.790  50.091 -54.005  1.00  0.00     0.270 C 
HETATM   24  N   UNL     1     -40.928  49.781 -54.697  1.00  0.00    -0.365 N 
HETATM   25  H   UNL     1     -41.739  50.378 -54.592  1.00  0.00     0.159 HD
HETATM   26  H   UNL     1     -40.944  48.976 -55.305  1.00  0.00     0.159 HD
HETATM   27  O   UNL     1     -38.775  49.407 -54.098  1.00  0.00    -0.266 OA
ENDBRANCH   9  23
TORSDOF 3
ENDMDL
MODEL 6
REMARK VINA RESULT:      -8.4      1.789      2.669
REMARK  3 active torsions:
REMARK  status: ('A' for Active; 'I' for Inactive)
REMARK    1  A    between atoms: C_2  and  N_3 
REMARK       I    between atoms: N_3  and  C_4 
REMARK    2  A    between atoms: C_4  and  C_5 
REMARK    3  A    between atoms: C_20  and  C_21 
REMARK       I    between atoms: C_21  and  N_22 
ROOT
HETATM    1  C   UNL     1     -43.803  56.922 -54.666  1.00  0.00     0.032 A 
HETATM    2  C   UNL     1     -43.008  55.951 -55.278  1.00  0.00     0.036 A 
HETATM    3  C   UNL     1     -42.819  55.992 -56.671  1.00  0.00     0.046 A 
HETATM    4  C   UNL     1     -43.436  57.004 -57.434  1.00  0.00     0.030 A 
HETATM    5  C   UNL     1     -44.224  57.944 -56.785  1.00  0.00     0.063 A 
HETATM    6  N   UNL     1     -44.682  58.775 -57.770  1.00  0.00    -0.277 N 
HETATM    7  H   UNL     1     -45.291  59.577 -57.660  1.00  0.00     0.189 HD
HETATM    8  N   UNL     1     -44.251  58.462 -59.005  1.00  0.00    -0.168 NA
HETATM    9  C   UNL     1     -43.479  57.370 -58.811  1.00  0.00     0.156 A 
HETATM   10  C   UNL     1     -44.431  57.937 -55.405  1.00  0.00     0.034 A 
ENDROOT
BRANCH   2  11
HETATM   11  N   UNL     1     -42.361  54.905 -54.583  1.00  0.00    -0.323 N 
HETATM   12  C   UNL     1     -41.006  54.774 -54.340  1.00  0.00     0.256 C 
HETATM   13  O   UNL     1     -40.122  55.561 -54.653  1.00  0.00    -0.267 OA
HETATM   14  H   UNL     1     -42.984  54.219 -54.177  1.00  0.00     0.169 HD
BRANCH  12  15
HETATM   15  C   UNL     1     -40.601  53.554 -53.589  1.00  0.00     0.038 A 
HETATM   16  C   UNL     1     -40.638  53.487 -52.197  1.00  0.00     0.061 A 
HETATM   17  C   UNL     1     -40.246  52.299 -51.610  1.00  0.00     0.128 A 
HETATM   18 CL   UNL     1     -40.251  52.125 -49.904  1.00  0.00    -0.062 Cl
HETATM   19  N   UNL     1     -39.841  51.207 -52.281  1.00  0.00    -0.225 NA
HETATM   20  C   UNL     1     -39.842  51.304 -53.622  1.00  0.00     0.128 A 
HETATM   21 CL   UNL     1     -39.336  49.885 -54.441  1.00  0.00    -0.062 Cl
HETATM   22  C   UNL     1     -40.208  52.434 -54.324  1.00  0.00     0.061 A 
ENDBRANCH  12  15
ENDBRANCH   2  11
BRANCH   9  23
HETATM   23  C   UNL     1     -42.799  56.700 -59.928  1.00  0.00     0.270 C 
HETATM   24  N   UNL     1     -41.493  57.072 -60.092  1.00  0.00    -0.365 N 
HETATM   25  H   UNL     1     -41.099  57.754 -59.456  1.00  0.00     0.159 HD
HETATM   26  H   UNL     1     -40.941  56.661 -60.829  1.00  0.00     0.159 HD
HETATM   27  O   UNL     1     -43.328  55.873 -60.664  1.00  0.00    -0.266 OA
ENDBRANCH   9  23
TORSDOF 3
ENDMDL
MODEL 7
REMARK VINA RESULT:      -8.2      3.528      8.295
REMARK  3 active torsions:
REMARK  status: ('A' for Active; 'I' for Inactive)
REMARK    1  A    between atoms: C_2  and  N_3 
REMARK       I    between atoms: N_3  and  C_4 
REMARK    2  A    between atoms: C_4  and  C_5 
REMARK    3  A    between atoms: C_20  and  C_21 
REMARK       I    between atoms: C_21  and  N_22 
ROOT
HETATM    1  C   UNL     1     -40.155  52.668 -54.675  1.00  0.00     0.032 A 
HETATM    2  C   UNL     1     -40.875  53.834 -54.410  1.00  0.00     0.036 A 
HETATM    3  C   UNL     1     -41.197  54.161 -53.081  1.00  0.00     0.046 A 
HETATM    4  C   UNL     1     -40.796  53.308 -52.032  1.00  0.00     0.030 A 
HETATM    5  C   UNL     1     -40.088  52.155 -52.341  1.00  0.00     0.063 A 
HETATM    6  N   UNL     1     -39.851  51.543 -51.141  1.00  0.00    -0.277 N 
HETATM    7  H   UNL     1     -39.359  50.671 -50.985  1.00  0.00     0.189 HD
HETATM    8  N   UNL     1     -40.335  52.204 -50.075  1.00  0.00    -0.168 NA
HETATM    9  C   UNL     1     -40.921  53.297 -50.612  1.00  0.00     0.156 A 
HETATM   10  C   UNL     1     -39.749  51.801 -53.648  1.00  0.00     0.034 A 
ENDROOT
BRANCH   2  11
HETATM   11  N   UNL     1     -41.315  54.735 -55.406  1.00  0.00    -0.323 N 
HETATM   12  C   UNL     1     -42.566  54.789 -55.993  1.00  0.00     0.256 C 
HETATM   13  O   UNL     1     -43.533  54.086 -55.730  1.00  0.00    -0.267 OA
HETATM   14  H   UNL     1     -40.641  55.447 -55.658  1.00  0.00     0.169 HD
BRANCH  12  15
HETATM   15  C   UNL     1     -42.746  55.840 -57.031  1.00  0.00     0.038 A 
HETATM   16  C   UNL     1     -43.376  55.589 -58.249  1.00  0.00     0.061 A 
HETATM   17  C   UNL     1     -43.493  56.645 -59.132  1.00  0.00     0.128 A 
HETATM   18 CL   UNL     1     -44.246  56.429 -60.657  1.00  0.00    -0.062 Cl
HETATM   19  N   UNL     1     -43.051  57.893 -58.900  1.00  0.00    -0.225 NA
HETATM   20  C   UNL     1     -42.470  58.101 -57.705  1.00  0.00     0.128 A 
HETATM   21 CL   UNL     1     -41.936  59.708 -57.440  1.00  0.00    -0.062 Cl
HETATM   22  C   UNL     1     -42.293  57.129 -56.742  1.00  0.00     0.061 A 
ENDBRANCH  12  15
ENDBRANCH   2  11
BRANCH   9  23
HETATM   23  C   UNL     1     -41.582  54.307 -49.773  1.00  0.00     0.270 C 
HETATM   24  N   UNL     1     -40.842  54.710 -48.695  1.00  0.00    -0.365 N 
HETATM   25  H   UNL     1     -39.925  54.304 -48.556  1.00  0.00     0.159 HD
HETATM   26  H   UNL     1     -41.210  55.406 -48.064  1.00  0.00     0.159 HD
HETATM   27  O   UNL     1     -42.697  54.769 -49.996  1.00  0.00    -0.266 OA
ENDBRANCH   9  23
TORSDOF 3
ENDMDL
MODEL 8
REMARK VINA RESULT:      -7.9     15.426     17.043
REMARK  3 active torsions:
REMARK  status: ('A' for Active; 'I' for Inactive)
REMARK    1  A    between atoms: C_2  and  N_3 
REMARK       I    between atoms: N_3  and  C_4 
REMARK    2  A    between atoms: C_4  and  C_5 
REMARK    3  A    between atoms: C_20  and  C_21 
REMARK       I    between atoms: C_21  and  N_22 
ROOT
HETATM    1  C   UNL     1     -35.278  41.677 -57.058  1.00  0.00     0.032 A 
HETATM    2  C   UNL     1     -36.391  40.838 -56.972  1.00  0.00     0.036 A 
HETATM    3  C   UNL     1     -37.051  40.692 -55.740  1.00  0.00     0.046 A 
HETATM    4  C   UNL     1     -36.583  41.387 -54.606  1.00  0.00     0.030 A 
HETATM    5  C   UNL     1     -35.470  42.205 -54.735  1.00  0.00     0.063 A 
HETATM    6  N   UNL     1     -35.257  42.727 -53.490  1.00  0.00    -0.277 N 
HETATM    7  H   UNL     1     -34.523  43.367 -53.211  1.00  0.00     0.189 HD
HETATM    8  N   UNL     1     -36.144  42.328 -52.561  1.00  0.00    -0.168 NA
HETATM    9  C   UNL     1     -36.970  41.500 -53.238  1.00  0.00     0.156 A 
HETATM   10  C   UNL     1     -34.791  42.376 -55.943  1.00  0.00     0.034 A 
ENDROOT
BRANCH   2  11
HETATM   11  N   UNL     1     -36.916  40.106 -58.061  1.00  0.00    -0.323 N 
HETATM   12  C   UNL     1     -37.407  40.613 -59.251  1.00  0.00     0.256 C 
HETATM   13  O   UNL     1     -37.442  41.788 -59.592  1.00  0.00    -0.267 OA
HETATM   14  H   UNL     1     -36.863  39.101 -57.959  1.00  0.00     0.169 HD
BRANCH  12  15
HETATM   15  C   UNL     1     -37.913  39.603 -60.220  1.00  0.00     0.038 A 
HETATM   16  C   UNL     1     -37.325  39.405 -61.468  1.00  0.00     0.061 A 
HETATM   17  C   UNL     1     -37.876  38.433 -62.282  1.00  0.00     0.128 A 
HETATM   18 CL   UNL     1     -37.225  38.124 -63.838  1.00  0.00    -0.062 Cl
HETATM   19  N   UNL     1     -38.929  37.665 -61.955  1.00  0.00    -0.225 NA
HETATM   20  C   UNL     1     -39.454  37.870 -60.733  1.00  0.00     0.128 A 
HETATM   21 CL   UNL     1     -40.783  36.859 -60.348  1.00  0.00    -0.062 Cl
HETATM   22  C   UNL     1     -38.994  38.809 -59.833  1.00  0.00     0.061 A 
ENDBRANCH  12  15
ENDBRANCH   2  11
BRANCH   9  23
HETATM   23  C   UNL     1     -38.105  40.837 -52.581  1.00  0.00     0.270 C 
HETATM   24  N   UNL     1     -39.216  41.625 -52.454  1.00  0.00    -0.365 N 
HETATM   25  H   UNL     1     -39.183  42.572 -52.810  1.00  0.00     0.159 HD
HETATM   26  H   UNL     1     -40.048  41.255 -52.021  1.00  0.00     0.159 HD
HETATM   27  O   UNL     1     -38.089  39.679 -52.173  1.00  0.00    -0.266 OA
ENDBRANCH   9  23
TORSDOF 3
ENDMDL
MODEL 9
REMARK VINA RESULT:      -7.9      3.785      8.074
REMARK  3 active torsions:
REMARK  status: ('A' for Active; 'I' for Inactive)
REMARK    1  A    between atoms: C_2  and  N_3 
REMARK       I    between atoms: N_3  and  C_4 
REMARK    2  A    between atoms: C_4  and  C_5 
REMARK    3  A    between atoms: C_20  and  C_21 
REMARK       I    between atoms: C_21  and  N_22 
ROOT
HETATM    1  C   UNL     1     -40.415  53.533 -54.959  1.00  0.00     0.032 A 
HETATM    2  C   UNL     1     -41.507  54.393 -55.091  1.00  0.00     0.036 A 
HETATM    3  C   UNL     1     -42.244  54.754 -53.949  1.00  0.00     0.046 A 
HETATM    4  C   UNL     1     -41.879  54.242 -52.688  1.00  0.00     0.030 A 
HETATM    5  C   UNL     1     -40.792  53.384 -52.603  1.00  0.00     0.063 A 
HETATM    6  N   UNL     1     -40.690  53.056 -51.279  1.00  0.00    -0.277 N 
HETATM    7  H   UNL     1     -40.008  52.442 -50.851  1.00  0.00     0.189 HD
HETATM    8  N   UNL     1     -41.613  53.636 -50.492  1.00  0.00    -0.168 NA
HETATM    9  C   UNL     1     -42.354  54.372 -51.349  1.00  0.00     0.156 A 
HETATM   10  C   UNL     1     -40.036  53.007 -53.714  1.00  0.00     0.034 A 
ENDROOT
BRANCH   2  11
HETATM   11  N   UNL     1     -41.936  54.944 -56.320  1.00  0.00    -0.323 N 
HETATM   12  C   UNL     1     -42.422  56.219 -56.541  1.00  0.00     0.256 C 
HETATM   13  O   UNL     1     -42.534  57.118 -55.717  1.00  0.00    -0.267 OA
HETATM   14  H   UNL     1     -41.810  54.338 -57.121  1.00  0.00     0.169 HD
BRANCH  12  15
HETATM   15  C   UNL     1     -42.815  56.524 -57.944  1.00  0.00     0.038 A 
HETATM   16  C   UNL     1     -42.407  57.685 -58.599  1.00  0.00     0.061 A 
HETATM   17  C   UNL     1     -42.827  57.857 -59.905  1.00  0.00     0.128 A 
HETATM   18 CL   UNL     1     -42.382  59.258 -60.788  1.00  0.00    -0.062 Cl
HETATM   19  N   UNL     1     -43.591  56.987 -60.587  1.00  0.00    -0.225 NA
HETATM   20  C   UNL     1     -43.943  55.868 -59.928  1.00  0.00     0.128 A 
HETATM   21 CL   UNL     1     -44.902  54.776 -60.838  1.00  0.00    -0.062 Cl
HETATM   22  C   UNL     1     -43.589  55.583 -58.626  1.00  0.00     0.061 A 
ENDBRANCH  12  15
ENDBRANCH   2  11
BRANCH   9  23
HETATM   23  C   UNL     1     -43.489  55.183 -50.887  1.00  0.00     0.270 C 
HETATM   24  N   UNL     1     -44.597  54.454 -50.551  1.00  0.00    -0.365 N 
HETATM   25  H   UNL     1     -44.558  53.446 -50.636  1.00  0.00     0.159 HD
HETATM   26  H   UNL     1     -45.425  54.922 -50.216  1.00  0.00     0.159 HD
HETATM   27  O   UNL     1     -43.475  56.407 -50.798  1.00  0.00    -0.266 OA
ENDBRANCH   9  23
TORSDOF 3
ENDMDL
MODEL 10
REMARK VINA RESULT:      -7.8      2.088      3.297
REMARK  3 active torsions:
REMARK  status: ('A' for Active; 'I' for Inactive)
REMARK    1  A    between atoms: C_2  and  N_3 
REMARK       I    between atoms: N_3  and  C_4 
REMARK    2  A    between atoms: C_4  and  C_5 
REMARK    3  A    between atoms: C_20  and  C_21 
REMARK       I    between atoms: C_21  and  N_22 
ROOT
HETATM    1  C   UNL     1     -43.411  55.394 -57.837  1.00  0.00     0.032 A 
HETATM    2  C   UNL     1     -42.486  55.824 -56.884  1.00  0.00     0.036 A 
HETATM    3  C   UNL     1     -42.140  57.185 -56.823  1.00  0.00     0.046 A 
HETATM    4  C   UNL     1     -42.723  58.098 -57.724  1.00  0.00     0.030 A 
HETATM    5  C   UNL     1     -43.632  57.627 -58.661  1.00  0.00     0.063 A 
HETATM    6  N   UNL     1     -44.012  58.724 -59.383  1.00  0.00    -0.277 N 
HETATM    7  H   UNL     1     -44.666  58.752 -60.156  1.00  0.00     0.189 HD
HETATM    8  N   UNL     1     -43.435  59.873 -58.990  1.00  0.00    -0.168 NA
HETATM    9  C   UNL     1     -42.637  59.501 -57.965  1.00  0.00     0.156 A 
HETATM   10  C   UNL     1     -44.001  56.283 -58.748  1.00  0.00     0.034 A 
ENDROOT
BRANCH   2  11
HETATM   11  N   UNL     1     -41.857  54.969 -55.951  1.00  0.00    -0.323 N 
HETATM   12  C   UNL     1     -42.352  54.557 -54.727  1.00  0.00     0.256 C 
HETATM   13  O   UNL     1     -43.445  54.828 -54.245  1.00  0.00    -0.267 OA
HETATM   14  H   UNL     1     -40.974  54.584 -56.260  1.00  0.00     0.169 HD
BRANCH  12  15
HETATM   15  C   UNL     1     -41.461  53.661 -53.940  1.00  0.00     0.038 A 
HETATM   16  C   UNL     1     -40.941  52.478 -54.462  1.00  0.00     0.061 A 
HETATM   17  C   UNL     1     -40.117  51.731 -53.641  1.00  0.00     0.128 A 
HETATM   18 CL   UNL     1     -39.438  50.257 -54.194  1.00  0.00    -0.062 Cl
HETATM   19  N   UNL     1     -39.778  52.066 -52.384  1.00  0.00    -0.225 NA
HETATM   20  C   UNL     1     -40.281  53.226 -51.926  1.00  0.00     0.128 A 
HETATM   21 CL   UNL     1     -39.811  53.625 -50.326  1.00  0.00    -0.062 Cl
HETATM   22  C   UNL     1     -41.113  54.056 -52.647  1.00  0.00     0.061 A 
ENDBRANCH  12  15
ENDBRANCH   2  11
BRANCH   9  23
HETATM   23  C   UNL     1     -41.815  60.476 -57.236  1.00  0.00     0.270 C 
HETATM   24  N   UNL     1     -42.193  60.665 -55.935  1.00  0.00    -0.365 N 
HETATM   25  H   UNL     1     -42.980  60.139 -55.577  1.00  0.00     0.159 HD
HETATM   26  H   UNL     1     -41.684  61.311 -55.351  1.00  0.00     0.159 HD
HETATM   27  O   UNL     1     -40.865  61.082 -57.723  1.00  0.00    -0.266 OA
ENDBRANCH   9  23
TORSDOF 3
ENDMDL
