MODEL 1
REMARK VINA RESULT:      -8.1      0.000      0.000
REMARK  5 active torsions:
REMARK  status: ('A' for Active; 'I' for Inactive)
REMARK    1  A    between atoms: C_6  and  N_7 
REMARK       I    between atoms: N_7  and  C_8 
REMARK    2  A    between atoms: C_8  and  C_9 
REMARK    3  A    between atoms: C_10  and  O_11 
REMARK    4  A    between atoms: C_14  and  O_15 
REMARK    5  A    between atoms: C_20  and  C_21 
ROOT
HETATM    1  C   UNL     1     -40.850  54.354 -48.958  1.00  0.00     0.073 C 
HETATM    2  C   UNL     1     -41.121  55.286 -50.081  1.00  0.00     0.065 A 
HETATM    3  N   UNL     1     -41.606  56.510 -49.831  1.00  0.00    -0.177 NA
HETATM    4  N   UNL     1     -41.790  57.031 -51.051  1.00  0.00    -0.262 N 
HETATM    5  H   UNL     1     -42.150  57.975 -51.108  1.00  0.00     0.191 HD
HETATM    6  C   UNL     1     -41.379  56.229 -52.083  1.00  0.00     0.137 A 
HETATM    7  C   UNL     1     -40.979  55.047 -51.480  1.00  0.00     0.046 A 
ENDROOT
BRANCH   6   8
HETATM    8  N   UNL     1     -41.447  56.679 -53.393  1.00  0.00    -0.307 N 
HETATM    9  C   UNL     1     -42.658  56.923 -54.031  1.00  0.00     0.260 C 
HETATM   10  O   UNL     1     -43.767  56.648 -53.590  1.00  0.00    -0.267 OA
HETATM   11  H   UNL     1     -40.601  56.670 -53.945  1.00  0.00     0.170 HD
BRANCH   9  12
HETATM   12  C   UNL     1     -42.547  57.472 -55.415  1.00  0.00     0.065 A 
HETATM   13  C   UNL     1     -42.051  58.766 -55.632  1.00  0.00     0.086 A 
HETATM   14  C   UNL     1     -41.942  59.287 -56.930  1.00  0.00     0.074 A 
HETATM   15  C   UNL     1     -42.366  58.533 -58.022  1.00  0.00     0.070 A 
HETATM   16  C   UNL     1     -42.880  57.252 -57.810  1.00  0.00     0.038 A 
HETATM   17  C   UNL     1     -42.980  56.724 -56.519  1.00  0.00     0.022 A 
BRANCH  13  18
HETATM   18  O   UNL     1     -41.565  59.526 -54.599  1.00  0.00    -0.355 OA
HETATM   19  C   UNL     1     -42.432  60.638 -54.352  1.00  0.00     0.210 C 
ENDBRANCH  13  18
BRANCH  15  20
HETATM   20  O   UNL     1     -42.325  58.923 -59.331  1.00  0.00    -0.356 OA
HETATM   21  C   UNL     1     -42.026  57.915 -60.291  1.00  0.00     0.210 C 
ENDBRANCH  15  20
ENDBRANCH   9  12
ENDBRANCH   6   8
BRANCH   7  22
HETATM   22  C   UNL     1     -40.677  53.797 -52.156  1.00  0.00    -0.020 A 
HETATM   23  C   UNL     1     -41.160  53.547 -53.445  1.00  0.00     0.014 A 
HETATM   24  C   UNL     1     -40.819  52.364 -54.108  1.00  0.00     0.020 A 
HETATM   25  C   UNL     1     -39.991  51.433 -53.483  1.00  0.00     0.011 A 
HETATM   26 BR   UNL     1     -39.525  49.838 -54.384  1.00  0.00    -0.051 Br
HETATM   27  C   UNL     1     -39.501  51.670 -52.202  1.00  0.00     0.020 A 
HETATM   28  C   UNL     1     -39.841  52.851 -51.540  1.00  0.00     0.014 A 
ENDBRANCH   7  22
TORSDOF 5
ENDMDL
MODEL 2
REMARK VINA RESULT:      -8.0      3.318      6.838
REMARK  5 active torsions:
REMARK  status: ('A' for Active; 'I' for Inactive)
REMARK    1  A    between atoms: C_6  and  N_7 
REMARK       I    between atoms: N_7  and  C_8 
REMARK    2  A    between atoms: C_8  and  C_9 
REMARK    3  A    between atoms: C_10  and  O_11 
REMARK    4  A    between atoms: C_14  and  O_15 
REMARK    5  A    between atoms: C_20  and  C_21 
ROOT
HETATM    1  C   UNL     1     -45.733  59.880 -52.138  1.00  0.00     0.073 C 
HETATM    2  C   UNL     1     -45.067  58.579 -51.879  1.00  0.00     0.065 A 
HETATM    3  N   UNL     1     -45.163  58.009 -50.670  1.00  0.00    -0.177 NA
HETATM    4  N   UNL     1     -44.401  56.912 -50.777  1.00  0.00    -0.262 N 
HETATM    5  H   UNL     1     -44.331  56.309 -49.968  1.00  0.00     0.191 HD
HETATM    6  C   UNL     1     -43.871  56.706 -52.024  1.00  0.00     0.137 A 
HETATM    7  C   UNL     1     -44.248  57.815 -52.763  1.00  0.00     0.046 A 
ENDROOT
BRANCH   6   8
HETATM    8  N   UNL     1     -43.121  55.569 -52.288  1.00  0.00    -0.307 N 
HETATM    9  C   UNL     1     -41.740  55.611 -52.445  1.00  0.00     0.260 C 
HETATM   10  O   UNL     1     -41.059  56.627 -52.511  1.00  0.00    -0.267 OA
HETATM   11  H   UNL     1     -43.612  54.721 -52.535  1.00  0.00     0.170 HD
BRANCH   9  12
HETATM   12  C   UNL     1     -41.084  54.285 -52.653  1.00  0.00     0.065 A 
HETATM   13  C   UNL     1     -40.660  53.520 -51.557  1.00  0.00     0.086 A 
HETATM   14  C   UNL     1     -40.045  52.273 -51.745  1.00  0.00     0.074 A 
HETATM   15  C   UNL     1     -39.813  51.798 -53.034  1.00  0.00     0.070 A 
HETATM   16  C   UNL     1     -40.214  52.566 -54.129  1.00  0.00     0.038 A 
HETATM   17  C   UNL     1     -40.837  53.804 -53.946  1.00  0.00     0.022 A 
BRANCH  13  18
HETATM   18  O   UNL     1     -40.918  53.913 -50.269  1.00  0.00    -0.355 OA
HETATM   19  C   UNL     1     -39.703  54.291 -49.614  1.00  0.00     0.210 C 
ENDBRANCH  13  18
BRANCH  15  20
HETATM   20  O   UNL     1     -39.216  50.611 -53.356  1.00  0.00    -0.356 OA
HETATM   21  C   UNL     1     -39.741  49.915 -54.482  1.00  0.00     0.210 C 
ENDBRANCH  15  20
ENDBRANCH   9  12
ENDBRANCH   6   8
BRANCH   7  22
HETATM   22  C   UNL     1     -43.746  58.186 -54.074  1.00  0.00    -0.020 A 
HETATM   23  C   UNL     1     -42.739  59.149 -54.208  1.00  0.00     0.014 A 
HETATM   24  C   UNL     1     -42.224  59.460 -55.470  1.00  0.00     0.020 A 
HETATM   25  C   UNL     1     -42.713  58.805 -56.598  1.00  0.00     0.011 A 
HETATM   26 BR   UNL     1     -42.011  59.220 -58.304  1.00  0.00    -0.051 Br
HETATM   27  C   UNL     1     -43.713  57.842 -56.480  1.00  0.00     0.020 A 
HETATM   28  C   UNL     1     -44.226  57.531 -55.220  1.00  0.00     0.014 A 
ENDBRANCH   7  22
TORSDOF 5
ENDMDL
MODEL 3
REMARK VINA RESULT:      -7.9      3.361      6.762
REMARK  5 active torsions:
REMARK  status: ('A' for Active; 'I' for Inactive)
REMARK    1  A    between atoms: C_6  and  N_7 
REMARK       I    between atoms: N_7  and  C_8 
REMARK    2  A    between atoms: C_8  and  C_9 
REMARK    3  A    between atoms: C_10  and  O_11 
REMARK    4  A    between atoms: C_14  and  O_15 
REMARK    5  A    between atoms: C_20  and  C_21 
ROOT
HETATM    1  C   UNL     1     -45.856  60.001 -51.915  1.00  0.00     0.073 C 
HETATM    2  C   UNL     1     -45.199  58.677 -51.773  1.00  0.00     0.065 A 
HETATM    3  N   UNL     1     -45.366  57.966 -50.651  1.00  0.00    -0.177 NA
HETATM    4  N   UNL     1     -44.592  56.889 -50.842  1.00  0.00    -0.262 N 
HETATM    5  H   UNL     1     -44.568  56.193 -50.108  1.00  0.00     0.191 HD
HETATM    6  C   UNL     1     -43.985  56.833 -52.069  1.00  0.00     0.137 A 
HETATM    7  C   UNL     1     -44.323  58.025 -52.691  1.00  0.00     0.046 A 
ENDROOT
BRANCH   6   8
HETATM    8  N   UNL     1     -43.213  55.736 -52.421  1.00  0.00    -0.307 N 
HETATM    9  C   UNL     1     -41.826  55.745 -52.331  1.00  0.00     0.260 C 
HETATM   10  O   UNL     1     -41.132  56.722 -52.079  1.00  0.00    -0.267 OA
HETATM   11  H   UNL     1     -43.662  54.974 -52.910  1.00  0.00     0.170 HD
BRANCH   9  12
HETATM   12  C   UNL     1     -41.158  54.456 -52.682  1.00  0.00     0.065 A 
HETATM   13  C   UNL     1     -41.102  54.020 -54.014  1.00  0.00     0.086 A 
HETATM   14  C   UNL     1     -40.474  52.811 -54.349  1.00  0.00     0.074 A 
HETATM   15  C   UNL     1     -39.932  52.006 -53.350  1.00  0.00     0.070 A 
HETATM   16  C   UNL     1     -40.004  52.426 -52.019  1.00  0.00     0.038 A 
HETATM   17  C   UNL     1     -40.619  53.635 -51.681  1.00  0.00     0.022 A 
BRANCH  13  18
HETATM   18  O   UNL     1     -41.567  54.801 -55.040  1.00  0.00    -0.355 OA
HETATM   19  C   UNL     1     -42.793  54.269 -55.552  1.00  0.00     0.210 C 
ENDBRANCH  13  18
BRANCH  15  20
HETATM   20  O   UNL     1     -39.305  50.806 -53.538  1.00  0.00    -0.356 OA
HETATM   21  C   UNL     1     -39.903  49.910 -54.468  1.00  0.00     0.210 C 
ENDBRANCH  15  20
ENDBRANCH   9  12
ENDBRANCH   6   8
BRANCH   7  22
HETATM   22  C   UNL     1     -43.743  58.550 -53.915  1.00  0.00    -0.020 A 
HETATM   23  C   UNL     1     -42.695  59.477 -53.869  1.00  0.00     0.014 A 
HETATM   24  C   UNL     1     -42.108  59.935 -55.051  1.00  0.00     0.020 A 
HETATM   25  C   UNL     1     -42.566  59.464 -56.281  1.00  0.00     0.011 A 
HETATM   26 BR   UNL     1     -41.766  60.080 -57.879  1.00  0.00    -0.051 Br
HETATM   27  C   UNL     1     -43.606  58.540 -56.342  1.00  0.00     0.020 A 
HETATM   28  C   UNL     1     -44.191  58.082 -55.160  1.00  0.00     0.014 A 
ENDBRANCH   7  22
TORSDOF 5
ENDMDL
MODEL 4
REMARK VINA RESULT:      -7.9      1.320      2.070
REMARK  5 active torsions:
REMARK  status: ('A' for Active; 'I' for Inactive)
REMARK    1  A    between atoms: C_6  and  N_7 
REMARK       I    between atoms: N_7  and  C_8 
REMARK    2  A    between atoms: C_8  and  C_9 
REMARK    3  A    between atoms: C_10  and  O_11 
REMARK    4  A    between atoms: C_14  and  O_15 
REMARK    5  A    between atoms: C_20  and  C_21 
ROOT
HETATM    1  C   UNL     1     -40.517  53.588 -48.573  1.00  0.00     0.073 C 
HETATM    2  C   UNL     1     -40.878  54.655 -49.540  1.00  0.00     0.065 A 
HETATM    3  N   UNL     1     -41.359  55.824 -49.095  1.00  0.00    -0.177 NA
HETATM    4  N   UNL     1     -41.634  56.500 -50.219  1.00  0.00    -0.262 N 
HETATM    5  H   UNL     1     -42.009  57.435 -50.123  1.00  0.00     0.191 HD
HETATM    6  C   UNL     1     -41.287  55.851 -51.374  1.00  0.00     0.137 A 
HETATM    7  C   UNL     1     -40.831  54.608 -50.965  1.00  0.00     0.046 A 
ENDROOT
BRANCH   6   8
HETATM    8  N   UNL     1     -41.452  56.470 -52.604  1.00  0.00    -0.307 N 
HETATM    9  C   UNL     1     -42.556  57.265 -52.893  1.00  0.00     0.260 C 
HETATM   10  O   UNL     1     -43.546  57.396 -52.184  1.00  0.00    -0.267 OA
HETATM   11  H   UNL     1     -40.838  56.202 -53.360  1.00  0.00     0.170 HD
BRANCH   9  12
HETATM   12  C   UNL     1     -42.538  57.913 -54.238  1.00  0.00     0.065 A 
HETATM   13  C   UNL     1     -42.871  57.182 -55.387  1.00  0.00     0.086 A 
HETATM   14  C   UNL     1     -42.859  57.786 -56.653  1.00  0.00     0.074 A 
HETATM   15  C   UNL     1     -42.474  59.118 -56.786  1.00  0.00     0.070 A 
HETATM   16  C   UNL     1     -42.121  59.845 -55.647  1.00  0.00     0.038 A 
HETATM   17  C   UNL     1     -42.142  59.250 -54.382  1.00  0.00     0.022 A 
BRANCH  13  18
HETATM   18  O   UNL     1     -43.314  55.887 -55.305  1.00  0.00    -0.355 OA
HETATM   19  C   UNL     1     -42.487  55.029 -56.098  1.00  0.00     0.210 C 
ENDBRANCH  13  18
BRANCH  15  20
HETATM   20  O   UNL     1     -42.408  59.821 -57.957  1.00  0.00    -0.356 OA
HETATM   21  C   UNL     1     -41.357  60.775 -58.073  1.00  0.00     0.210 C 
ENDBRANCH  15  20
ENDBRANCH   9  12
ENDBRANCH   6   8
BRANCH   7  22
HETATM   22  C   UNL     1     -40.562  53.466 -51.822  1.00  0.00    -0.020 A 
HETATM   23  C   UNL     1     -41.006  53.448 -53.149  1.00  0.00     0.014 A 
HETATM   24  C   UNL     1     -40.695  52.369 -53.981  1.00  0.00     0.020 A 
HETATM   25  C   UNL     1     -39.937  51.309 -53.488  1.00  0.00     0.011 A 
HETATM   26 BR   UNL     1     -39.511  49.853 -54.616  1.00  0.00    -0.051 Br
HETATM   27  C   UNL     1     -39.486  51.315 -52.170  1.00  0.00     0.020 A 
HETATM   28  C   UNL     1     -39.795  52.393 -51.340  1.00  0.00     0.014 A 
ENDBRANCH   7  22
TORSDOF 5
ENDMDL
MODEL 5
REMARK VINA RESULT:      -7.9      3.583      7.618
REMARK  5 active torsions:
REMARK  status: ('A' for Active; 'I' for Inactive)
REMARK    1  A    between atoms: C_6  and  N_7 
REMARK       I    between atoms: N_7  and  C_8 
REMARK    2  A    between atoms: C_8  and  C_9 
REMARK    3  A    between atoms: C_10  and  O_11 
REMARK    4  A    between atoms: C_14  and  O_15 
REMARK    5  A    between atoms: C_20  and  C_21 
ROOT
HETATM    1  C   UNL     1     -43.725  59.403 -57.716  1.00  0.00     0.073 C 
HETATM    2  C   UNL     1     -43.124  58.131 -57.240  1.00  0.00     0.065 A 
HETATM    3  N   UNL     1     -42.976  57.104 -58.087  1.00  0.00    -0.177 NA
HETATM    4  N   UNL     1     -42.481  56.128 -57.315  1.00  0.00    -0.262 N 
HETATM    5  H   UNL     1     -42.277  55.240 -57.755  1.00  0.00     0.191 HD
HETATM    6  C   UNL     1     -42.233  56.495 -56.018  1.00  0.00     0.137 A 
HETATM    7  C   UNL     1     -42.695  57.799 -55.921  1.00  0.00     0.046 A 
ENDROOT
BRANCH   6   8
HETATM    8  N   UNL     1     -41.653  55.599 -55.133  1.00  0.00    -0.307 N 
HETATM    9  C   UNL     1     -42.131  54.304 -54.968  1.00  0.00     0.260 C 
HETATM   10  O   UNL     1     -43.163  53.856 -55.454  1.00  0.00    -0.267 OA
HETATM   11  H   UNL     1     -40.973  55.952 -54.475  1.00  0.00     0.170 HD
BRANCH   9  12
HETATM   12  C   UNL     1     -41.344  53.451 -54.029  1.00  0.00     0.065 A 
HETATM   13  C   UNL     1     -41.306  53.746 -52.658  1.00  0.00     0.086 A 
HETATM   14  C   UNL     1     -40.571  52.947 -51.770  1.00  0.00     0.074 A 
HETATM   15  C   UNL     1     -39.833  51.868 -52.251  1.00  0.00     0.070 A 
HETATM   16  C   UNL     1     -39.851  51.582 -53.618  1.00  0.00     0.038 A 
HETATM   17  C   UNL     1     -40.591  52.369 -54.505  1.00  0.00     0.022 A 
BRANCH  13  18
HETATM   18  O   UNL     1     -42.061  54.760 -52.126  1.00  0.00    -0.355 OA
HETATM   19  C   UNL     1     -43.179  54.223 -51.412  1.00  0.00     0.210 C 
ENDBRANCH  13  18
BRANCH  15  20
HETATM   20  O   UNL     1     -39.069  51.019 -51.499  1.00  0.00    -0.356 OA
HETATM   21  C   UNL     1     -39.588  49.711 -51.283  1.00  0.00     0.210 C 
ENDBRANCH  15  20
ENDBRANCH   9  12
ENDBRANCH   6   8
BRANCH   7  22
HETATM   22  C   UNL     1     -42.871  58.558 -54.695  1.00  0.00    -0.020 A 
HETATM   23  C   UNL     1     -44.032  58.415 -53.927  1.00  0.00     0.014 A 
HETATM   24  C   UNL     1     -44.169  59.109 -52.721  1.00  0.00     0.020 A 
HETATM   25  C   UNL     1     -43.143  59.944 -52.282  1.00  0.00     0.011 A 
HETATM   26 BR   UNL     1     -43.326  60.877 -50.648  1.00  0.00    -0.051 Br
HETATM   27  C   UNL     1     -41.981  60.094 -53.035  1.00  0.00     0.020 A 
HETATM   28  C   UNL     1     -41.844  59.399 -54.238  1.00  0.00     0.014 A 
ENDBRANCH   7  22
TORSDOF 5
ENDMDL
MODEL 6
REMARK VINA RESULT:      -7.6      3.237      6.700
REMARK  5 active torsions:
REMARK  status: ('A' for Active; 'I' for Inactive)
REMARK    1  A    between atoms: C_6  and  N_7 
REMARK       I    between atoms: N_7  and  C_8 
REMARK    2  A    between atoms: C_8  and  C_9 
REMARK    3  A    between atoms: C_10  and  O_11 
REMARK    4  A    between atoms: C_14  and  O_15 
REMARK    5  A    between atoms: C_20  and  C_21 
ROOT
HETATM    1  C   UNL     1     -43.264  61.116 -51.090  1.00  0.00     0.073 C 
HETATM    2  C   UNL     1     -42.457  59.870 -51.050  1.00  0.00     0.065 A 
HETATM    3  N   UNL     1     -41.557  59.689 -50.074  1.00  0.00    -0.177 NA
HETATM    4  N   UNL     1     -40.982  58.520 -50.388  1.00  0.00    -0.262 N 
HETATM    5  H   UNL     1     -40.261  58.172 -49.770  1.00  0.00     0.191 HD
HETATM    6  C   UNL     1     -41.518  57.898 -51.485  1.00  0.00     0.137 A 
HETATM    7  C   UNL     1     -42.460  58.787 -51.977  1.00  0.00     0.046 A 
ENDROOT
BRANCH   6   8
HETATM    8  N   UNL     1     -41.062  56.647 -51.875  1.00  0.00    -0.307 N 
HETATM    9  C   UNL     1     -41.368  55.491 -51.165  1.00  0.00     0.260 C 
HETATM   10  O   UNL     1     -41.930  55.449 -50.077  1.00  0.00    -0.267 OA
HETATM   11  H   UNL     1     -40.357  56.600 -52.597  1.00  0.00     0.170 HD
BRANCH   9  12
HETATM   12  C   UNL     1     -40.857  54.223 -51.765  1.00  0.00     0.065 A 
HETATM   13  C   UNL     1     -41.110  53.917 -53.110  1.00  0.00     0.086 A 
HETATM   14  C   UNL     1     -40.630  52.729 -53.680  1.00  0.00     0.074 A 
HETATM   15  C   UNL     1     -39.926  51.815 -52.900  1.00  0.00     0.070 A 
HETATM   16  C   UNL     1     -39.689  52.106 -51.554  1.00  0.00     0.038 A 
HETATM   17  C   UNL     1     -40.156  53.294 -50.984  1.00  0.00     0.022 A 
BRANCH  13  18
HETATM   18  O   UNL     1     -41.746  54.808 -53.937  1.00  0.00    -0.355 OA
HETATM   19  C   UNL     1     -43.056  54.334 -54.262  1.00  0.00     0.210 C 
ENDBRANCH  13  18
BRANCH  15  20
HETATM   20  O   UNL     1     -39.416  50.621 -53.325  1.00  0.00    -0.356 OA
HETATM   21  C   UNL     1     -40.030  50.032 -54.466  1.00  0.00     0.210 C 
ENDBRANCH  15  20
ENDBRANCH   9  12
ENDBRANCH   6   8
BRANCH   7  22
HETATM   22  C   UNL     1     -43.140  58.697 -53.258  1.00  0.00    -0.020 A 
HETATM   23  C   UNL     1     -42.604  59.311 -54.396  1.00  0.00     0.014 A 
HETATM   24  C   UNL     1     -43.236  59.173 -55.635  1.00  0.00     0.020 A 
HETATM   25  C   UNL     1     -44.403  58.419 -55.737  1.00  0.00     0.011 A 
HETATM   26 BR   UNL     1     -45.253  58.227 -57.415  1.00  0.00    -0.051 Br
HETATM   27  C   UNL     1     -44.946  57.799 -54.614  1.00  0.00     0.020 A 
HETATM   28  C   UNL     1     -44.313  57.936 -53.378  1.00  0.00     0.014 A 
ENDBRANCH   7  22
TORSDOF 5
ENDMDL
MODEL 7
REMARK VINA RESULT:      -7.5      2.328      3.031
REMARK  5 active torsions:
REMARK  status: ('A' for Active; 'I' for Inactive)
REMARK    1  A    between atoms: C_6  and  N_7 
REMARK       I    between atoms: N_7  and  C_8 
REMARK    2  A    between atoms: C_8  and  C_9 
REMARK    3  A    between atoms: C_10  and  O_11 
REMARK    4  A    between atoms: C_14  and  O_15 
REMARK    5  A    between atoms: C_20  and  C_21 
ROOT
HETATM    1  C   UNL     1     -40.951  56.906 -50.589  1.00  0.00     0.073 C 
HETATM    2  C   UNL     1     -41.832  57.167 -51.755  1.00  0.00     0.065 A 
HETATM    3  N   UNL     1     -42.636  58.238 -51.757  1.00  0.00    -0.177 NA
HETATM    4  N   UNL     1     -43.318  58.119 -52.905  1.00  0.00    -0.262 N 
HETATM    5  H   UNL     1     -43.993  58.839 -53.126  1.00  0.00     0.191 HD
HETATM    6  C   UNL     1     -42.941  57.057 -53.684  1.00  0.00     0.137 A 
HETATM    7  C   UNL     1     -41.997  56.377 -52.931  1.00  0.00     0.046 A 
ENDROOT
BRANCH   6   8
HETATM    8  N   UNL     1     -43.518  56.860 -54.930  1.00  0.00    -0.307 N 
HETATM    9  C   UNL     1     -42.889  57.249 -56.108  1.00  0.00     0.260 C 
HETATM   10  O   UNL     1     -41.862  57.911 -56.185  1.00  0.00    -0.267 OA
HETATM   11  H   UNL     1     -44.487  56.579 -54.967  1.00  0.00     0.170 HD
BRANCH   9  12
HETATM   12  C   UNL     1     -43.618  56.896 -57.362  1.00  0.00     0.065 A 
HETATM   13  C   UNL     1     -44.730  57.644 -57.776  1.00  0.00     0.086 A 
HETATM   14  C   UNL     1     -45.417  57.319 -58.955  1.00  0.00     0.074 A 
HETATM   15  C   UNL     1     -45.023  56.217 -59.711  1.00  0.00     0.070 A 
HETATM   16  C   UNL     1     -43.929  55.456 -59.292  1.00  0.00     0.038 A 
HETATM   17  C   UNL     1     -43.234  55.783 -58.123  1.00  0.00     0.022 A 
BRANCH  13  18
HETATM   18  O   UNL     1     -45.122  58.771 -57.102  1.00  0.00    -0.355 OA
HETATM   19  C   UNL     1     -45.147  59.895 -57.988  1.00  0.00     0.210 C 
ENDBRANCH  13  18
BRANCH  15  20
HETATM   20  O   UNL     1     -45.609  55.787 -60.869  1.00  0.00    -0.356 OA
HETATM   21  C   UNL     1     -46.967  56.157 -61.076  1.00  0.00     0.210 C 
ENDBRANCH  15  20
ENDBRANCH   9  12
ENDBRANCH   6   8
BRANCH   7  22
HETATM   22  C   UNL     1     -41.461  55.056 -53.213  1.00  0.00    -0.020 A 
HETATM   23  C   UNL     1     -40.794  54.798 -54.416  1.00  0.00     0.014 A 
HETATM   24  C   UNL     1     -40.234  53.540 -54.655  1.00  0.00     0.020 A 
HETATM   25  C   UNL     1     -40.339  52.540 -53.690  1.00  0.00     0.011 A 
HETATM   26 BR   UNL     1     -39.576  50.840 -54.011  1.00  0.00    -0.051 Br
HETATM   27  C   UNL     1     -40.998  52.783 -52.487  1.00  0.00     0.020 A 
HETATM   28  C   UNL     1     -41.555  54.041 -52.248  1.00  0.00     0.014 A 
ENDBRANCH   7  22
TORSDOF 5
ENDMDL
MODEL 8
REMARK VINA RESULT:      -7.4      3.344      5.380
REMARK  5 active torsions:
REMARK  status: ('A' for Active; 'I' for Inactive)
REMARK    1  A    between atoms: C_6  and  N_7 
REMARK       I    between atoms: N_7  and  C_8 
REMARK    2  A    between atoms: C_8  and  C_9 
REMARK    3  A    between atoms: C_10  and  O_11 
REMARK    4  A    between atoms: C_14  and  O_15 
REMARK    5  A    between atoms: C_20  and  C_21 
ROOT
HETATM    1  C   UNL     1     -39.901  52.415 -51.358  1.00  0.00     0.073 C 
HETATM    2  C   UNL     1     -40.472  53.647 -50.758  1.00  0.00     0.065 A 
HETATM    3  N   UNL     1     -40.413  53.833 -49.433  1.00  0.00    -0.177 NA
HETATM    4  N   UNL     1     -41.070  54.986 -49.247  1.00  0.00    -0.262 N 
HETATM    5  H   UNL     1     -41.145  55.335 -48.300  1.00  0.00     0.191 HD
HETATM    6  C   UNL     1     -41.492  55.594 -50.399  1.00  0.00     0.137 A 
HETATM    7  C   UNL     1     -41.158  54.711 -51.414  1.00  0.00     0.046 A 
ENDROOT
BRANCH   6   8
HETATM    8  N   UNL     1     -42.123  56.829 -50.351  1.00  0.00    -0.307 N 
HETATM    9  C   UNL     1     -41.647  57.933 -51.049  1.00  0.00     0.260 C 
HETATM   10  O   UNL     1     -40.581  57.993 -51.651  1.00  0.00    -0.267 OA
HETATM   11  H   UNL     1     -42.849  56.967 -49.662  1.00  0.00     0.170 HD
BRANCH   9  12
HETATM   12  C   UNL     1     -42.488  59.162 -50.944  1.00  0.00     0.065 A 
HETATM   13  C   UNL     1     -43.835  59.141 -51.333  1.00  0.00     0.086 A 
HETATM   14  C   UNL     1     -44.631  60.292 -51.233  1.00  0.00     0.074 A 
HETATM   15  C   UNL     1     -44.075  61.487 -50.782  1.00  0.00     0.070 A 
HETATM   16  C   UNL     1     -42.728  61.519 -50.413  1.00  0.00     0.038 A 
HETATM   17  C   UNL     1     -41.934  60.371 -50.500  1.00  0.00     0.022 A 
BRANCH  13  18
HETATM   18  O   UNL     1     -44.445  57.978 -51.727  1.00  0.00    -0.355 OA
HETATM   19  C   UNL     1     -44.745  58.025 -53.125  1.00  0.00     0.210 C 
ENDBRANCH  13  18
BRANCH  15  20
HETATM   20  O   UNL     1     -44.733  62.678 -50.648  1.00  0.00    -0.356 OA
HETATM   21  C   UNL     1     -44.655  63.313 -49.376  1.00  0.00     0.210 C 
ENDBRANCH  15  20
ENDBRANCH   9  12
ENDBRANCH   6   8
BRANCH   7  22
HETATM   22  C   UNL     1     -41.596  54.786 -52.797  1.00  0.00    -0.020 A 
HETATM   23  C   UNL     1     -42.941  54.588 -53.132  1.00  0.00     0.014 A 
HETATM   24  C   UNL     1     -43.362  54.715 -54.459  1.00  0.00     0.020 A 
HETATM   25  C   UNL     1     -42.440  55.045 -55.450  1.00  0.00     0.011 A 
HETATM   26 BR   UNL     1     -43.012  55.224 -57.243  1.00  0.00    -0.051 Br
HETATM   27  C   UNL     1     -41.099  55.248 -55.131  1.00  0.00     0.020 A 
HETATM   28  C   UNL     1     -40.680  55.122 -53.806  1.00  0.00     0.014 A 
ENDBRANCH   7  22
TORSDOF 5
ENDMDL
MODEL 9
REMARK VINA RESULT:      -7.2      3.353      6.849
REMARK  5 active torsions:
REMARK  status: ('A' for Active; 'I' for Inactive)
REMARK    1  A    between atoms: C_6  and  N_7 
REMARK       I    between atoms: N_7  and  C_8 
REMARK    2  A    between atoms: C_8  and  C_9 
REMARK    3  A    between atoms: C_10  and  O_11 
REMARK    4  A    between atoms: C_14  and  O_15 
REMARK    5  A    between atoms: C_20  and  C_21 
ROOT
HETATM    1  C   UNL     1     -43.052  60.943 -51.243  1.00  0.00     0.073 C 
HETATM    2  C   UNL     1     -42.455  59.587 -51.141  1.00  0.00     0.065 A 
HETATM    3  N   UNL     1     -41.567  59.320 -50.175  1.00  0.00    -0.177 NA
HETATM    4  N   UNL     1     -41.199  58.056 -50.426  1.00  0.00    -0.262 N 
HETATM    5  H   UNL     1     -40.525  57.632 -49.802  1.00  0.00     0.191 HD
HETATM    6  C   UNL     1     -41.862  57.465 -51.469  1.00  0.00     0.137 A 
HETATM    7  C   UNL     1     -42.663  58.465 -51.997  1.00  0.00     0.046 A 
ENDROOT
BRANCH   6   8
HETATM    8  N   UNL     1     -41.627  56.136 -51.787  1.00  0.00    -0.307 N 
HETATM    9  C   UNL     1     -40.923  55.759 -52.925  1.00  0.00     0.260 C 
HETATM   10  O   UNL     1     -40.562  56.510 -53.824  1.00  0.00    -0.267 OA
HETATM   11  H   UNL     1     -42.122  55.426 -51.266  1.00  0.00     0.170 HD
BRANCH   9  12
HETATM   12  C   UNL     1     -40.699  54.291 -53.077  1.00  0.00     0.065 A 
HETATM   13  C   UNL     1     -40.182  53.534 -52.015  1.00  0.00     0.086 A 
HETATM   14  C   UNL     1     -39.972  52.154 -52.150  1.00  0.00     0.074 A 
HETATM   15  C   UNL     1     -40.238  51.523 -53.363  1.00  0.00     0.070 A 
HETATM   16  C   UNL     1     -40.733  52.276 -54.431  1.00  0.00     0.038 A 
HETATM   17  C   UNL     1     -40.955  53.650 -54.297  1.00  0.00     0.022 A 
BRANCH  13  18
HETATM   18  O   UNL     1     -39.959  54.093 -50.783  1.00  0.00    -0.355 OA
HETATM   19  C   UNL     1     -40.571  53.301 -49.761  1.00  0.00     0.210 C 
ENDBRANCH  13  18
BRANCH  15  20
HETATM   20  O   UNL     1     -40.069  50.194 -53.631  1.00  0.00    -0.356 OA
HETATM   21  C   UNL     1     -39.547  49.389 -52.579  1.00  0.00     0.210 C 
ENDBRANCH  15  20
ENDBRANCH   9  12
ENDBRANCH   6   8
BRANCH   7  22
HETATM   22  C   UNL     1     -43.387  58.411 -53.255  1.00  0.00    -0.020 A 
HETATM   23  C   UNL     1     -44.476  57.547 -53.417  1.00  0.00     0.014 A 
HETATM   24  C   UNL     1     -45.200  57.542 -54.612  1.00  0.00     0.020 A 
HETATM   25  C   UNL     1     -44.838  58.404 -55.646  1.00  0.00     0.011 A 
HETATM   26 BR   UNL     1     -45.822  58.401 -57.260  1.00  0.00    -0.051 Br
HETATM   27  C   UNL     1     -43.759  59.272 -55.498  1.00  0.00     0.020 A 
HETATM   28  C   UNL     1     -43.037  59.277 -54.303  1.00  0.00     0.014 A 
ENDBRANCH   7  22
TORSDOF 5
ENDMDL
MODEL 10
REMARK VINA RESULT:      -7.1      2.215      3.318
REMARK  5 active torsions:
REMARK  status: ('A' for Active; 'I' for Inactive)
REMARK    1  A    between atoms: C_6  and  N_7 
REMARK       I    between atoms: N_7  and  C_8 
REMARK    2  A    between atoms: C_8  and  C_9 
REMARK    3  A    between atoms: C_10  and  O_11 
REMARK    4  A    between atoms: C_14  and  O_15 
REMARK    5  A    between atoms: C_20  and  C_21 
ROOT
HETATM    1  C   UNL     1     -43.838  55.784 -50.605  1.00  0.00     0.073 C 
HETATM    2  C   UNL     1     -43.810  56.511 -51.900  1.00  0.00     0.065 A 
HETATM    3  N   UNL     1     -44.591  57.585 -52.079  1.00  0.00    -0.177 NA
HETATM    4  N   UNL     1     -44.362  57.932 -53.352  1.00  0.00    -0.262 N 
HETATM    5  H   UNL     1     -44.850  58.742 -53.712  1.00  0.00     0.191 HD
HETATM    6  C   UNL     1     -43.413  57.175 -53.988  1.00  0.00     0.137 A 
HETATM    7  C   UNL     1     -43.065  56.194 -53.074  1.00  0.00     0.046 A 
ENDROOT
BRANCH   6   8
HETATM    8  N   UNL     1     -43.031  57.475 -55.287  1.00  0.00    -0.307 N 
HETATM    9  C   UNL     1     -43.943  57.883 -56.254  1.00  0.00     0.260 C 
HETATM   10  O   UNL     1     -45.161  57.891 -56.129  1.00  0.00    -0.267 OA
HETATM   11  H   UNL     1     -42.094  57.231 -55.577  1.00  0.00     0.170 HD
BRANCH   9  12
HETATM   12  C   UNL     1     -43.350  58.235 -57.578  1.00  0.00     0.065 A 
HETATM   13  C   UNL     1     -42.847  57.235 -58.424  1.00  0.00     0.086 A 
HETATM   14  C   UNL     1     -42.291  57.559 -59.670  1.00  0.00     0.074 A 
HETATM   15  C   UNL     1     -42.196  58.891 -60.066  1.00  0.00     0.070 A 
HETATM   16  C   UNL     1     -42.677  59.893 -59.219  1.00  0.00     0.038 A 
HETATM   17  C   UNL     1     -43.242  59.574 -57.981  1.00  0.00     0.022 A 
BRANCH  13  18
HETATM   18  O   UNL     1     -42.969  55.907 -58.108  1.00  0.00    -0.355 OA
HETATM   19  C   UNL     1     -43.731  55.227 -59.112  1.00  0.00     0.210 C 
ENDBRANCH  13  18
BRANCH  15  20
HETATM   20  O   UNL     1     -41.670  59.343 -61.244  1.00  0.00    -0.356 OA
HETATM   21  C   UNL     1     -41.760  60.742 -61.491  1.00  0.00     0.210 C 
ENDBRANCH  15  20
ENDBRANCH   9  12
ENDBRANCH   6   8
BRANCH   7  22
HETATM   22  C   UNL     1     -42.268  55.010 -53.345  1.00  0.00    -0.020 A 
HETATM   23  C   UNL     1     -41.190  54.670 -52.520  1.00  0.00     0.014 A 
HETATM   24  C   UNL     1     -40.463  53.500 -52.757  1.00  0.00     0.020 A 
HETATM   25  C   UNL     1     -40.817  52.667 -53.817  1.00  0.00     0.011 A 
HETATM   26 BR   UNL     1     -39.837  51.081 -54.132  1.00  0.00    -0.051 Br
HETATM   27  C   UNL     1     -41.889  52.991 -54.644  1.00  0.00     0.020 A 
HETATM   28  C   UNL     1     -42.616  54.159 -54.406  1.00  0.00     0.014 A 
ENDBRANCH   7  22
TORSDOF 5
ENDMDL
