MODEL 1
REMARK VINA RESULT:      -9.8      0.000      0.000
REMARK  4 active torsions:
REMARK  status: ('A' for Active; 'I' for Inactive)
REMARK    1  A    between atoms: C_7  and  C_8 
REMARK       I    between atoms: C_8  and  N_9 
REMARK    2  A    between atoms: N_9  and  N_10 
REMARK       I    between atoms: N_10  and  C_11 
REMARK    3  A    between atoms: C_11  and  C_12 
REMARK    4  A    between atoms: C_12  and  C_13 
ROOT
HETATM    1  C   UNL     1     -43.135  57.296 -57.316  1.00  0.00     0.273 C 
HETATM    2  N   UNL     1     -43.149  56.434 -56.233  1.00  0.00    -0.263 N 
HETATM    3  O   UNL     1     -42.091  57.772 -57.759  1.00  0.00    -0.266 OA
HETATM    4  H   UNL     1     -43.939  55.797 -56.141  1.00  0.00     0.190 HD
ENDROOT
BRANCH   2   5
HETATM    5  N   UNL     1     -41.911  55.901 -55.802  1.00  0.00    -0.267 N 
HETATM    6  C   UNL     1     -41.921  54.584 -55.396  1.00  0.00     0.240 C 
HETATM    7  O   UNL     1     -42.979  53.963 -55.253  1.00  0.00    -0.272 OA
HETATM    8  H   UNL     1     -41.086  56.304 -56.250  1.00  0.00     0.190 HD
BRANCH   6   9
HETATM    9  C   UNL     1     -40.589  53.943 -55.053  1.00  0.00     0.144 C 
BRANCH   9  10
HETATM   10  C   UNL     1     -40.406  53.449 -53.632  1.00  0.00    -0.038 A 
HETATM   11  C   UNL     1     -40.083  52.098 -53.325  1.00  0.00    -0.019 A 
HETATM   12  C   UNL     1     -39.955  51.722 -51.963  1.00  0.00    -0.025 A 
HETATM   13  C   UNL     1     -39.879  51.093 -54.300  1.00  0.00     0.013 A 
HETATM   14  C   UNL     1     -39.657  50.392 -51.621  1.00  0.00     0.012 A 
HETATM   15  C   UNL     1     -40.126  52.680 -50.952  1.00  0.00     0.012 A 
HETATM   16  C   UNL     1     -39.473  49.424 -52.606  1.00  0.00     0.001 A 
HETATM   17  C   UNL     1     -39.579  49.776 -53.944  1.00  0.00     0.001 A 
HETATM   18  C   UNL     1     -40.419  54.003 -51.265  1.00  0.00     0.001 A 
HETATM   19  C   UNL     1     -40.558  54.386 -52.593  1.00  0.00     0.008 A 
ENDBRANCH   9  10
ENDBRANCH   6   9
ENDBRANCH   2   5
BRANCH   1  20
HETATM   20  C   UNL     1     -44.447  57.533 -57.918  1.00  0.00     0.068 A 
HETATM   21  C   UNL     1     -45.417  58.447 -57.511  1.00  0.00     0.022 A 
HETATM   22  C   UNL     1     -45.432  59.472 -56.434  1.00  0.00     0.069 C 
HETATM   23  N   UNL     1     -46.499  58.305 -58.349  1.00  0.00    -0.358 N 
HETATM   24  H   UNL     1     -47.354  58.839 -58.291  1.00  0.00     0.166 HD
HETATM   25  C   UNL     1     -46.253  57.350 -59.305  1.00  0.00     0.043 A 
HETATM   26  C   UNL     1     -44.970  56.859 -59.074  1.00  0.00     0.008 A 
HETATM   27  C   UNL     1     -47.066  56.894 -60.350  1.00  0.00     0.030 A 
HETATM   28  C   UNL     1     -44.474  55.856 -59.934  1.00  0.00     0.015 A 
HETATM   29  C   UNL     1     -45.271  55.386 -60.983  1.00  0.00     0.001 A 
HETATM   30  C   UNL     1     -46.550  55.899 -61.185  1.00  0.00     0.002 A 
ENDBRANCH   1  20
TORSDOF 4
ENDMDL
MODEL 2
REMARK VINA RESULT:      -9.4      2.742      4.011
REMARK  4 active torsions:
REMARK  status: ('A' for Active; 'I' for Inactive)
REMARK    1  A    between atoms: C_7  and  C_8 
REMARK       I    between atoms: C_8  and  N_9 
REMARK    2  A    between atoms: N_9  and  N_10 
REMARK       I    between atoms: N_10  and  C_11 
REMARK    3  A    between atoms: C_11  and  C_12 
REMARK    4  A    between atoms: C_12  and  C_13 
ROOT
HETATM    1  C   UNL     1     -42.983  57.714 -57.154  1.00  0.00     0.273 C 
HETATM    2  N   UNL     1     -42.042  56.699 -57.158  1.00  0.00    -0.263 N 
HETATM    3  O   UNL     1     -44.169  57.505 -56.905  1.00  0.00    -0.266 OA
HETATM    4  H   UNL     1     -41.068  56.952 -56.998  1.00  0.00     0.190 HD
ENDROOT
BRANCH   2   5
HETATM    5  N   UNL     1     -42.422  55.450 -56.614  1.00  0.00    -0.267 N 
HETATM    6  C   UNL     1     -41.802  55.080 -55.439  1.00  0.00     0.240 C 
HETATM    7  O   UNL     1     -40.848  55.721 -54.987  1.00  0.00    -0.272 OA
HETATM    8  H   UNL     1     -43.384  55.166 -56.808  1.00  0.00     0.190 HD
BRANCH   6   9
HETATM    9  C   UNL     1     -42.280  53.810 -54.760  1.00  0.00     0.144 C 
BRANCH   9  10
HETATM   10  C   UNL     1     -41.328  53.151 -53.782  1.00  0.00    -0.038 A 
HETATM   11  C   UNL     1     -41.304  53.476 -52.396  1.00  0.00    -0.019 A 
HETATM   12  C   UNL     1     -40.360  52.824 -51.561  1.00  0.00    -0.025 A 
HETATM   13  C   UNL     1     -42.168  54.419 -51.792  1.00  0.00     0.013 A 
HETATM   14  C   UNL     1     -40.294  53.135 -50.193  1.00  0.00     0.012 A 
HETATM   15  C   UNL     1     -39.491  51.865 -52.102  1.00  0.00     0.012 A 
HETATM   16  C   UNL     1     -41.152  54.077 -49.630  1.00  0.00     0.001 A 
HETATM   17  C   UNL     1     -42.092  54.715 -50.428  1.00  0.00     0.001 A 
HETATM   18  C   UNL     1     -39.539  51.537 -53.452  1.00  0.00     0.001 A 
HETATM   19  C   UNL     1     -40.449  52.174 -54.286  1.00  0.00     0.008 A 
ENDBRANCH   9  10
ENDBRANCH   6   9
ENDBRANCH   2   5
BRANCH   1  20
HETATM   20  C   UNL     1     -42.436  59.047 -57.403  1.00  0.00     0.068 A 
HETATM   21  C   UNL     1     -42.070  60.007 -56.460  1.00  0.00     0.022 A 
HETATM   22  C   UNL     1     -42.052  59.987 -54.973  1.00  0.00     0.069 C 
HETATM   23  N   UNL     1     -41.634  61.117 -57.146  1.00  0.00    -0.358 N 
HETATM   24  H   UNL     1     -41.306  61.972 -56.720  1.00  0.00     0.166 HD
HETATM   25  C   UNL     1     -41.676  60.901 -58.502  1.00  0.00     0.043 A 
HETATM   26  C   UNL     1     -42.158  59.608 -58.695  1.00  0.00     0.008 A 
HETATM   27  C   UNL     1     -41.322  61.749 -59.558  1.00  0.00     0.030 A 
HETATM   28  C   UNL     1     -42.293  59.138 -60.019  1.00  0.00     0.015 A 
HETATM   29  C   UNL     1     -41.946  59.970 -61.089  1.00  0.00     0.001 A 
HETATM   30  C   UNL     1     -41.468  61.258 -60.859  1.00  0.00     0.002 A 
ENDBRANCH   1  20
TORSDOF 4
ENDMDL
MODEL 3
REMARK VINA RESULT:      -9.4      0.942      2.243
REMARK  4 active torsions:
REMARK  status: ('A' for Active; 'I' for Inactive)
REMARK    1  A    between atoms: C_7  and  C_8 
REMARK       I    between atoms: C_8  and  N_9 
REMARK    2  A    between atoms: N_9  and  N_10 
REMARK       I    between atoms: N_10  and  C_11 
REMARK    3  A    between atoms: C_11  and  C_12 
REMARK    4  A    between atoms: C_12  and  C_13 
ROOT
HETATM    1  C   UNL     1     -43.119  57.004 -57.732  1.00  0.00     0.273 C 
HETATM    2  N   UNL     1     -43.103  55.985 -56.796  1.00  0.00    -0.263 N 
HETATM    3  O   UNL     1     -42.136  57.712 -57.944  1.00  0.00    -0.266 OA
HETATM    4  H   UNL     1     -43.767  55.220 -56.913  1.00  0.00     0.190 HD
ENDROOT
BRANCH   2   5
HETATM    5  N   UNL     1     -41.850  55.599 -56.267  1.00  0.00    -0.267 N 
HETATM    6  C   UNL     1     -41.830  54.435 -55.528  1.00  0.00     0.240 C 
HETATM    7  O   UNL     1     -42.874  53.861 -55.205  1.00  0.00    -0.272 OA
HETATM    8  H   UNL     1     -41.039  55.879 -56.822  1.00  0.00     0.190 HD
BRANCH   6   9
HETATM    9  C   UNL     1     -40.481  53.922 -55.058  1.00  0.00     0.144 C 
BRANCH   9  10
HETATM   10  C   UNL     1     -40.385  53.456 -53.619  1.00  0.00    -0.038 A 
HETATM   11  C   UNL     1     -40.086  52.110 -53.267  1.00  0.00    -0.019 A 
HETATM   12  C   UNL     1     -40.040  51.760 -51.893  1.00  0.00    -0.025 A 
HETATM   13  C   UNL     1     -39.829  51.086 -54.209  1.00  0.00     0.013 A 
HETATM   14  C   UNL     1     -39.768  50.437 -51.509  1.00  0.00     0.012 A 
HETATM   15  C   UNL     1     -40.266  52.738 -50.913  1.00  0.00     0.012 A 
HETATM   16  C   UNL     1     -39.531  49.449 -52.462  1.00  0.00     0.001 A 
HETATM   17  C   UNL     1     -39.557  49.774 -53.811  1.00  0.00     0.001 A 
HETATM   18  C   UNL     1     -40.534  54.056 -51.267  1.00  0.00     0.001 A 
HETATM   19  C   UNL     1     -40.593  54.413 -52.608  1.00  0.00     0.008 A 
ENDBRANCH   9  10
ENDBRANCH   6   9
ENDBRANCH   2   5
BRANCH   1  20
HETATM   20  C   UNL     1     -44.370  57.118 -58.482  1.00  0.00     0.068 A 
HETATM   21  C   UNL     1     -44.845  56.269 -59.479  1.00  0.00     0.022 A 
HETATM   22  C   UNL     1     -44.312  55.002 -60.048  1.00  0.00     0.069 C 
HETATM   23  N   UNL     1     -46.044  56.777 -59.921  1.00  0.00    -0.358 N 
HETATM   24  H   UNL     1     -46.619  56.369 -60.645  1.00  0.00     0.166 HD
HETATM   25  C   UNL     1     -46.380  57.912 -59.224  1.00  0.00     0.043 A 
HETATM   26  C   UNL     1     -45.360  58.144 -58.303  1.00  0.00     0.008 A 
HETATM   27  C   UNL     1     -47.503  58.740 -59.340  1.00  0.00     0.030 A 
HETATM   28  C   UNL     1     -45.471  59.264 -57.453  1.00  0.00     0.015 A 
HETATM   29  C   UNL     1     -46.585  60.104 -57.554  1.00  0.00     0.001 A 
HETATM   30  C   UNL     1     -47.586  59.843 -58.487  1.00  0.00     0.002 A 
ENDBRANCH   1  20
TORSDOF 4
ENDMDL
MODEL 4
REMARK VINA RESULT:      -9.3      0.552      2.100
REMARK  4 active torsions:
REMARK  status: ('A' for Active; 'I' for Inactive)
REMARK    1  A    between atoms: C_7  and  C_8 
REMARK       I    between atoms: C_8  and  N_9 
REMARK    2  A    between atoms: N_9  and  N_10 
REMARK       I    between atoms: N_10  and  C_11 
REMARK    3  A    between atoms: C_11  and  C_12 
REMARK    4  A    between atoms: C_12  and  C_13 
ROOT
HETATM    1  C   UNL     1     -43.021  57.160 -57.234  1.00  0.00     0.273 C 
HETATM    2  N   UNL     1     -42.930  56.234 -56.210  1.00  0.00    -0.263 N 
HETATM    3  O   UNL     1     -42.034  57.747 -57.675  1.00  0.00    -0.266 OA
HETATM    4  H   UNL     1     -43.664  55.530 -56.137  1.00  0.00     0.190 HD
ENDROOT
BRANCH   2   5
HETATM    5  N   UNL     1     -41.640  55.778 -55.850  1.00  0.00    -0.267 N 
HETATM    6  C   UNL     1     -41.560  54.487 -55.371  1.00  0.00     0.240 C 
HETATM    7  O   UNL     1     -42.575  53.835 -55.109  1.00  0.00    -0.272 OA
HETATM    8  H   UNL     1     -40.871  56.185 -56.385  1.00  0.00     0.190 HD
BRANCH   6   9
HETATM    9  C   UNL     1     -40.178  53.921 -55.101  1.00  0.00     0.144 C 
BRANCH   9  10
HETATM   10  C   UNL     1     -40.079  52.802 -54.084  1.00  0.00    -0.038 A 
HETATM   11  C   UNL     1     -40.246  53.017 -52.687  1.00  0.00    -0.019 A 
HETATM   12  C   UNL     1     -40.111  51.912 -51.808  1.00  0.00    -0.025 A 
HETATM   13  C   UNL     1     -40.540  54.275 -52.112  1.00  0.00     0.013 A 
HETATM   14  C   UNL     1     -40.249  52.090 -50.422  1.00  0.00     0.012 A 
HETATM   15  C   UNL     1     -39.839  50.635 -52.323  1.00  0.00     0.012 A 
HETATM   16  C   UNL     1     -40.528  53.346 -49.886  1.00  0.00     0.001 A 
HETATM   17  C   UNL     1     -40.678  54.436 -50.731  1.00  0.00     0.001 A 
HETATM   18  C   UNL     1     -39.701  50.432 -53.692  1.00  0.00     0.001 A 
HETATM   19  C   UNL     1     -39.819  51.505 -54.566  1.00  0.00     0.008 A 
ENDBRANCH   9  10
ENDBRANCH   6   9
ENDBRANCH   2   5
BRANCH   1  20
HETATM   20  C   UNL     1     -44.367  57.328 -57.781  1.00  0.00     0.068 A 
HETATM   21  C   UNL     1     -45.403  58.108 -57.271  1.00  0.00     0.022 A 
HETATM   22  C   UNL     1     -45.476  59.028 -56.104  1.00  0.00     0.069 C 
HETATM   23  N   UNL     1     -46.492  57.942 -58.094  1.00  0.00    -0.358 N 
HETATM   24  H   UNL     1     -47.391  58.387 -57.967  1.00  0.00     0.166 HD
HETATM   25  C   UNL     1     -46.192  57.103 -59.139  1.00  0.00     0.043 A 
HETATM   26  C   UNL     1     -44.863  56.714 -58.982  1.00  0.00     0.008 A 
HETATM   27  C   UNL     1     -46.992  56.668 -60.202  1.00  0.00     0.030 A 
HETATM   28  C   UNL     1     -44.305  55.843 -59.941  1.00  0.00     0.015 A 
HETATM   29  C   UNL     1     -45.089  55.396 -61.011  1.00  0.00     0.001 A 
HETATM   30  C   UNL     1     -46.415  55.804 -61.136  1.00  0.00     0.002 A 
ENDBRANCH   1  20
TORSDOF 4
ENDMDL
MODEL 5
REMARK VINA RESULT:      -9.3      1.575      8.849
REMARK  4 active torsions:
REMARK  status: ('A' for Active; 'I' for Inactive)
REMARK    1  A    between atoms: C_7  and  C_8 
REMARK       I    between atoms: C_8  and  N_9 
REMARK    2  A    between atoms: N_9  and  N_10 
REMARK       I    between atoms: N_10  and  C_11 
REMARK    3  A    between atoms: C_11  and  C_12 
REMARK    4  A    between atoms: C_12  and  C_13 
ROOT
HETATM    1  C   UNL     1     -40.656  54.006 -54.751  1.00  0.00     0.273 C 
HETATM    2  N   UNL     1     -41.971  54.180 -55.146  1.00  0.00    -0.263 N 
HETATM    3  O   UNL     1     -39.712  54.413 -55.426  1.00  0.00    -0.266 OA
HETATM    4  H   UNL     1     -42.690  54.174 -54.424  1.00  0.00     0.190 HD
ENDROOT
BRANCH   2   5
HETATM    5  N   UNL     1     -42.223  55.067 -56.219  1.00  0.00    -0.267 N 
HETATM    6  C   UNL     1     -42.658  56.330 -55.879  1.00  0.00     0.240 C 
HETATM    7  O   UNL     1     -42.974  56.610 -54.718  1.00  0.00    -0.272 OA
HETATM    8  H   UNL     1     -41.645  54.919 -57.049  1.00  0.00     0.190 HD
BRANCH   6   9
HETATM    9  C   UNL     1     -42.810  57.347 -56.995  1.00  0.00     0.144 C 
BRANCH   9  10
HETATM   10  C   UNL     1     -44.194  57.518 -57.588  1.00  0.00    -0.038 A 
HETATM   11  C   UNL     1     -44.644  56.774 -58.715  1.00  0.00    -0.019 A 
HETATM   12  C   UNL     1     -45.949  57.020 -59.215  1.00  0.00    -0.025 A 
HETATM   13  C   UNL     1     -43.865  55.797 -59.377  1.00  0.00     0.013 A 
HETATM   14  C   UNL     1     -46.418  56.319 -60.338  1.00  0.00     0.012 A 
HETATM   15  C   UNL     1     -46.774  57.964 -58.586  1.00  0.00     0.012 A 
HETATM   16  C   UNL     1     -45.622  55.370 -60.975  1.00  0.00     0.001 A 
HETATM   17  C   UNL     1     -44.348  55.106 -60.492  1.00  0.00     0.001 A 
HETATM   18  C   UNL     1     -46.333  58.668 -57.471  1.00  0.00     0.001 A 
HETATM   19  C   UNL     1     -45.055  58.448 -56.975  1.00  0.00     0.008 A 
ENDBRANCH   9  10
ENDBRANCH   6   9
ENDBRANCH   2   5
BRANCH   1  20
HETATM   20  C   UNL     1     -40.495  53.365 -53.447  1.00  0.00     0.068 A 
HETATM   21  C   UNL     1     -40.651  53.943 -52.188  1.00  0.00     0.022 A 
HETATM   22  C   UNL     1     -41.066  55.307 -51.763  1.00  0.00     0.069 C 
HETATM   23  N   UNL     1     -40.375  52.976 -51.250  1.00  0.00    -0.358 N 
HETATM   24  H   UNL     1     -40.406  53.111 -50.249  1.00  0.00     0.166 HD
HETATM   25  C   UNL     1     -40.074  51.781 -51.854  1.00  0.00     0.043 A 
HETATM   26  C   UNL     1     -40.157  51.985 -53.230  1.00  0.00     0.008 A 
HETATM   27  C   UNL     1     -39.740  50.545 -51.287  1.00  0.00     0.030 A 
HETATM   28  C   UNL     1     -39.892  50.894 -54.084  1.00  0.00     0.015 A 
HETATM   29  C   UNL     1     -39.556  49.650 -53.537  1.00  0.00     0.001 A 
HETATM   30  C   UNL     1     -39.481  49.482 -52.157  1.00  0.00     0.002 A 
ENDBRANCH   1  20
TORSDOF 4
ENDMDL
MODEL 6
REMARK VINA RESULT:      -9.1      6.062      8.336
REMARK  4 active torsions:
REMARK  status: ('A' for Active; 'I' for Inactive)
REMARK    1  A    between atoms: C_7  and  C_8 
REMARK       I    between atoms: C_8  and  N_9 
REMARK    2  A    between atoms: N_9  and  N_10 
REMARK       I    between atoms: N_10  and  C_11 
REMARK    3  A    between atoms: C_11  and  C_12 
REMARK    4  A    between atoms: C_12  and  C_13 
ROOT
HETATM    1  C   UNL     1     -45.303  59.427 -50.255  1.00  0.00     0.273 C 
HETATM    2  N   UNL     1     -44.122  58.825 -50.650  1.00  0.00    -0.263 N 
HETATM    3  O   UNL     1     -46.372  58.821 -50.237  1.00  0.00    -0.266 OA
HETATM    4  H   UNL     1     -43.247  59.219 -50.306  1.00  0.00     0.190 HD
ENDROOT
BRANCH   2   5
HETATM    5  N   UNL     1     -44.117  57.417 -50.788  1.00  0.00    -0.267 N 
HETATM    6  C   UNL     1     -42.905  56.837 -51.098  1.00  0.00     0.240 C 
HETATM    7  O   UNL     1     -41.926  57.522 -51.407  1.00  0.00    -0.272 OA
HETATM    8  H   UNL     1     -44.801  56.922 -50.212  1.00  0.00     0.190 HD
BRANCH   6   9
HETATM    9  C   UNL     1     -42.836  55.321 -51.123  1.00  0.00     0.144 C 
BRANCH   9  10
HETATM   10  C   UNL     1     -42.609  54.663 -52.469  1.00  0.00    -0.038 A 
HETATM   11  C   UNL     1     -41.622  53.660 -52.676  1.00  0.00    -0.019 A 
HETATM   12  C   UNL     1     -41.465  53.118 -53.978  1.00  0.00    -0.025 A 
HETATM   13  C   UNL     1     -40.776  53.162 -51.658  1.00  0.00     0.013 A 
HETATM   14  C   UNL     1     -40.487  52.141 -54.224  1.00  0.00     0.012 A 
HETATM   15  C   UNL     1     -42.290  53.558 -55.024  1.00  0.00     0.012 A 
HETATM   16  C   UNL     1     -39.662  51.680 -53.201  1.00  0.00     0.001 A 
HETATM   17  C   UNL     1     -39.810  52.187 -51.918  1.00  0.00     0.001 A 
HETATM   18  C   UNL     1     -43.268  54.523 -54.806  1.00  0.00     0.001 A 
HETATM   19  C   UNL     1     -43.427  55.071 -53.540  1.00  0.00     0.008 A 
ENDBRANCH   9  10
ENDBRANCH   6   9
ENDBRANCH   2   5
BRANCH   1  20
HETATM   20  C   UNL     1     -45.155  60.811 -49.803  1.00  0.00     0.068 A 
HETATM   21  C   UNL     1     -44.898  61.938 -50.582  1.00  0.00     0.022 A 
HETATM   22  C   UNL     1     -44.754  62.122 -52.051  1.00  0.00     0.069 C 
HETATM   23  N   UNL     1     -44.813  63.018 -49.734  1.00  0.00    -0.358 N 
HETATM   24  H   UNL     1     -44.632  63.970 -50.021  1.00  0.00     0.166 HD
HETATM   25  C   UNL     1     -45.036  62.637 -48.434  1.00  0.00     0.043 A 
HETATM   26  C   UNL     1     -45.271  61.263 -48.445  1.00  0.00     0.008 A 
HETATM   27  C   UNL     1     -45.050  63.403 -47.262  1.00  0.00     0.030 A 
HETATM   28  C   UNL     1     -45.533  60.622 -47.215  1.00  0.00     0.015 A 
HETATM   29  C   UNL     1     -45.550  61.370 -46.033  1.00  0.00     0.001 A 
HETATM   30  C   UNL     1     -45.310  62.741 -46.059  1.00  0.00     0.002 A 
ENDBRANCH   1  20
TORSDOF 4
ENDMDL
MODEL 7
REMARK VINA RESULT:      -9.0      2.169      8.409
REMARK  4 active torsions:
REMARK  status: ('A' for Active; 'I' for Inactive)
REMARK    1  A    between atoms: C_7  and  C_8 
REMARK       I    between atoms: C_8  and  N_9 
REMARK    2  A    between atoms: N_9  and  N_10 
REMARK       I    between atoms: N_10  and  C_11 
REMARK    3  A    between atoms: C_11  and  C_12 
REMARK    4  A    between atoms: C_12  and  C_13 
ROOT
HETATM    1  C   UNL     1     -41.663  54.212 -54.424  1.00  0.00     0.273 C 
HETATM    2  N   UNL     1     -43.032  54.355 -54.289  1.00  0.00    -0.263 N 
HETATM    3  O   UNL     1     -41.046  54.686 -55.376  1.00  0.00    -0.266 OA
HETATM    4  H   UNL     1     -43.429  54.287 -53.352  1.00  0.00     0.190 HD
ENDROOT
BRANCH   2   5
HETATM    5  N   UNL     1     -43.682  55.283 -55.136  1.00  0.00    -0.267 N 
HETATM    6  C   UNL     1     -43.927  56.531 -54.602  1.00  0.00     0.240 C 
HETATM    7  O   UNL     1     -43.747  56.763 -53.403  1.00  0.00    -0.272 OA
HETATM    8  H   UNL     1     -43.488  55.170 -56.133  1.00  0.00     0.190 HD
BRANCH   6   9
HETATM    9  C   UNL     1     -44.501  57.591 -55.524  1.00  0.00     0.144 C 
BRANCH   9  10
HETATM   10  C   UNL     1     -43.525  58.329 -56.418  1.00  0.00    -0.038 A 
HETATM   11  C   UNL     1     -43.107  57.823 -57.681  1.00  0.00    -0.019 A 
HETATM   12  C   UNL     1     -42.171  58.573 -58.438  1.00  0.00    -0.025 A 
HETATM   13  C   UNL     1     -43.569  56.607 -58.236  1.00  0.00     0.013 A 
HETATM   14  C   UNL     1     -41.720  58.094 -59.679  1.00  0.00     0.012 A 
HETATM   15  C   UNL     1     -41.693  59.797 -57.947  1.00  0.00     0.012 A 
HETATM   16  C   UNL     1     -42.186  56.886 -60.193  1.00  0.00     0.001 A 
HETATM   17  C   UNL     1     -43.114  56.146 -59.474  1.00  0.00     0.001 A 
HETATM   18  C   UNL     1     -42.126  60.294 -56.723  1.00  0.00     0.001 A 
HETATM   19  C   UNL     1     -43.034  59.567 -55.964  1.00  0.00     0.008 A 
ENDBRANCH   9  10
ENDBRANCH   6   9
ENDBRANCH   2   5
BRANCH   1  20
HETATM   20  C   UNL     1     -41.015  53.514 -53.314  1.00  0.00     0.068 A 
HETATM   21  C   UNL     1     -40.760  54.002 -52.033  1.00  0.00     0.022 A 
HETATM   22  C   UNL     1     -41.090  55.294 -51.375  1.00  0.00     0.069 C 
HETATM   23  N   UNL     1     -40.110  53.012 -51.333  1.00  0.00    -0.358 N 
HETATM   24  H   UNL     1     -39.799  53.086 -50.374  1.00  0.00     0.166 HD
HETATM   25  C   UNL     1     -39.960  51.886 -52.105  1.00  0.00     0.043 A 
HETATM   26  C   UNL     1     -40.532  52.161 -53.346  1.00  0.00     0.008 A 
HETATM   27  C   UNL     1     -39.369  50.656 -51.794  1.00  0.00     0.030 A 
HETATM   28  C   UNL     1     -40.509  51.150 -54.329  1.00  0.00     0.015 A 
HETATM   29  C   UNL     1     -39.922  49.913 -54.039  1.00  0.00     0.001 A 
HETATM   30  C   UNL     1     -39.359  49.673 -52.788  1.00  0.00     0.002 A 
ENDBRANCH   1  20
TORSDOF 4
ENDMDL
MODEL 8
REMARK VINA RESULT:      -8.9      1.646      9.134
REMARK  4 active torsions:
REMARK  status: ('A' for Active; 'I' for Inactive)
REMARK    1  A    between atoms: C_7  and  C_8 
REMARK       I    between atoms: C_8  and  N_9 
REMARK    2  A    between atoms: N_9  and  N_10 
REMARK       I    between atoms: N_10  and  C_11 
REMARK    3  A    between atoms: C_11  and  C_12 
REMARK    4  A    between atoms: C_12  and  C_13 
ROOT
HETATM    1  C   UNL     1     -42.549  54.615 -54.965  1.00  0.00     0.273 C 
HETATM    2  N   UNL     1     -41.873  55.654 -55.580  1.00  0.00    -0.263 N 
HETATM    3  O   UNL     1     -43.465  54.011 -55.520  1.00  0.00    -0.266 OA
HETATM    4  H   UNL     1     -40.927  55.862 -55.262  1.00  0.00     0.190 HD
ENDROOT
BRANCH   2   5
HETATM    5  N   UNL     1     -42.080  55.841 -56.967  1.00  0.00    -0.267 N 
HETATM    6  C   UNL     1     -42.559  57.076 -57.352  1.00  0.00     0.240 C 
HETATM    7  O   UNL     1     -42.947  57.902 -56.521  1.00  0.00    -0.272 OA
HETATM    8  H   UNL     1     -41.454  55.311 -57.575  1.00  0.00     0.190 HD
BRANCH   6   9
HETATM    9  C   UNL     1     -42.668  57.356 -58.839  1.00  0.00     0.144 C 
BRANCH   9  10
HETATM   10  C   UNL     1     -43.887  56.811 -59.557  1.00  0.00    -0.038 A 
HETATM   11  C   UNL     1     -45.049  57.596 -59.799  1.00  0.00    -0.019 A 
HETATM   12  C   UNL     1     -46.152  56.992 -60.457  1.00  0.00    -0.025 A 
HETATM   13  C   UNL     1     -45.179  58.953 -59.421  1.00  0.00     0.013 A 
HETATM   14  C   UNL     1     -47.323  57.730 -60.694  1.00  0.00     0.012 A 
HETATM   15  C   UNL     1     -46.073  55.655 -60.874  1.00  0.00     0.012 A 
HETATM   16  C   UNL     1     -47.423  59.062 -60.299  1.00  0.00     0.001 A 
HETATM   17  C   UNL     1     -46.350  59.674 -59.667  1.00  0.00     0.001 A 
HETATM   18  C   UNL     1     -44.923  54.904 -60.653  1.00  0.00     0.001 A 
HETATM   19  C   UNL     1     -43.839  55.476 -60.000  1.00  0.00     0.008 A 
ENDBRANCH   9  10
ENDBRANCH   6   9
ENDBRANCH   2   5
BRANCH   1  20
HETATM   20  C   UNL     1     -42.039  54.263 -53.639  1.00  0.00     0.068 A 
HETATM   21  C   UNL     1     -42.379  54.837 -52.416  1.00  0.00     0.022 A 
HETATM   22  C   UNL     1     -43.356  55.897 -52.050  1.00  0.00     0.069 C 
HETATM   23  N   UNL     1     -41.636  54.211 -51.443  1.00  0.00    -0.358 N 
HETATM   24  H   UNL     1     -41.673  54.424 -50.455  1.00  0.00     0.166 HD
HETATM   25  C   UNL     1     -40.846  53.228 -51.987  1.00  0.00     0.043 A 
HETATM   26  C   UNL     1     -41.089  53.223 -53.360  1.00  0.00     0.008 A 
HETATM   27  C   UNL     1     -39.948  52.351 -51.369  1.00  0.00     0.030 A 
HETATM   28  C   UNL     1     -40.392  52.289 -54.156  1.00  0.00     0.015 A 
HETATM   29  C   UNL     1     -39.489  51.403 -53.557  1.00  0.00     0.001 A 
HETATM   30  C   UNL     1     -39.272  51.437 -52.182  1.00  0.00     0.002 A 
ENDBRANCH   1  20
TORSDOF 4
ENDMDL
MODEL 9
REMARK VINA RESULT:      -8.9      2.006      8.686
REMARK  4 active torsions:
REMARK  status: ('A' for Active; 'I' for Inactive)
REMARK    1  A    between atoms: C_7  and  C_8 
REMARK       I    between atoms: C_8  and  N_9 
REMARK    2  A    between atoms: N_9  and  N_10 
REMARK       I    between atoms: N_10  and  C_11 
REMARK    3  A    between atoms: C_11  and  C_12 
REMARK    4  A    between atoms: C_12  and  C_13 
ROOT
HETATM    1  C   UNL     1     -42.392  55.842 -53.359  1.00  0.00     0.273 C 
HETATM    2  N   UNL     1     -41.701  56.696 -54.200  1.00  0.00    -0.263 N 
HETATM    3  O   UNL     1     -43.621  55.813 -53.323  1.00  0.00    -0.266 OA
HETATM    4  H   UNL     1     -40.752  56.437 -54.466  1.00  0.00     0.190 HD
ENDROOT
BRANCH   2   5
HETATM    5  N   UNL     1     -42.436  57.357 -55.212  1.00  0.00    -0.267 N 
HETATM    6  C   UNL     1     -42.118  58.680 -55.434  1.00  0.00     0.240 C 
HETATM    7  O   UNL     1     -41.361  59.294 -54.675  1.00  0.00    -0.272 OA
HETATM    8  H   UNL     1     -42.751  56.760 -55.979  1.00  0.00     0.190 HD
BRANCH   6   9
HETATM    9  C   UNL     1     -42.791  59.381 -56.599  1.00  0.00     0.144 C 
BRANCH   9  10
HETATM   10  C   UNL     1     -43.008  58.569 -57.860  1.00  0.00    -0.038 A 
HETATM   11  C   UNL     1     -44.296  58.135 -58.282  1.00  0.00    -0.019 A 
HETATM   12  C   UNL     1     -44.397  57.358 -59.465  1.00  0.00    -0.025 A 
HETATM   13  C   UNL     1     -45.494  58.429 -57.591  1.00  0.00     0.013 A 
HETATM   14  C   UNL     1     -45.650  56.895 -59.900  1.00  0.00     0.012 A 
HETATM   15  C   UNL     1     -43.245  57.051 -60.203  1.00  0.00     0.012 A 
HETATM   16  C   UNL     1     -46.811  57.193 -59.189  1.00  0.00     0.001 A 
HETATM   17  C   UNL     1     -46.733  57.964 -58.039  1.00  0.00     0.001 A 
HETATM   18  C   UNL     1     -41.994  57.500 -59.795  1.00  0.00     0.001 A 
HETATM   19  C   UNL     1     -41.875  58.253 -58.634  1.00  0.00     0.008 A 
ENDBRANCH   9  10
ENDBRANCH   6   9
ENDBRANCH   2   5
BRANCH   1  20
HETATM   20  C   UNL     1     -41.543  54.944 -52.576  1.00  0.00     0.068 A 
HETATM   21  C   UNL     1     -41.092  55.123 -51.270  1.00  0.00     0.022 A 
HETATM   22  C   UNL     1     -41.348  56.187 -50.263  1.00  0.00     0.069 C 
HETATM   23  N   UNL     1     -40.300  54.043 -50.953  1.00  0.00    -0.358 N 
HETATM   24  H   UNL     1     -39.834  53.903 -50.067  1.00  0.00     0.166 HD
HETATM   25  C   UNL     1     -40.246  53.154 -51.998  1.00  0.00     0.043 A 
HETATM   26  C   UNL     1     -41.028  53.680 -53.024  1.00  0.00     0.008 A 
HETATM   27  C   UNL     1     -39.570  51.933 -52.105  1.00  0.00     0.030 A 
HETATM   28  C   UNL     1     -41.138  52.944 -54.223  1.00  0.00     0.015 A 
HETATM   29  C   UNL     1     -40.470  51.721 -54.350  1.00  0.00     0.001 A 
HETATM   30  C   UNL     1     -39.696  51.226 -53.304  1.00  0.00     0.002 A 
ENDBRANCH   1  20
TORSDOF 4
ENDMDL
MODEL 10
REMARK VINA RESULT:      -8.8      2.325      8.703
REMARK  4 active torsions:
REMARK  status: ('A' for Active; 'I' for Inactive)
REMARK    1  A    between atoms: C_7  and  C_8 
REMARK       I    between atoms: C_8  and  N_9 
REMARK    2  A    between atoms: N_9  and  N_10 
REMARK       I    between atoms: N_10  and  C_11 
REMARK    3  A    between atoms: C_11  and  C_12 
REMARK    4  A    between atoms: C_12  and  C_13 
ROOT
HETATM    1  C   UNL     1     -41.670  54.204 -54.203  1.00  0.00     0.273 C 
HETATM    2  N   UNL     1     -43.042  54.343 -54.087  1.00  0.00    -0.263 N 
HETATM    3  O   UNL     1     -41.052  54.611 -55.185  1.00  0.00    -0.266 OA
HETATM    4  H   UNL     1     -43.443  54.343 -53.150  1.00  0.00     0.190 HD
ENDROOT
BRANCH   2   5
HETATM    5  N   UNL     1     -43.695  55.197 -55.006  1.00  0.00    -0.267 N 
HETATM    6  C   UNL     1     -43.981  56.470 -54.561  1.00  0.00     0.240 C 
HETATM    7  O   UNL     1     -43.832  56.785 -53.376  1.00  0.00    -0.272 OA
HETATM    8  H   UNL     1     -43.477  55.024 -55.989  1.00  0.00     0.190 HD
BRANCH   6   9
HETATM    9  C   UNL     1     -44.561  57.453 -55.562  1.00  0.00     0.144 C 
BRANCH   9  10
HETATM   10  C   UNL     1     -43.579  58.193 -56.449  1.00  0.00    -0.038 A 
HETATM   11  C   UNL     1     -43.143  57.683 -57.703  1.00  0.00    -0.019 A 
HETATM   12  C   UNL     1     -42.203  58.435 -58.454  1.00  0.00    -0.025 A 
HETATM   13  C   UNL     1     -43.589  56.460 -58.257  1.00  0.00     0.013 A 
HETATM   14  C   UNL     1     -41.735  57.953 -59.687  1.00  0.00     0.012 A 
HETATM   15  C   UNL     1     -41.740  59.666 -57.965  1.00  0.00     0.012 A 
HETATM   16  C   UNL     1     -42.186  56.738 -60.199  1.00  0.00     0.001 A 
HETATM   17  C   UNL     1     -43.116  55.995 -59.486  1.00  0.00     0.001 A 
HETATM   18  C   UNL     1     -42.191  60.167 -56.748  1.00  0.00     0.001 A 
HETATM   19  C   UNL     1     -43.103  59.438 -55.996  1.00  0.00     0.008 A 
ENDBRANCH   9  10
ENDBRANCH   6   9
ENDBRANCH   2   5
BRANCH   1  20
HETATM   20  C   UNL     1     -41.022  53.599 -53.039  1.00  0.00     0.068 A 
HETATM   21  C   UNL     1     -40.319  52.397 -52.985  1.00  0.00     0.022 A 
HETATM   22  C   UNL     1     -39.954  51.408 -54.034  1.00  0.00     0.069 C 
HETATM   23  N   UNL     1     -39.911  52.213 -51.685  1.00  0.00    -0.358 N 
HETATM   24  H   UNL     1     -39.379  51.422 -51.348  1.00  0.00     0.166 HD
HETATM   25  C   UNL     1     -40.299  53.269 -50.897  1.00  0.00     0.043 A 
HETATM   26  C   UNL     1     -40.982  54.163 -51.718  1.00  0.00     0.008 A 
HETATM   27  C   UNL     1     -40.092  53.495 -49.531  1.00  0.00     0.030 A 
HETATM   28  C   UNL     1     -41.487  55.347 -51.140  1.00  0.00     0.015 A 
HETATM   29  C   UNL     1     -41.293  55.591 -49.776  1.00  0.00     0.001 A 
HETATM   30  C   UNL     1     -40.605  54.675 -48.985  1.00  0.00     0.002 A 
ENDBRANCH   1  20
TORSDOF 4
ENDMDL
