MODEL 1
REMARK VINA RESULT:      -8.9      0.000      0.000
REMARK  6 active torsions:
REMARK  status: ('A' for Active; 'I' for Inactive)
REMARK    1  A    between atoms: C_2  and  S_3 
REMARK    2  A    between atoms: S_3  and  C_4 
REMARK    3  A    between atoms: C_5  and  C_6 
REMARK       I    between atoms: C_6  and  N_7 
REMARK    4  A    between atoms: N_7  and  C_8 
REMARK    5  A    between atoms: N_9  and  C_10 
REMARK    6  A    between atoms: C_22  and  C_23 
ROOT
HETATM    1  C   UNL     1     -40.902  54.966 -54.726  1.00  0.00     0.152 A 
HETATM    2  N   UNL     1     -41.261  55.181 -53.402  1.00  0.00    -0.044 N 
HETATM    3  N   UNL     1     -40.987  54.103 -52.603  1.00  0.00    -0.148 NA
HETATM    4  C   UNL     1     -40.470  53.201 -53.447  1.00  0.00     0.115 A 
HETATM    5  C   UNL     1     -40.366  53.699 -54.761  1.00  0.00     0.087 A 
ENDROOT
BRANCH   1   6
HETATM    6  N   UNL     1     -41.136  55.900 -55.726  1.00  0.00    -0.307 N 
HETATM    7  C   UNL     1     -42.381  56.103 -56.285  1.00  0.00     0.258 C 
HETATM    8  O   UNL     1     -43.390  55.430 -56.102  1.00  0.00    -0.267 OA
HETATM    9  H   UNL     1     -40.360  56.513 -55.991  1.00  0.00     0.170 HD
BRANCH   7  10
HETATM   10  C   UNL     1     -42.501  57.336 -57.096  1.00  0.00     0.049 A 
HETATM   11  C   UNL     1     -42.651  57.349 -58.490  1.00  0.00     0.016 A 
HETATM   12  C   UNL     1     -42.703  58.587 -59.149  1.00  0.00     0.019 A 
HETATM   13  C   UNL     1     -42.632  59.785 -58.432  1.00  0.00     0.001 A 
HETATM   14  C   UNL     1     -42.511  59.764 -57.047  1.00  0.00     0.001 A 
HETATM   15  C   UNL     1     -42.448  58.543 -56.379  1.00  0.00     0.018 A 
BRANCH  11  16
HETATM   16  S   UNL     1     -42.841  55.884 -59.497  1.00  0.00    -0.129 SA
BRANCH  16  17
HETATM   17  C   UNL     1     -44.643  55.980 -59.770  1.00  0.00     0.075 C 
HETATM   18  C   UNL     1     -45.031  55.167 -60.991  1.00  0.00     0.016 C 
ENDBRANCH  16  17
ENDBRANCH  11  16
ENDBRANCH   7  10
ENDBRANCH   1   6
BRANCH   2  19
HETATM   19  C   UNL     1     -41.890  56.309 -52.839  1.00  0.00     0.732 A 
HETATM   20  N   UNL     1     -41.529  57.528 -53.086  1.00  0.00    -0.067 NA
HETATM   21  C   UNL     1     -42.263  58.515 -52.461  1.00  0.00     0.065 A 
HETATM   22  C   UNL     1     -43.303  58.282 -51.637  1.00  0.00     0.036 A 
HETATM   23  C   UNL     1     -41.832  59.929 -52.782  1.00  0.00     0.060 C 
HETATM   24  C   UNL     1     -44.102  59.349 -50.948  1.00  0.00     0.046 C 
HETATM   25  C   UNL     1     -43.690  56.872 -51.386  1.00  0.00     0.268 A 
HETATM   26  C   UNL     1     -43.447  60.729 -51.025  1.00  0.00     0.005 C 
HETATM   27  C   UNL     1     -42.874  60.987 -52.413  1.00  0.00     0.006 C 
HETATM   28  O   UNL     1     -44.634  56.568 -50.668  1.00  0.00    -0.267 OA
HETATM   29  N   UNL     1     -42.922  55.948 -52.019  1.00  0.00    -0.152 N 
HETATM   30  H   UNL     1     -43.137  54.963 -51.898  1.00  0.00     0.188 HD
ENDBRANCH   2  19
BRANCH   4  31
HETATM   31  C   UNL     1     -40.088  51.822 -53.024  1.00  0.00     0.105 A 
HETATM   32  O   UNL     1     -39.788  51.463 -51.738  1.00  0.00    -0.320 OA
HETATM   33  C   UNL     1     -39.461  50.146 -51.751  1.00  0.00     0.142 A 
HETATM   34  C   UNL     1     -39.546  49.641 -53.027  1.00  0.00     0.027 A 
HETATM   35  C   UNL     1     -39.955  50.721 -53.848  1.00  0.00     0.041 A 
ENDBRANCH   4  31
TORSDOF 6
ENDMDL
MODEL 2
REMARK VINA RESULT:      -8.7      2.735      7.039
REMARK  6 active torsions:
REMARK  status: ('A' for Active; 'I' for Inactive)
REMARK    1  A    between atoms: C_2  and  S_3 
REMARK    2  A    between atoms: S_3  and  C_4 
REMARK    3  A    between atoms: C_5  and  C_6 
REMARK       I    between atoms: C_6  and  N_7 
REMARK    4  A    between atoms: N_7  and  C_8 
REMARK    5  A    between atoms: N_9  and  C_10 
REMARK    6  A    between atoms: C_22  and  C_23 
ROOT
HETATM    1  C   UNL     1     -42.233  55.669 -55.604  1.00  0.00     0.152 A 
HETATM    2  N   UNL     1     -42.668  56.955 -55.309  1.00  0.00    -0.044 N 
HETATM    3  N   UNL     1     -43.373  57.518 -56.338  1.00  0.00    -0.148 NA
HETATM    4  C   UNL     1     -43.358  56.577 -57.291  1.00  0.00     0.115 A 
HETATM    5  C   UNL     1     -42.696  55.406 -56.873  1.00  0.00     0.087 A 
ENDROOT
BRANCH   1   6
HETATM    6  N   UNL     1     -41.452  54.924 -54.730  1.00  0.00    -0.307 N 
HETATM    7  C   UNL     1     -41.991  54.125 -53.742  1.00  0.00     0.258 C 
HETATM    8  O   UNL     1     -43.168  54.062 -53.404  1.00  0.00    -0.267 OA
HETATM    9  H   UNL     1     -40.442  54.913 -54.891  1.00  0.00     0.170 HD
BRANCH   7  10
HETATM   10  C   UNL     1     -41.035  53.176 -53.126  1.00  0.00     0.049 A 
HETATM   11  C   UNL     1     -40.535  53.300 -51.822  1.00  0.00     0.016 A 
HETATM   12  C   UNL     1     -39.594  52.362 -51.371  1.00  0.00     0.019 A 
HETATM   13  C   UNL     1     -39.179  51.310 -52.193  1.00  0.00     0.001 A 
HETATM   14  C   UNL     1     -39.701  51.178 -53.476  1.00  0.00     0.001 A 
HETATM   15  C   UNL     1     -40.629  52.106 -53.941  1.00  0.00     0.018 A 
BRANCH  11  16
HETATM   16  S   UNL     1     -41.058  54.550 -50.656  1.00  0.00    -0.129 SA
BRANCH  16  17
HETATM   17  C   UNL     1     -39.739  54.326 -49.415  1.00  0.00     0.075 C 
HETATM   18  C   UNL     1     -40.342  53.967 -48.069  1.00  0.00     0.016 C 
ENDBRANCH  16  17
ENDBRANCH  11  16
ENDBRANCH   7  10
ENDBRANCH   1   6
BRANCH   2  19
HETATM   19  C   UNL     1     -42.426  57.714 -54.147  1.00  0.00     0.732 A 
HETATM   20  N   UNL     1     -41.330  57.644 -53.460  1.00  0.00    -0.067 NA
HETATM   21  C   UNL     1     -41.253  58.467 -52.357  1.00  0.00     0.065 A 
HETATM   22  C   UNL     1     -42.226  59.316 -51.973  1.00  0.00     0.036 A 
HETATM   23  C   UNL     1     -39.955  58.379 -51.585  1.00  0.00     0.060 C 
HETATM   24  C   UNL     1     -42.154  60.211 -50.770  1.00  0.00     0.046 C 
HETATM   25  C   UNL     1     -43.463  59.374 -52.791  1.00  0.00     0.268 A 
HETATM   26  C   UNL     1     -40.992  59.864 -49.838  1.00  0.00     0.005 C 
HETATM   27  C   UNL     1     -39.728  59.551 -50.629  1.00  0.00     0.006 C 
HETATM   28  O   UNL     1     -44.390  60.129 -52.529  1.00  0.00    -0.267 OA
HETATM   29  N   UNL     1     -43.483  58.530 -53.855  1.00  0.00    -0.152 N 
HETATM   30  H   UNL     1     -44.296  58.524 -54.463  1.00  0.00     0.188 HD
ENDBRANCH   2  19
BRANCH   4  31
HETATM   31  C   UNL     1     -43.953  56.785 -58.644  1.00  0.00     0.105 A 
HETATM   32  O   UNL     1     -44.486  57.967 -59.081  1.00  0.00    -0.320 OA
HETATM   33  C   UNL     1     -44.953  57.761 -60.338  1.00  0.00     0.142 A 
HETATM   34  C   UNL     1     -44.728  56.462 -60.728  1.00  0.00     0.027 A 
HETATM   35  C   UNL     1     -44.079  55.833 -59.637  1.00  0.00     0.041 A 
ENDBRANCH   4  31
TORSDOF 6
ENDMDL
MODEL 3
REMARK VINA RESULT:      -8.7      1.789      2.812
REMARK  6 active torsions:
REMARK  status: ('A' for Active; 'I' for Inactive)
REMARK    1  A    between atoms: C_2  and  S_3 
REMARK    2  A    between atoms: S_3  and  C_4 
REMARK    3  A    between atoms: C_5  and  C_6 
REMARK       I    between atoms: C_6  and  N_7 
REMARK    4  A    between atoms: N_7  and  C_8 
REMARK    5  A    between atoms: N_9  and  C_10 
REMARK    6  A    between atoms: C_22  and  C_23 
ROOT
HETATM    1  C   UNL     1     -41.072  54.525 -54.901  1.00  0.00     0.152 A 
HETATM    2  N   UNL     1     -41.156  55.029 -53.610  1.00  0.00    -0.044 N 
HETATM    3  N   UNL     1     -40.761  54.120 -52.665  1.00  0.00    -0.148 NA
HETATM    4  C   UNL     1     -40.448  53.031 -53.378  1.00  0.00     0.115 A 
HETATM    5  C   UNL     1     -40.591  53.242 -54.764  1.00  0.00     0.087 A 
ENDROOT
BRANCH   1   6
HETATM    6  N   UNL     1     -41.471  55.250 -56.015  1.00  0.00    -0.307 N 
HETATM    7  C   UNL     1     -42.701  55.080 -56.617  1.00  0.00     0.258 C 
HETATM    8  O   UNL     1     -43.531  54.213 -56.368  1.00  0.00    -0.267 OA
HETATM    9  H   UNL     1     -40.849  55.994 -56.342  1.00  0.00     0.170 HD
BRANCH   7  10
HETATM   10  C   UNL     1     -43.069  56.144 -57.580  1.00  0.00     0.049 A 
HETATM   11  C   UNL     1     -43.836  57.271 -57.252  1.00  0.00     0.016 A 
HETATM   12  C   UNL     1     -44.160  58.182 -58.269  1.00  0.00     0.019 A 
HETATM   13  C   UNL     1     -43.709  57.988 -59.578  1.00  0.00     0.001 A 
HETATM   14  C   UNL     1     -42.925  56.882 -59.889  1.00  0.00     0.001 A 
HETATM   15  C   UNL     1     -42.603  55.963 -58.893  1.00  0.00     0.018 A 
BRANCH  11  16
HETATM   16  S   UNL     1     -44.392  57.666 -55.599  1.00  0.00    -0.129 SA
BRANCH  16  17
HETATM   17  C   UNL     1     -44.052  59.459 -55.626  1.00  0.00     0.075 C 
HETATM   18  C   UNL     1     -45.288  60.232 -55.202  1.00  0.00     0.016 C 
ENDBRANCH  16  17
ENDBRANCH  11  16
ENDBRANCH   7  10
ENDBRANCH   1   6
BRANCH   2  19
HETATM   19  C   UNL     1     -41.628  56.290 -53.192  1.00  0.00     0.732 A 
HETATM   20  N   UNL     1     -42.791  56.476 -52.652  1.00  0.00    -0.067 NA
HETATM   21  C   UNL     1     -43.088  57.772 -52.289  1.00  0.00     0.065 A 
HETATM   22  C   UNL     1     -42.258  58.819 -52.460  1.00  0.00     0.036 A 
HETATM   23  C   UNL     1     -44.443  57.958 -51.643  1.00  0.00     0.060 C 
HETATM   24  C   UNL     1     -42.577  60.234 -52.075  1.00  0.00     0.046 C 
HETATM   25  C   UNL     1     -40.932  58.564 -53.075  1.00  0.00     0.268 A 
HETATM   26  C   UNL     1     -44.054  60.443 -51.738  1.00  0.00     0.005 C 
HETATM   27  C   UNL     1     -44.594  59.289 -50.903  1.00  0.00     0.006 C 
HETATM   28  O   UNL     1     -40.106  59.450 -53.250  1.00  0.00    -0.267 OA
HETATM   29  N   UNL     1     -40.704  57.270 -53.421  1.00  0.00    -0.152 N 
HETATM   30  H   UNL     1     -39.813  57.022 -53.840  1.00  0.00     0.188 HD
ENDBRANCH   2  19
BRANCH   4  31
HETATM   31  C   UNL     1     -40.031  51.744 -52.750  1.00  0.00     0.105 A 
HETATM   32  O   UNL     1     -39.907  50.559 -53.423  1.00  0.00    -0.320 OA
HETATM   33  C   UNL     1     -39.543  49.615 -52.519  1.00  0.00     0.142 A 
HETATM   34  C   UNL     1     -39.426  50.168 -51.266  1.00  0.00     0.027 A 
HETATM   35  C   UNL     1     -39.737  51.543 -51.415  1.00  0.00     0.041 A 
ENDBRANCH   4  31
TORSDOF 6
ENDMDL
MODEL 4
REMARK VINA RESULT:      -8.5      3.013      8.323
REMARK  6 active torsions:
REMARK  status: ('A' for Active; 'I' for Inactive)
REMARK    1  A    between atoms: C_2  and  S_3 
REMARK    2  A    between atoms: S_3  and  C_4 
REMARK    3  A    between atoms: C_5  and  C_6 
REMARK       I    between atoms: C_6  and  N_7 
REMARK    4  A    between atoms: N_7  and  C_8 
REMARK    5  A    between atoms: N_9  and  C_10 
REMARK    6  A    between atoms: C_22  and  C_23 
ROOT
HETATM    1  C   UNL     1     -43.401  57.491 -53.210  1.00  0.00     0.152 A 
HETATM    2  N   UNL     1     -43.560  58.349 -54.291  1.00  0.00    -0.044 N 
HETATM    3  N   UNL     1     -44.226  59.497 -53.955  1.00  0.00    -0.148 NA
HETATM    4  C   UNL     1     -44.501  59.340 -52.654  1.00  0.00     0.115 A 
HETATM    5  C   UNL     1     -43.983  58.134 -52.141  1.00  0.00     0.087 A 
ENDROOT
BRANCH   1   6
HETATM    6  N   UNL     1     -42.803  56.244 -53.326  1.00  0.00    -0.307 N 
HETATM    7  C   UNL     1     -41.436  56.075 -53.422  1.00  0.00     0.258 C 
HETATM    8  O   UNL     1     -40.592  56.954 -53.558  1.00  0.00    -0.267 OA
HETATM    9  H   UNL     1     -43.407  55.422 -53.253  1.00  0.00     0.170 HD
BRANCH   7  10
HETATM   10  C   UNL     1     -40.970  54.684 -53.221  1.00  0.00     0.049 A 
HETATM   11  C   UNL     1     -40.763  54.098 -51.964  1.00  0.00     0.016 A 
HETATM   12  C   UNL     1     -40.271  52.785 -51.908  1.00  0.00     0.019 A 
HETATM   13  C   UNL     1     -40.013  52.064 -53.078  1.00  0.00     0.001 A 
HETATM   14  C   UNL     1     -40.248  52.643 -54.320  1.00  0.00     0.001 A 
HETATM   15  C   UNL     1     -40.728  53.949 -54.393  1.00  0.00     0.018 A 
BRANCH  11  16
HETATM   16  S   UNL     1     -41.140  54.892 -50.407  1.00  0.00    -0.129 SA
BRANCH  16  17
HETATM   17  C   UNL     1     -39.761  54.213 -49.422  1.00  0.00     0.075 C 
HETATM   18  C   UNL     1     -40.222  53.924 -48.005  1.00  0.00     0.016 C 
ENDBRANCH  16  17
ENDBRANCH  11  16
ENDBRANCH   7  10
ENDBRANCH   1   6
BRANCH   2  19
HETATM   19  C   UNL     1     -43.175  58.147 -55.631  1.00  0.00     0.732 A 
HETATM   20  N   UNL     1     -43.505  57.102 -56.322  1.00  0.00    -0.067 NA
HETATM   21  C   UNL     1     -43.056  57.070 -57.625  1.00  0.00     0.065 A 
HETATM   22  C   UNL     1     -42.318  58.041 -58.197  1.00  0.00     0.036 A 
HETATM   23  C   UNL     1     -43.472  55.849 -58.413  1.00  0.00     0.060 C 
HETATM   24  C   UNL     1     -41.818  58.012 -59.613  1.00  0.00     0.046 C 
HETATM   25  C   UNL     1     -41.967  59.226 -57.376  1.00  0.00     0.268 A 
HETATM   26  C   UNL     1     -41.968  56.639 -60.270  1.00  0.00     0.005 C 
HETATM   27  C   UNL     1     -43.313  56.011 -59.926  1.00  0.00     0.006 C 
HETATM   28  O   UNL     1     -41.318  60.165 -57.820  1.00  0.00    -0.267 OA
HETATM   29  N   UNL     1     -42.428  59.191 -56.099  1.00  0.00    -0.152 N 
HETATM   30  H   UNL     1     -42.232  59.974 -55.483  1.00  0.00     0.188 HD
ENDBRANCH   2  19
BRANCH   4  31
HETATM   31  C   UNL     1     -45.296  60.329 -51.870  1.00  0.00     0.105 A 
HETATM   32  O   UNL     1     -45.131  60.568 -50.532  1.00  0.00    -0.320 OA
HETATM   33  C   UNL     1     -46.048  61.501 -50.171  1.00  0.00     0.142 A 
HETATM   34  C   UNL     1     -46.806  61.876 -51.255  1.00  0.00     0.027 A 
HETATM   35  C   UNL     1     -46.319  61.123 -52.352  1.00  0.00     0.041 A 
ENDBRANCH   4  31
TORSDOF 6
ENDMDL
MODEL 5
REMARK VINA RESULT:      -8.5      1.217      1.577
REMARK  6 active torsions:
REMARK  status: ('A' for Active; 'I' for Inactive)
REMARK    1  A    between atoms: C_2  and  S_3 
REMARK    2  A    between atoms: S_3  and  C_4 
REMARK    3  A    between atoms: C_5  and  C_6 
REMARK       I    between atoms: C_6  and  N_7 
REMARK    4  A    between atoms: N_7  and  C_8 
REMARK    5  A    between atoms: N_9  and  C_10 
REMARK    6  A    between atoms: C_22  and  C_23 
ROOT
HETATM    1  C   UNL     1     -41.040  55.262 -54.922  1.00  0.00     0.152 A 
HETATM    2  N   UNL     1     -41.245  55.442 -53.561  1.00  0.00    -0.044 N 
HETATM    3  N   UNL     1     -40.925  54.329 -52.831  1.00  0.00    -0.148 NA
HETATM    4  C   UNL     1     -40.536  53.441 -53.754  1.00  0.00     0.115 A 
HETATM    5  C   UNL     1     -40.556  53.980 -55.056  1.00  0.00     0.087 A 
ENDROOT
BRANCH   1   6
HETATM    6  N   UNL     1     -41.347  56.237 -55.862  1.00  0.00    -0.307 N 
HETATM    7  C   UNL     1     -42.582  56.327 -56.471  1.00  0.00     0.258 C 
HETATM    8  O   UNL     1     -43.503  55.521 -56.394  1.00  0.00    -0.267 OA
HETATM    9  H   UNL     1     -40.645  56.961 -56.038  1.00  0.00     0.170 HD
BRANCH   7  10
HETATM   10  C   UNL     1     -42.823  57.597 -57.193  1.00  0.00     0.049 A 
HETATM   11  C   UNL     1     -42.771  57.729 -58.588  1.00  0.00     0.016 A 
HETATM   12  C   UNL     1     -42.969  59.000 -59.150  1.00  0.00     0.019 A 
HETATM   13  C   UNL     1     -43.237  60.109 -58.342  1.00  0.00     0.001 A 
HETATM   14  C   UNL     1     -43.315  59.963 -56.960  1.00  0.00     0.001 A 
HETATM   15  C   UNL     1     -43.111  58.710 -56.387  1.00  0.00     0.018 A 
BRANCH  11  16
HETATM   16  S   UNL     1     -42.524  56.370 -59.722  1.00  0.00    -0.129 SA
BRANCH  16  17
HETATM   17  C   UNL     1     -44.274  55.929 -59.995  1.00  0.00     0.075 C 
HETATM   18  C   UNL     1     -44.492  54.453 -59.714  1.00  0.00     0.016 C 
ENDBRANCH  16  17
ENDBRANCH  11  16
ENDBRANCH   7  10
ENDBRANCH   1   6
BRANCH   2  19
HETATM   19  C   UNL     1     -41.769  56.570 -52.898  1.00  0.00     0.732 A 
HETATM   20  N   UNL     1     -43.035  56.835 -52.826  1.00  0.00    -0.067 NA
HETATM   21  C   UNL     1     -43.377  57.972 -52.126  1.00  0.00     0.065 A 
HETATM   22  C   UNL     1     -42.489  58.793 -51.530  1.00  0.00     0.036 A 
HETATM   23  C   UNL     1     -44.862  58.247 -52.041  1.00  0.00     0.060 C 
HETATM   24  C   UNL     1     -42.852  60.037 -50.773  1.00  0.00     0.046 C 
HETATM   25  C   UNL     1     -41.049  58.451 -51.628  1.00  0.00     0.268 A 
HETATM   26  C   UNL     1     -44.306  60.462 -50.983  1.00  0.00     0.005 C 
HETATM   27  C   UNL     1     -45.238  59.258 -50.956  1.00  0.00     0.006 C 
HETATM   28  O   UNL     1     -40.175  59.127 -51.101  1.00  0.00    -0.267 OA
HETATM   29  N   UNL     1     -40.777  57.327 -52.341  1.00  0.00    -0.152 N 
HETATM   30  H   UNL     1     -39.812  57.029 -52.441  1.00  0.00     0.188 HD
ENDBRANCH   2  19
BRANCH   4  31
HETATM   31  C   UNL     1     -40.160  52.036 -53.418  1.00  0.00     0.105 A 
HETATM   32  O   UNL     1     -39.736  51.623 -52.184  1.00  0.00    -0.320 OA
HETATM   33  C   UNL     1     -39.459  50.297 -52.273  1.00  0.00     0.142 A 
HETATM   34  C   UNL     1     -39.699  49.841 -53.547  1.00  0.00     0.027 A 
HETATM   35  C   UNL     1     -40.155  50.961 -54.285  1.00  0.00     0.041 A 
ENDBRANCH   4  31
TORSDOF 6
ENDMDL
MODEL 6
REMARK VINA RESULT:      -8.4      2.139      5.832
REMARK  6 active torsions:
REMARK  status: ('A' for Active; 'I' for Inactive)
REMARK    1  A    between atoms: C_2  and  S_3 
REMARK    2  A    between atoms: S_3  and  C_4 
REMARK    3  A    between atoms: C_5  and  C_6 
REMARK       I    between atoms: C_6  and  N_7 
REMARK    4  A    between atoms: N_7  and  C_8 
REMARK    5  A    between atoms: N_9  and  C_10 
REMARK    6  A    between atoms: C_22  and  C_23 
ROOT
HETATM    1  C   UNL     1     -42.629  55.107 -53.368  1.00  0.00     0.152 A 
HETATM    2  N   UNL     1     -42.140  55.083 -54.667  1.00  0.00    -0.044 N 
HETATM    3  N   UNL     1     -41.388  53.968 -54.923  1.00  0.00    -0.148 NA
HETATM    4  C   UNL     1     -41.395  53.302 -53.762  1.00  0.00     0.115 A 
HETATM    5  C   UNL     1     -42.175  53.947 -52.781  1.00  0.00     0.087 A 
ENDROOT
BRANCH   1   6
HETATM    6  N   UNL     1     -43.372  56.168 -52.867  1.00  0.00    -0.307 N 
HETATM    7  C   UNL     1     -43.098  56.766 -51.654  1.00  0.00     0.258 C 
HETATM    8  O   UNL     1     -42.295  56.386 -50.808  1.00  0.00    -0.267 OA
HETATM    9  H   UNL     1     -44.097  56.563 -53.470  1.00  0.00     0.170 HD
BRANCH   7  10
HETATM   10  C   UNL     1     -43.783  58.061 -51.435  1.00  0.00     0.049 A 
HETATM   11  C   UNL     1     -43.155  59.310 -51.544  1.00  0.00     0.016 A 
HETATM   12  C   UNL     1     -43.903  60.464 -51.262  1.00  0.00     0.019 A 
HETATM   13  C   UNL     1     -45.251  60.377 -50.904  1.00  0.00     0.001 A 
HETATM   14  C   UNL     1     -45.874  59.135 -50.826  1.00  0.00     0.001 A 
HETATM   15  C   UNL     1     -45.143  57.979 -51.094  1.00  0.00     0.018 A 
BRANCH  11  16
HETATM   16  S   UNL     1     -41.465  59.547 -52.077  1.00  0.00    -0.129 SA
BRANCH  16  17
HETATM   17  C   UNL     1     -40.668  59.561 -50.435  1.00  0.00     0.075 C 
HETATM   18  C   UNL     1     -39.158  59.533 -50.586  1.00  0.00     0.016 C 
ENDBRANCH  16  17
ENDBRANCH  11  16
ENDBRANCH   7  10
ENDBRANCH   1   6
BRANCH   2  19
HETATM   19  C   UNL     1     -42.285  56.058 -55.674  1.00  0.00     0.732 A 
HETATM   20  N   UNL     1     -42.158  57.330 -55.463  1.00  0.00    -0.067 NA
HETATM   21  C   UNL     1     -42.318  58.145 -56.564  1.00  0.00     0.065 A 
HETATM   22  C   UNL     1     -42.588  57.699 -57.806  1.00  0.00     0.036 A 
HETATM   23  C   UNL     1     -42.145  59.623 -56.293  1.00  0.00     0.060 C 
HETATM   24  C   UNL     1     -42.771  58.579 -59.008  1.00  0.00     0.046 C 
HETATM   25  C   UNL     1     -42.718  56.235 -58.008  1.00  0.00     0.268 A 
HETATM   26  C   UNL     1     -42.919  60.058 -58.648  1.00  0.00     0.005 C 
HETATM   27  C   UNL     1     -41.934  60.458 -57.557  1.00  0.00     0.006 C 
HETATM   28  O   UNL     1     -42.941  55.740 -59.106  1.00  0.00    -0.267 OA
HETATM   29  N   UNL     1     -42.562  55.488 -56.884  1.00  0.00    -0.152 N 
HETATM   30  H   UNL     1     -42.630  54.477 -56.952  1.00  0.00     0.188 HD
ENDBRANCH   2  19
BRANCH   4  31
HETATM   31  C   UNL     1     -40.628  52.040 -53.547  1.00  0.00     0.105 A 
HETATM   32  O   UNL     1     -39.985  51.714 -52.384  1.00  0.00    -0.320 OA
HETATM   33  C   UNL     1     -39.377  50.516 -52.579  1.00  0.00     0.142 A 
HETATM   34  C   UNL     1     -39.618  50.056 -53.851  1.00  0.00     0.027 A 
HETATM   35  C   UNL     1     -40.428  51.036 -54.476  1.00  0.00     0.041 A 
ENDBRANCH   4  31
TORSDOF 6
ENDMDL
MODEL 7
REMARK VINA RESULT:      -8.3      2.477      5.875
REMARK  6 active torsions:
REMARK  status: ('A' for Active; 'I' for Inactive)
REMARK    1  A    between atoms: C_2  and  S_3 
REMARK    2  A    between atoms: S_3  and  C_4 
REMARK    3  A    between atoms: C_5  and  C_6 
REMARK       I    between atoms: C_6  and  N_7 
REMARK    4  A    between atoms: N_7  and  C_8 
REMARK    5  A    between atoms: N_9  and  C_10 
REMARK    6  A    between atoms: C_22  and  C_23 
ROOT
HETATM    1  C   UNL     1     -42.238  56.039 -54.060  1.00  0.00     0.152 A 
HETATM    2  N   UNL     1     -42.173  55.474 -55.327  1.00  0.00    -0.044 N 
HETATM    3  N   UNL     1     -41.617  54.223 -55.315  1.00  0.00    -0.148 NA
HETATM    4  C   UNL     1     -41.316  54.018 -54.027  1.00  0.00     0.115 A 
HETATM    5  C   UNL     1     -41.710  55.095 -53.208  1.00  0.00     0.087 A 
ENDROOT
BRANCH   1   6
HETATM    6  N   UNL     1     -42.714  57.324 -53.836  1.00  0.00    -0.307 N 
HETATM    7  C   UNL     1     -41.881  58.414 -53.684  1.00  0.00     0.258 C 
HETATM    8  O   UNL     1     -40.659  58.401 -53.581  1.00  0.00    -0.267 OA
HETATM    9  H   UNL     1     -43.726  57.465 -53.871  1.00  0.00     0.170 HD
BRANCH   7  10
HETATM   10  C   UNL     1     -42.561  59.727 -53.769  1.00  0.00     0.049 A 
HETATM   11  C   UNL     1     -43.266  60.318 -52.711  1.00  0.00     0.016 A 
HETATM   12  C   UNL     1     -43.911  61.544 -52.935  1.00  0.00     0.019 A 
HETATM   13  C   UNL     1     -43.834  62.179 -54.178  1.00  0.00     0.001 A 
HETATM   14  C   UNL     1     -43.109  61.600 -55.214  1.00  0.00     0.001 A 
HETATM   15  C   UNL     1     -42.471  60.378 -55.011  1.00  0.00     0.018 A 
BRANCH  11  16
HETATM   16  S   UNL     1     -43.359  59.641 -51.059  1.00  0.00    -0.129 SA
BRANCH  16  17
HETATM   17  C   UNL     1     -41.916  60.497 -50.340  1.00  0.00     0.075 C 
HETATM   18  C   UNL     1     -40.742  59.541 -50.228  1.00  0.00     0.016 C 
ENDBRANCH  16  17
ENDBRANCH  11  16
ENDBRANCH   7  10
ENDBRANCH   1   6
BRANCH   2  19
HETATM   19  C   UNL     1     -42.549  56.045 -56.559  1.00  0.00     0.732 A 
HETATM   20  N   UNL     1     -42.277  57.266 -56.896  1.00  0.00    -0.067 NA
HETATM   21  C   UNL     1     -42.707  57.660 -58.145  1.00  0.00     0.065 A 
HETATM   22  C   UNL     1     -43.372  56.864 -59.005  1.00  0.00     0.036 A 
HETATM   23  C   UNL     1     -42.359  59.083 -58.520  1.00  0.00     0.060 C 
HETATM   24  C   UNL     1     -43.851  57.286 -60.364  1.00  0.00     0.046 C 
HETATM   25  C   UNL     1     -43.658  55.470 -58.586  1.00  0.00     0.268 A 
HETATM   26  C   UNL     1     -43.780  58.799 -60.578  1.00  0.00     0.005 C 
HETATM   27  C   UNL     1     -42.484  59.372 -60.017  1.00  0.00     0.006 C 
HETATM   28  O   UNL     1     -44.238  54.671 -59.310  1.00  0.00    -0.267 OA
HETATM   29  N   UNL     1     -43.220  55.148 -57.341  1.00  0.00    -0.152 N 
HETATM   30  H   UNL     1     -43.375  54.206 -56.993  1.00  0.00     0.188 HD
ENDBRANCH   2  19
BRANCH   4  31
HETATM   31  C   UNL     1     -40.612  52.793 -53.545  1.00  0.00     0.105 A 
HETATM   32  O   UNL     1     -40.105  52.638 -52.283  1.00  0.00    -0.320 OA
HETATM   33  C   UNL     1     -39.515  51.417 -52.231  1.00  0.00     0.142 A 
HETATM   34  C   UNL     1     -39.632  50.774 -53.440  1.00  0.00     0.027 A 
HETATM   35  C   UNL     1     -40.343  51.659 -54.287  1.00  0.00     0.041 A 
ENDBRANCH   4  31
TORSDOF 6
ENDMDL
MODEL 8
REMARK VINA RESULT:      -8.2      2.293      6.519
REMARK  6 active torsions:
REMARK  status: ('A' for Active; 'I' for Inactive)
REMARK    1  A    between atoms: C_2  and  S_3 
REMARK    2  A    between atoms: S_3  and  C_4 
REMARK    3  A    between atoms: C_5  and  C_6 
REMARK       I    between atoms: C_6  and  N_7 
REMARK    4  A    between atoms: N_7  and  C_8 
REMARK    5  A    between atoms: N_9  and  C_10 
REMARK    6  A    between atoms: C_22  and  C_23 
ROOT
HETATM    1  C   UNL     1     -42.285  56.588 -54.679  1.00  0.00     0.152 A 
HETATM    2  N   UNL     1     -43.053  57.743 -54.621  1.00  0.00    -0.044 N 
HETATM    3  N   UNL     1     -43.393  58.210 -55.863  1.00  0.00    -0.148 NA
HETATM    4  C   UNL     1     -42.812  57.344 -56.702  1.00  0.00     0.115 A 
HETATM    5  C   UNL     1     -42.145  56.306 -56.020  1.00  0.00     0.087 A 
ENDROOT
BRANCH   1   6
HETATM    6  N   UNL     1     -41.779  55.967 -53.545  1.00  0.00    -0.307 N 
HETATM    7  C   UNL     1     -42.460  54.974 -52.870  1.00  0.00     0.258 C 
HETATM    8  O   UNL     1     -43.614  54.606 -53.065  1.00  0.00    -0.267 OA
HETATM    9  H   UNL     1     -40.827  56.208 -53.260  1.00  0.00     0.170 HD
BRANCH   7  10
HETATM   10  C   UNL     1     -41.643  54.222 -51.890  1.00  0.00     0.049 A 
HETATM   11  C   UNL     1     -40.775  53.175 -52.231  1.00  0.00     0.016 A 
HETATM   12  C   UNL     1     -40.093  52.507 -51.202  1.00  0.00     0.019 A 
HETATM   13  C   UNL     1     -40.253  52.890 -49.867  1.00  0.00     0.001 A 
HETATM   14  C   UNL     1     -41.094  53.949 -49.541  1.00  0.00     0.001 A 
HETATM   15  C   UNL     1     -41.786  54.616 -50.549  1.00  0.00     0.018 A 
BRANCH  11  16
HETATM   16  S   UNL     1     -40.426  52.658 -53.906  1.00  0.00    -0.129 SA
BRANCH  16  17
HETATM   17  C   UNL     1     -39.423  51.181 -53.526  1.00  0.00     0.075 C 
HETATM   18  C   UNL     1     -39.854  50.017 -54.399  1.00  0.00     0.016 C 
ENDBRANCH  16  17
ENDBRANCH  11  16
ENDBRANCH   7  10
ENDBRANCH   1   6
BRANCH   2  19
HETATM   19  C   UNL     1     -43.451  58.473 -53.483  1.00  0.00     0.732 A 
HETATM   20  N   UNL     1     -43.010  59.658 -53.201  1.00  0.00    -0.067 NA
HETATM   21  C   UNL     1     -43.514  60.235 -52.055  1.00  0.00     0.065 A 
HETATM   22  C   UNL     1     -44.414  59.648 -51.242  1.00  0.00     0.036 A 
HETATM   23  C   UNL     1     -42.997  61.625 -51.761  1.00  0.00     0.060 C 
HETATM   24  C   UNL     1     -44.962  60.266 -49.989  1.00  0.00     0.046 C 
HETATM   25  C   UNL     1     -44.901  58.294 -51.603  1.00  0.00     0.268 A 
HETATM   26  C   UNL     1     -44.187  61.508 -49.546  1.00  0.00     0.005 C 
HETATM   27  C   UNL     1     -43.840  62.390 -50.738  1.00  0.00     0.006 C 
HETATM   28  O   UNL     1     -45.733  57.695 -50.935  1.00  0.00    -0.267 OA
HETATM   29  N   UNL     1     -44.358  57.776 -52.735  1.00  0.00    -0.152 N 
HETATM   30  H   UNL     1     -44.653  56.856 -53.046  1.00  0.00     0.188 HD
ENDBRANCH   2  19
BRANCH   4  31
HETATM   31  C   UNL     1     -42.852  57.501 -58.185  1.00  0.00     0.105 A 
HETATM   32  O   UNL     1     -43.795  56.932 -58.998  1.00  0.00    -0.320 OA
HETATM   33  C   UNL     1     -43.487  57.272 -60.275  1.00  0.00     0.142 A 
HETATM   34  C   UNL     1     -42.359  58.057 -60.306  1.00  0.00     0.027 A 
HETATM   35  C   UNL     1     -41.951  58.209 -58.957  1.00  0.00     0.041 A 
ENDBRANCH   4  31
TORSDOF 6
ENDMDL
MODEL 9
REMARK VINA RESULT:      -8.1      1.875      2.199
REMARK  6 active torsions:
REMARK  status: ('A' for Active; 'I' for Inactive)
REMARK    1  A    between atoms: C_2  and  S_3 
REMARK    2  A    between atoms: S_3  and  C_4 
REMARK    3  A    between atoms: C_5  and  C_6 
REMARK       I    between atoms: C_6  and  N_7 
REMARK    4  A    between atoms: N_7  and  C_8 
REMARK    5  A    between atoms: N_9  and  C_10 
REMARK    6  A    between atoms: C_22  and  C_23 
ROOT
HETATM    1  C   UNL     1     -43.151  55.545 -54.957  1.00  0.00     0.152 A 
HETATM    2  N   UNL     1     -42.730  55.991 -53.712  1.00  0.00    -0.044 N 
HETATM    3  N   UNL     1     -41.845  55.131 -53.119  1.00  0.00    -0.148 NA
HETATM    4  C   UNL     1     -41.731  54.129 -54.000  1.00  0.00     0.115 A 
HETATM    5  C   UNL     1     -42.492  54.354 -55.164  1.00  0.00     0.087 A 
ENDROOT
BRANCH   1   6
HETATM    6  N   UNL     1     -44.090  56.227 -55.719  1.00  0.00    -0.307 N 
HETATM    7  C   UNL     1     -43.767  57.310 -56.511  1.00  0.00     0.258 C 
HETATM    8  O   UNL     1     -42.692  57.898 -56.554  1.00  0.00    -0.267 OA
HETATM    9  H   UNL     1     -45.040  55.849 -55.747  1.00  0.00     0.170 HD
BRANCH   7  10
HETATM   10  C   UNL     1     -44.817  57.703 -57.478  1.00  0.00     0.049 A 
HETATM   11  C   UNL     1     -44.710  57.536 -58.866  1.00  0.00     0.016 A 
HETATM   12  C   UNL     1     -45.756  57.997 -59.681  1.00  0.00     0.019 A 
HETATM   13  C   UNL     1     -46.893  58.588 -59.124  1.00  0.00     0.001 A 
HETATM   14  C   UNL     1     -47.004  58.725 -57.744  1.00  0.00     0.001 A 
HETATM   15  C   UNL     1     -45.970  58.281 -56.922  1.00  0.00     0.018 A 
BRANCH  11  16
HETATM   16  S   UNL     1     -43.345  56.717 -59.681  1.00  0.00    -0.129 SA
BRANCH  16  17
HETATM   17  C   UNL     1     -43.918  54.995 -59.492  1.00  0.00     0.075 C 
HETATM   18  C   UNL     1     -44.882  54.638 -60.609  1.00  0.00     0.016 C 
ENDBRANCH  16  17
ENDBRANCH  11  16
ENDBRANCH   7  10
ENDBRANCH   1   6
BRANCH   2  19
HETATM   19  C   UNL     1     -43.137  57.145 -53.013  1.00  0.00     0.732 A 
HETATM   20  N   UNL     1     -42.550  58.295 -53.124  1.00  0.00    -0.067 NA
HETATM   21  C   UNL     1     -43.086  59.323 -52.379  1.00  0.00     0.065 A 
HETATM   22  C   UNL     1     -44.156  59.197 -51.570  1.00  0.00     0.036 A 
HETATM   23  C   UNL     1     -42.393  60.658 -52.543  1.00  0.00     0.060 C 
HETATM   24  C   UNL     1     -44.742  60.310 -50.750  1.00  0.00     0.046 C 
HETATM   25  C   UNL     1     -44.806  57.867 -51.476  1.00  0.00     0.268 A 
HETATM   26  C   UNL     1     -43.837  61.540 -50.680  1.00  0.00     0.005 C 
HETATM   27  C   UNL     1     -43.218  61.844 -52.039  1.00  0.00     0.006 C 
HETATM   28  O   UNL     1     -45.794  57.666 -50.782  1.00  0.00    -0.267 OA
HETATM   29  N   UNL     1     -44.223  56.894 -52.223  1.00  0.00    -0.152 N 
HETATM   30  H   UNL     1     -44.622  55.960 -52.212  1.00  0.00     0.188 HD
ENDBRANCH   2  19
BRANCH   4  31
HETATM   31  C   UNL     1     -40.913  52.910 -53.737  1.00  0.00     0.105 A 
HETATM   32  O   UNL     1     -40.772  51.869 -54.615  1.00  0.00    -0.320 OA
HETATM   33  C   UNL     1     -39.987  50.938 -54.017  1.00  0.00     0.142 A 
HETATM   34  C   UNL     1     -39.612  51.358 -52.763  1.00  0.00     0.027 A 
HETATM   35  C   UNL     1     -40.206  52.631 -52.583  1.00  0.00     0.041 A 
ENDBRANCH   4  31
TORSDOF 6
ENDMDL
MODEL 10
REMARK VINA RESULT:      -8.1      2.063      5.409
REMARK  6 active torsions:
REMARK  status: ('A' for Active; 'I' for Inactive)
REMARK    1  A    between atoms: C_2  and  S_3 
REMARK    2  A    between atoms: S_3  and  C_4 
REMARK    3  A    between atoms: C_5  and  C_6 
REMARK       I    between atoms: C_6  and  N_7 
REMARK    4  A    between atoms: N_7  and  C_8 
REMARK    5  A    between atoms: N_9  and  C_10 
REMARK    6  A    between atoms: C_22  and  C_23 
ROOT
HETATM    1  C   UNL     1     -41.579  55.372 -53.385  1.00  0.00     0.152 A 
HETATM    2  N   UNL     1     -41.769  54.990 -54.706  1.00  0.00    -0.044 N 
HETATM    3  N   UNL     1     -41.411  53.688 -54.933  1.00  0.00    -0.148 NA
HETATM    4  C   UNL     1     -40.973  53.264 -53.740  1.00  0.00     0.115 A 
HETATM    5  C   UNL     1     -41.089  54.255 -52.746  1.00  0.00     0.087 A 
ENDROOT
BRANCH   1   6
HETATM    6  N   UNL     1     -41.823  56.663 -52.936  1.00  0.00    -0.307 N 
HETATM    7  C   UNL     1     -42.663  56.939 -51.876  1.00  0.00     0.258 C 
HETATM    8  O   UNL     1     -43.397  56.150 -51.291  1.00  0.00    -0.267 OA
HETATM    9  H   UNL     1     -41.288  57.421 -53.365  1.00  0.00     0.170 HD
BRANCH   7  10
HETATM   10  C   UNL     1     -42.555  58.318 -51.347  1.00  0.00     0.049 A 
HETATM   11  C   UNL     1     -43.535  59.306 -51.523  1.00  0.00     0.016 A 
HETATM   12  C   UNL     1     -43.291  60.592 -51.015  1.00  0.00     0.019 A 
HETATM   13  C   UNL     1     -42.108  60.879 -50.326  1.00  0.00     0.001 A 
HETATM   14  C   UNL     1     -41.155  59.885 -50.132  1.00  0.00     0.001 A 
HETATM   15  C   UNL     1     -41.378  58.607 -50.638  1.00  0.00     0.018 A 
BRANCH  11  16
HETATM   16  S   UNL     1     -45.117  59.030 -52.308  1.00  0.00    -0.129 SA
BRANCH  16  17
HETATM   17  C   UNL     1     -44.553  59.008 -54.043  1.00  0.00     0.075 C 
HETATM   18  C   UNL     1     -45.131  60.191 -54.797  1.00  0.00     0.016 C 
ENDBRANCH  16  17
ENDBRANCH  11  16
ENDBRANCH   7  10
ENDBRANCH   1   6
BRANCH   2  19
HETATM   19  C   UNL     1     -42.218  55.775 -55.787  1.00  0.00     0.732 A 
HETATM   20  N   UNL     1     -42.034  57.055 -55.868  1.00  0.00    -0.067 NA
HETATM   21  C   UNL     1     -42.525  57.666 -57.002  1.00  0.00     0.065 A 
HETATM   22  C   UNL     1     -43.163  57.021 -57.998  1.00  0.00     0.036 A 
HETATM   23  C   UNL     1     -42.279  59.157 -57.079  1.00  0.00     0.060 C 
HETATM   24  C   UNL     1     -43.707  57.680 -59.232  1.00  0.00     0.046 C 
HETATM   25  C   UNL     1     -43.347  55.554 -57.872  1.00  0.00     0.268 A 
HETATM   26  C   UNL     1     -43.739  59.205 -59.129  1.00  0.00     0.005 C 
HETATM   27  C   UNL     1     -42.467  59.738 -58.482  1.00  0.00     0.006 C 
HETATM   28  O   UNL     1     -43.896  54.884 -58.737  1.00  0.00    -0.267 OA
HETATM   29  N   UNL     1     -42.853  55.014 -56.728  1.00  0.00    -0.152 N 
HETATM   30  H   UNL     1     -42.936  54.013 -56.580  1.00  0.00     0.188 HD
ENDBRANCH   2  19
BRANCH   4  31
HETATM   31  C   UNL     1     -40.403  51.902 -53.525  1.00  0.00     0.105 A 
HETATM   32  O   UNL     1     -39.914  51.448 -52.330  1.00  0.00    -0.320 OA
HETATM   33  C   UNL     1     -39.456  50.186 -52.532  1.00  0.00     0.142 A 
HETATM   34  C   UNL     1     -39.642  49.811 -53.842  1.00  0.00     0.027 A 
HETATM   35  C   UNL     1     -40.256  50.916 -54.482  1.00  0.00     0.041 A 
ENDBRANCH   4  31
TORSDOF 6
ENDMDL
