MODEL 1
REMARK VINA RESULT:      -7.6      0.000      0.000
REMARK  4 active torsions:
REMARK  status: ('A' for Active; 'I' for Inactive)
REMARK    1  A    between atoms: C_4  and  N_5 
REMARK    2  A    between atoms: N_5  and  N_6 
REMARK    3  A    between atoms: C_7  and  C_8 
REMARK    4  A    between atoms: C_9  and  O_10 
ROOT
HETATM    1  N   UNL     1     -42.053  55.652 -55.285  1.00  0.00    -0.172 NA
HETATM    2  C   UNL     1     -40.855  55.224 -55.025  1.00  0.00     0.153 C 
ENDROOT
BRANCH   1   3
HETATM    3  N   UNL     1     -42.101  56.651 -56.212  1.00  0.00    -0.108 N 
HETATM    4  H   UNL     1     -41.858  57.611 -55.973  1.00  0.00     0.208 HD
BRANCH   3   5
HETATM    5  C   UNL     1     -42.470  56.518 -57.526  1.00  0.00     0.723 A 
HETATM    6  N   UNL     1     -43.275  55.564 -57.891  1.00  0.00    -0.068 NA
HETATM    7  C   UNL     1     -43.602  55.476 -59.223  1.00  0.00     0.055 A 
HETATM    8  C   UNL     1     -44.521  54.349 -59.600  1.00  0.00     0.071 C 
HETATM    9  C   UNL     1     -43.141  56.313 -60.164  1.00  0.00     0.102 A 
HETATM   10  C   UNL     1     -42.242  57.395 -59.745  1.00  0.00     0.261 A 
HETATM   11  N   UNL     1     -41.959  57.419 -58.416  1.00  0.00    -0.153 N 
HETATM   12  O   UNL     1     -41.793  58.201 -60.549  1.00  0.00    -0.268 OA
HETATM   13  H   UNL     1     -41.346  58.136 -58.068  1.00  0.00     0.187 HD
ENDBRANCH   3   5
ENDBRANCH   1   3
BRANCH   2  14
HETATM   14  C   UNL     1     -40.609  54.142 -54.048  1.00  0.00     0.019 A 
HETATM   15  C   UNL     1     -40.691  54.344 -52.662  1.00  0.00     0.094 A 
HETATM   16  C   UNL     1     -40.449  53.275 -51.791  1.00  0.00     0.046 A 
HETATM   17 BR   UNL     1     -40.545  53.486 -49.908  1.00  0.00    -0.048 Br
HETATM   18  C   UNL     1     -40.127  52.013 -52.296  1.00  0.00     0.041 A 
HETATM   19  C   UNL     1     -40.048  51.823 -53.674  1.00  0.00     0.013 A 
HETATM   20 BR   UNL     1     -39.613  50.116 -54.360  1.00  0.00    -0.051 Br
HETATM   21  C   UNL     1     -40.286  52.878 -54.555  1.00  0.00     0.035 A 
BRANCH  15  22
HETATM   22  O   UNL     1     -41.005  55.567 -52.130  1.00  0.00    -0.358 OA
HETATM   23  H   UNL     1     -41.590  56.033 -52.763  1.00  0.00     0.218 HD
ENDBRANCH  15  22
ENDBRANCH   2  14
TORSDOF 4
ENDMDL
MODEL 2
REMARK VINA RESULT:      -7.5      1.323      2.047
REMARK  4 active torsions:
REMARK  status: ('A' for Active; 'I' for Inactive)
REMARK    1  A    between atoms: C_4  and  N_5 
REMARK    2  A    between atoms: N_5  and  N_6 
REMARK    3  A    between atoms: C_7  and  C_8 
REMARK    4  A    between atoms: C_9  and  O_10 
ROOT
HETATM    1  N   UNL     1     -42.636  55.485 -54.847  1.00  0.00    -0.172 NA
HETATM    2  C   UNL     1     -42.518  54.192 -54.852  1.00  0.00     0.153 C 
ENDROOT
BRANCH   1   3
HETATM    3  N   UNL     1     -43.528  55.968 -55.758  1.00  0.00    -0.108 N 
HETATM    4  H   UNL     1     -44.531  55.961 -55.576  1.00  0.00     0.208 HD
BRANCH   3   5
HETATM    5  C   UNL     1     -43.224  56.499 -56.984  1.00  0.00     0.723 A 
HETATM    6  N   UNL     1     -42.669  57.672 -57.076  1.00  0.00    -0.068 NA
HETATM    7  C   UNL     1     -42.396  58.155 -58.334  1.00  0.00     0.055 A 
HETATM    8  C   UNL     1     -41.770  59.519 -58.392  1.00  0.00     0.071 C 
HETATM    9  C   UNL     1     -42.668  57.491 -59.466  1.00  0.00     0.102 A 
HETATM   10  C   UNL     1     -43.284  56.163 -59.357  1.00  0.00     0.261 A 
HETATM   11  N   UNL     1     -43.529  55.751 -58.085  1.00  0.00    -0.153 N 
HETATM   12  O   UNL     1     -43.549  55.496 -60.350  1.00  0.00    -0.268 OA
HETATM   13  H   UNL     1     -43.953  54.850 -57.946  1.00  0.00     0.187 HD
ENDBRANCH   3   5
ENDBRANCH   1   3
BRANCH   2  14
HETATM   14  C   UNL     1     -41.599  53.490 -53.930  1.00  0.00     0.019 A 
HETATM   15  C   UNL     1     -41.286  53.985 -52.655  1.00  0.00     0.094 A 
HETATM   16  C   UNL     1     -40.410  53.269 -51.831  1.00  0.00     0.046 A 
HETATM   17 BR   UNL     1     -39.948  53.887 -50.097  1.00  0.00    -0.048 Br
HETATM   18  C   UNL     1     -39.848  52.069 -52.272  1.00  0.00     0.041 A 
HETATM   19  C   UNL     1     -40.166  51.585 -53.540  1.00  0.00     0.013 A 
HETATM   20 BR   UNL     1     -39.409  49.961 -54.139  1.00  0.00    -0.051 Br
HETATM   21  C   UNL     1     -41.037  52.287 -54.373  1.00  0.00     0.035 A 
BRANCH  15  22
HETATM   22  O   UNL     1     -41.817  55.159 -52.188  1.00  0.00    -0.358 OA
HETATM   23  H   UNL     1     -41.799  55.812 -52.918  1.00  0.00     0.218 HD
ENDBRANCH  15  22
ENDBRANCH   2  14
TORSDOF 4
ENDMDL
MODEL 3
REMARK VINA RESULT:      -7.0      1.389      1.661
REMARK  4 active torsions:
REMARK  status: ('A' for Active; 'I' for Inactive)
REMARK    1  A    between atoms: C_4  and  N_5 
REMARK    2  A    between atoms: N_5  and  N_6 
REMARK    3  A    between atoms: C_7  and  C_8 
REMARK    4  A    between atoms: C_9  and  O_10 
ROOT
HETATM    1  N   UNL     1     -42.485  55.834 -54.551  1.00  0.00    -0.172 NA
HETATM    2  C   UNL     1     -42.396  54.544 -54.665  1.00  0.00     0.153 C 
ENDROOT
BRANCH   1   3
HETATM    3  N   UNL     1     -43.336  56.418 -55.442  1.00  0.00    -0.108 N 
HETATM    4  H   UNL     1     -44.345  56.407 -55.300  1.00  0.00     0.208 HD
BRANCH   3   5
HETATM    5  C   UNL     1     -42.980  57.062 -56.598  1.00  0.00     0.723 A 
HETATM    6  N   UNL     1     -43.213  56.517 -57.756  1.00  0.00    -0.068 NA
HETATM    7  C   UNL     1     -42.825  57.207 -58.880  1.00  0.00     0.055 A 
HETATM    8  C   UNL     1     -43.101  56.531 -60.193  1.00  0.00     0.071 C 
HETATM    9  C   UNL     1     -42.223  58.404 -58.852  1.00  0.00     0.102 A 
HETATM   10  C   UNL     1     -41.972  59.021 -57.544  1.00  0.00     0.261 A 
HETATM   11  N   UNL     1     -42.378  58.281 -56.478  1.00  0.00    -0.153 N 
HETATM   12  O   UNL     1     -41.435  60.117 -57.445  1.00  0.00    -0.268 OA
HETATM   13  H   UNL     1     -42.230  58.650 -55.553  1.00  0.00     0.187 HD
ENDBRANCH   3   5
ENDBRANCH   1   3
BRANCH   2  14
HETATM   14  C   UNL     1     -41.523  53.742 -53.781  1.00  0.00     0.019 A 
HETATM   15  C   UNL     1     -41.173  54.157 -52.488  1.00  0.00     0.094 A 
HETATM   16  C   UNL     1     -40.345  53.347 -51.702  1.00  0.00     0.046 A 
HETATM   17 BR   UNL     1     -39.837  53.855 -49.945  1.00  0.00    -0.048 Br
HETATM   18  C   UNL     1     -39.866  52.134 -52.200  1.00  0.00     0.041 A 
HETATM   19  C   UNL     1     -40.220  51.730 -53.486  1.00  0.00     0.013 A 
HETATM   20 BR   UNL     1     -39.574  50.087 -54.161  1.00  0.00    -0.051 Br
HETATM   21  C   UNL     1     -41.044  52.525 -54.281  1.00  0.00     0.035 A 
BRANCH  15  22
HETATM   22  O   UNL     1     -41.624  55.341 -51.965  1.00  0.00    -0.358 OA
HETATM   23  H   UNL     1     -40.974  56.039 -52.191  1.00  0.00     0.218 HD
ENDBRANCH  15  22
ENDBRANCH   2  14
TORSDOF 4
ENDMDL
MODEL 4
REMARK VINA RESULT:      -6.9      1.533      2.166
REMARK  4 active torsions:
REMARK  status: ('A' for Active; 'I' for Inactive)
REMARK    1  A    between atoms: C_4  and  N_5 
REMARK    2  A    between atoms: N_5  and  N_6 
REMARK    3  A    between atoms: C_7  and  C_8 
REMARK    4  A    between atoms: C_9  and  O_10 
ROOT
HETATM    1  N   UNL     1     -42.751  56.285 -55.239  1.00  0.00    -0.172 NA
HETATM    2  C   UNL     1     -42.867  55.042 -54.883  1.00  0.00     0.153 C 
ENDROOT
BRANCH   1   3
HETATM    3  N   UNL     1     -43.636  56.677 -56.199  1.00  0.00    -0.108 N 
HETATM    4  H   UNL     1     -44.543  57.074 -55.957  1.00  0.00     0.208 HD
BRANCH   3   5
HETATM    5  C   UNL     1     -43.449  56.593 -57.554  1.00  0.00     0.723 A 
HETATM    6  N   UNL     1     -42.714  57.468 -58.174  1.00  0.00    -0.068 NA
HETATM    7  C   UNL     1     -42.570  57.336 -59.535  1.00  0.00     0.055 A 
HETATM    8  C   UNL     1     -41.725  58.379 -60.210  1.00  0.00     0.071 C 
HETATM    9  C   UNL     1     -43.142  56.362 -60.257  1.00  0.00     0.102 A 
HETATM   10  C   UNL     1     -43.962  55.370 -59.551  1.00  0.00     0.261 A 
HETATM   11  N   UNL     1     -44.063  55.564 -58.210  1.00  0.00    -0.153 N 
HETATM   12  O   UNL     1     -44.504  54.447 -60.147  1.00  0.00    -0.268 OA
HETATM   13  H   UNL     1     -44.614  54.918 -57.671  1.00  0.00     0.187 HD
ENDBRANCH   3   5
ENDBRANCH   1   3
BRANCH   2  14
HETATM   14  C   UNL     1     -41.993  54.442 -53.852  1.00  0.00     0.019 A 
HETATM   15  C   UNL     1     -41.831  55.008 -52.578  1.00  0.00     0.094 A 
HETATM   16  C   UNL     1     -40.990  54.387 -51.647  1.00  0.00     0.046 A 
HETATM   17 BR   UNL     1     -40.731  55.104 -49.910  1.00  0.00    -0.048 Br
HETATM   18  C   UNL     1     -40.314  53.211 -51.981  1.00  0.00     0.041 A 
HETATM   19  C   UNL     1     -40.482  52.657 -53.249  1.00  0.00     0.013 A 
HETATM   20 BR   UNL     1     -39.569  51.066 -53.702  1.00  0.00    -0.051 Br
HETATM   21  C   UNL     1     -41.316  53.264 -54.187  1.00  0.00     0.035 A 
BRANCH  15  22
HETATM   22  O   UNL     1     -42.478  56.160 -52.215  1.00  0.00    -0.358 OA
HETATM   23  H   UNL     1     -43.187  55.923 -51.581  1.00  0.00     0.218 HD
ENDBRANCH  15  22
ENDBRANCH   2  14
TORSDOF 4
ENDMDL
MODEL 5
REMARK VINA RESULT:      -6.9      1.696      3.162
REMARK  4 active torsions:
REMARK  status: ('A' for Active; 'I' for Inactive)
REMARK    1  A    between atoms: C_4  and  N_5 
REMARK    2  A    between atoms: N_5  and  N_6 
REMARK    3  A    between atoms: C_7  and  C_8 
REMARK    4  A    between atoms: C_9  and  O_10 
ROOT
HETATM    1  N   UNL     1     -43.231  55.100 -54.705  1.00  0.00    -0.172 NA
HETATM    2  C   UNL     1     -42.188  55.445 -54.015  1.00  0.00     0.153 C 
ENDROOT
BRANCH   1   3
HETATM    3  N   UNL     1     -43.785  56.114 -55.429  1.00  0.00    -0.108 N 
HETATM    4  H   UNL     1     -44.634  56.585 -55.122  1.00  0.00     0.208 HD
BRANCH   3   5
HETATM    5  C   UNL     1     -43.310  56.615 -56.613  1.00  0.00     0.723 A 
HETATM    6  N   UNL     1     -42.780  57.802 -56.661  1.00  0.00    -0.068 NA
HETATM    7  C   UNL     1     -42.329  58.253 -57.879  1.00  0.00     0.055 A 
HETATM    8  C   UNL     1     -41.739  59.635 -57.889  1.00  0.00     0.071 C 
HETATM    9  C   UNL     1     -42.405  57.546 -59.014  1.00  0.00     0.102 A 
HETATM   10  C   UNL     1     -42.994  56.202 -58.953  1.00  0.00     0.261 A 
HETATM   11  N   UNL     1     -43.421  55.823 -57.720  1.00  0.00    -0.153 N 
HETATM   12  O   UNL     1     -43.084  55.497 -59.950  1.00  0.00    -0.268 OA
HETATM   13  H   UNL     1     -43.837  54.913 -57.614  1.00  0.00     0.187 HD
ENDBRANCH   3   5
ENDBRANCH   1   3
BRANCH   2  14
HETATM   14  C   UNL     1     -41.455  54.476 -53.172  1.00  0.00     0.019 A 
HETATM   15  C   UNL     1     -40.938  53.275 -53.680  1.00  0.00     0.094 A 
HETATM   16  C   UNL     1     -40.251  52.402 -52.828  1.00  0.00     0.046 A 
HETATM   17 BR   UNL     1     -39.529  50.763 -53.456  1.00  0.00    -0.048 Br
HETATM   18  C   UNL     1     -40.080  52.722 -51.479  1.00  0.00     0.041 A 
HETATM   19  C   UNL     1     -40.597  53.918 -50.985  1.00  0.00     0.013 A 
HETATM   20 BR   UNL     1     -40.366  54.354 -49.160  1.00  0.00    -0.051 Br
HETATM   21  C   UNL     1     -41.284  54.798 -51.821  1.00  0.00     0.035 A 
BRANCH  15  22
HETATM   22  O   UNL     1     -41.086  52.928 -54.998  1.00  0.00    -0.358 OA
HETATM   23  H   UNL     1     -41.413  52.005 -55.034  1.00  0.00     0.218 HD
ENDBRANCH  15  22
ENDBRANCH   2  14
TORSDOF 4
ENDMDL
MODEL 6
REMARK VINA RESULT:      -6.5      1.474      2.661
REMARK  4 active torsions:
REMARK  status: ('A' for Active; 'I' for Inactive)
REMARK    1  A    between atoms: C_4  and  N_5 
REMARK    2  A    between atoms: N_5  and  N_6 
REMARK    3  A    between atoms: C_7  and  C_8 
REMARK    4  A    between atoms: C_9  and  O_10 
ROOT
HETATM    1  N   UNL     1     -42.310  56.266 -54.812  1.00  0.00    -0.172 NA
HETATM    2  C   UNL     1     -41.302  56.248 -53.995  1.00  0.00     0.153 C 
ENDROOT
BRANCH   1   3
HETATM    3  N   UNL     1     -42.468  57.444 -55.481  1.00  0.00    -0.108 N 
HETATM    4  H   UNL     1     -42.580  58.327 -54.986  1.00  0.00     0.208 HD
BRANCH   3   5
HETATM    5  C   UNL     1     -42.503  57.602 -56.843  1.00  0.00     0.723 A 
HETATM    6  N   UNL     1     -42.881  56.623 -57.611  1.00  0.00    -0.068 NA
HETATM    7  C   UNL     1     -42.887  56.839 -58.968  1.00  0.00     0.055 A 
HETATM    8  C   UNL     1     -43.315  55.674 -59.816  1.00  0.00     0.071 C 
HETATM    9  C   UNL     1     -42.527  57.994 -59.544  1.00  0.00     0.102 A 
HETATM   10  C   UNL     1     -42.112  59.100 -58.673  1.00  0.00     0.261 A 
HETATM   11  N   UNL     1     -42.127  58.815 -57.344  1.00  0.00    -0.153 N 
HETATM   12  O   UNL     1     -41.781  60.186 -59.131  1.00  0.00    -0.268 OA
HETATM   13  H   UNL     1     -41.849  59.533 -56.696  1.00  0.00     0.187 HD
ENDBRANCH   3   5
ENDBRANCH   1   3
BRANCH   2  14
HETATM   14  C   UNL     1     -40.975  55.054 -53.187  1.00  0.00     0.019 A 
HETATM   15  C   UNL     1     -40.568  53.841 -53.763  1.00  0.00     0.094 A 
HETATM   16  C   UNL     1     -40.271  52.749 -52.939  1.00  0.00     0.046 A 
HETATM   17 BR   UNL     1     -39.716  51.084 -53.659  1.00  0.00    -0.048 Br
HETATM   18  C   UNL     1     -40.378  52.863 -51.552  1.00  0.00     0.041 A 
HETATM   19  C   UNL     1     -40.783  54.071 -50.989  1.00  0.00     0.013 A 
HETATM   20 BR   UNL     1     -40.928  54.227 -49.111  1.00  0.00    -0.051 Br
HETATM   21  C   UNL     1     -41.083  55.168 -51.796  1.00  0.00     0.035 A 
BRANCH  15  22
HETATM   22  O   UNL     1     -40.451  53.693 -55.121  1.00  0.00    -0.358 OA
HETATM   23  H   UNL     1     -40.915  52.869 -55.377  1.00  0.00     0.218 HD
ENDBRANCH  15  22
ENDBRANCH   2  14
TORSDOF 4
ENDMDL
MODEL 7
REMARK VINA RESULT:      -6.5      3.865      7.724
REMARK  4 active torsions:
REMARK  status: ('A' for Active; 'I' for Inactive)
REMARK    1  A    between atoms: C_4  and  N_5 
REMARK    2  A    between atoms: N_5  and  N_6 
REMARK    3  A    between atoms: C_7  and  C_8 
REMARK    4  A    between atoms: C_9  and  O_10 
ROOT
HETATM    1  N   UNL     1     -41.192  55.829 -54.381  1.00  0.00    -0.172 NA
HETATM    2  C   UNL     1     -42.388  56.083 -54.815  1.00  0.00     0.153 C 
ENDROOT
BRANCH   1   3
HETATM    3  N   UNL     1     -41.131  55.526 -53.053  1.00  0.00    -0.108 N 
HETATM    4  H   UNL     1     -41.383  56.208 -52.339  1.00  0.00     0.208 HD
BRANCH   3   5
HETATM    5  C   UNL     1     -40.737  54.329 -52.514  1.00  0.00     0.723 A 
HETATM    6  N   UNL     1     -40.327  53.363 -53.282  1.00  0.00    -0.068 NA
HETATM    7  C   UNL     1     -39.953  52.183 -52.684  1.00  0.00     0.055 A 
HETATM    8  C   UNL     1     -39.502  51.091 -53.612  1.00  0.00     0.071 C 
HETATM    9  C   UNL     1     -39.988  51.971 -51.361  1.00  0.00     0.102 A 
HETATM   10  C   UNL     1     -40.441  53.068 -50.497  1.00  0.00     0.261 A 
HETATM   11  N   UNL     1     -40.797  54.202 -51.155  1.00  0.00    -0.153 N 
HETATM   12  O   UNL     1     -40.487  52.946 -49.279  1.00  0.00    -0.268 OA
HETATM   13  H   UNL     1     -41.120  54.988 -50.617  1.00  0.00     0.187 HD
ENDBRANCH   3   5
ENDBRANCH   1   3
BRANCH   2  14
HETATM   14  C   UNL     1     -42.647  56.428 -56.230  1.00  0.00     0.019 A 
HETATM   15  C   UNL     1     -43.254  55.535 -57.125  1.00  0.00     0.094 A 
HETATM   16  C   UNL     1     -43.473  55.926 -58.451  1.00  0.00     0.046 A 
HETATM   17 BR   UNL     1     -44.290  54.763 -59.709  1.00  0.00    -0.048 Br
HETATM   18  C   UNL     1     -43.088  57.197 -58.884  1.00  0.00     0.041 A 
HETATM   19  C   UNL     1     -42.486  58.077 -57.987  1.00  0.00     0.013 A 
HETATM   20 BR   UNL     1     -41.966  59.798 -58.571  1.00  0.00    -0.051 Br
HETATM   21  C   UNL     1     -42.262  57.702 -56.663  1.00  0.00     0.035 A 
BRANCH  15  22
HETATM   22  O   UNL     1     -43.645  54.280 -56.736  1.00  0.00    -0.358 OA
HETATM   23  H   UNL     1     -43.723  54.275 -55.759  1.00  0.00     0.218 HD
ENDBRANCH  15  22
ENDBRANCH   2  14
TORSDOF 4
ENDMDL
MODEL 8
REMARK VINA RESULT:      -6.5      2.252      2.670
REMARK  4 active torsions:
REMARK  status: ('A' for Active; 'I' for Inactive)
REMARK    1  A    between atoms: C_4  and  N_5 
REMARK    2  A    between atoms: N_5  and  N_6 
REMARK    3  A    between atoms: C_7  and  C_8 
REMARK    4  A    between atoms: C_9  and  O_10 
ROOT
HETATM    1  N   UNL     1     -41.398  55.209 -55.447  1.00  0.00    -0.172 NA
HETATM    2  C   UNL     1     -41.512  53.944 -55.178  1.00  0.00     0.153 C 
ENDROOT
BRANCH   1   3
HETATM    3  N   UNL     1     -41.997  55.590 -56.611  1.00  0.00    -0.108 N 
HETATM    4  H   UNL     1     -41.720  55.193 -57.507  1.00  0.00     0.208 HD
BRANCH   3   5
HETATM    5  C   UNL     1     -43.000  56.516 -56.739  1.00  0.00     0.723 A 
HETATM    6  N   UNL     1     -43.229  57.085 -57.886  1.00  0.00    -0.068 NA
HETATM    7  C   UNL     1     -44.242  58.012 -57.950  1.00  0.00     0.055 A 
HETATM    8  C   UNL     1     -44.459  58.655 -59.291  1.00  0.00     0.071 C 
HETATM    9  C   UNL     1     -45.004  58.362 -56.905  1.00  0.00     0.102 A 
HETATM   10  C   UNL     1     -44.749  57.709 -55.615  1.00  0.00     0.261 A 
HETATM   11  N   UNL     1     -43.732  56.807 -55.624  1.00  0.00    -0.153 N 
HETATM   12  O   UNL     1     -45.414  57.972 -54.622  1.00  0.00    -0.268 OA
HETATM   13  H   UNL     1     -43.507  56.328 -54.769  1.00  0.00     0.187 HD
ENDBRANCH   3   5
ENDBRANCH   1   3
BRANCH   2  14
HETATM   14  C   UNL     1     -40.928  53.352 -53.955  1.00  0.00     0.019 A 
HETATM   15  C   UNL     1     -40.782  54.075 -52.762  1.00  0.00     0.094 A 
HETATM   16  C   UNL     1     -40.223  53.453 -51.640  1.00  0.00     0.046 A 
HETATM   17 BR   UNL     1     -40.000  54.378 -49.998  1.00  0.00    -0.048 Br
HETATM   18  C   UNL     1     -39.811  52.120 -51.704  1.00  0.00     0.041 A 
HETATM   19  C   UNL     1     -39.961  51.410 -52.894  1.00  0.00     0.013 A 
HETATM   20 BR   UNL     1     -39.405  49.606 -52.983  1.00  0.00    -0.051 Br
HETATM   21  C   UNL     1     -40.516  52.016 -54.021  1.00  0.00     0.035 A 
BRANCH  15  22
HETATM   22  O   UNL     1     -41.175  55.384 -52.661  1.00  0.00    -0.358 OA
HETATM   23  H   UNL     1     -41.054  55.667 -51.731  1.00  0.00     0.218 HD
ENDBRANCH  15  22
ENDBRANCH   2  14
TORSDOF 4
ENDMDL
MODEL 9
REMARK VINA RESULT:      -6.5      4.843      5.821
REMARK  4 active torsions:
REMARK  status: ('A' for Active; 'I' for Inactive)
REMARK    1  A    between atoms: C_4  and  N_5 
REMARK    2  A    between atoms: N_5  and  N_6 
REMARK    3  A    between atoms: C_7  and  C_8 
REMARK    4  A    between atoms: C_9  and  O_10 
ROOT
HETATM    1  N   UNL     1     -43.140  56.462 -52.602  1.00  0.00    -0.172 NA
HETATM    2  C   UNL     1     -43.160  55.165 -52.647  1.00  0.00     0.153 C 
ENDROOT
BRANCH   1   3
HETATM    3  N   UNL     1     -44.222  57.059 -53.180  1.00  0.00    -0.108 N 
HETATM    4  H   UNL     1     -44.632  56.698 -54.040  1.00  0.00     0.208 HD
BRANCH   3   5
HETATM    5  C   UNL     1     -44.874  58.172 -52.719  1.00  0.00     0.723 A 
HETATM    6  N   UNL     1     -45.143  59.159 -53.522  1.00  0.00    -0.068 NA
HETATM    7  C   UNL     1     -45.791  60.253 -52.999  1.00  0.00     0.055 A 
HETATM    8  C   UNL     1     -46.066  61.375 -53.960  1.00  0.00     0.071 C 
HETATM    9  C   UNL     1     -46.160  60.361 -51.715  1.00  0.00     0.102 A 
HETATM   10  C   UNL     1     -45.865  59.240 -50.815  1.00  0.00     0.261 A 
HETATM   11  N   UNL     1     -45.220  58.195 -51.398  1.00  0.00    -0.153 N 
HETATM   12  O   UNL     1     -46.183  59.267 -49.633  1.00  0.00    -0.268 OA
HETATM   13  H   UNL     1     -44.987  57.398 -50.831  1.00  0.00     0.187 HD
ENDBRANCH   3   5
ENDBRANCH   1   3
BRANCH   2  14
HETATM   14  C   UNL     1     -42.072  54.349 -52.067  1.00  0.00     0.019 A 
HETATM   15  C   UNL     1     -41.669  54.470 -50.729  1.00  0.00     0.094 A 
HETATM   16  C   UNL     1     -40.632  53.664 -50.243  1.00  0.00     0.046 A 
HETATM   17 BR   UNL     1     -40.043  53.782 -48.443  1.00  0.00    -0.048 Br
HETATM   18  C   UNL     1     -40.001  52.745 -51.083  1.00  0.00     0.041 A 
HETATM   19  C   UNL     1     -40.408  52.632 -52.411  1.00  0.00     0.013 A 
HETATM   20 BR   UNL     1     -39.555  51.387 -53.549  1.00  0.00    -0.051 Br
HETATM   21  C   UNL     1     -41.439  53.427 -52.910  1.00  0.00     0.035 A 
BRANCH  15  22
HETATM   22  O   UNL     1     -42.265  55.361 -49.876  1.00  0.00    -0.358 OA
HETATM   23  H   UNL     1     -43.230  55.192 -49.887  1.00  0.00     0.218 HD
ENDBRANCH  15  22
ENDBRANCH   2  14
TORSDOF 4
ENDMDL
MODEL 10
REMARK VINA RESULT:      -6.4     14.228     15.185
REMARK  4 active torsions:
REMARK  status: ('A' for Active; 'I' for Inactive)
REMARK    1  A    between atoms: C_4  and  N_5 
REMARK    2  A    between atoms: N_5  and  N_6 
REMARK    3  A    between atoms: C_7  and  C_8 
REMARK    4  A    between atoms: C_9  and  O_10 
ROOT
HETATM    1  N   UNL     1     -36.569  42.011 -54.669  1.00  0.00    -0.172 NA
HETATM    2  C   UNL     1     -36.968  41.142 -53.791  1.00  0.00     0.153 C 
ENDROOT
BRANCH   1   3
HETATM    3  N   UNL     1     -37.478  42.272 -55.651  1.00  0.00    -0.108 N 
HETATM    4  H   UNL     1     -38.209  42.972 -55.527  1.00  0.00     0.208 HD
BRANCH   3   5
HETATM    5  C   UNL     1     -37.544  41.661 -56.876  1.00  0.00     0.723 A 
HETATM    6  N   UNL     1     -37.814  40.392 -56.966  1.00  0.00    -0.068 NA
HETATM    7  C   UNL     1     -37.857  39.834 -58.222  1.00  0.00     0.055 A 
HETATM    8  C   UNL     1     -38.156  38.363 -58.276  1.00  0.00     0.071 C 
HETATM    9  C   UNL     1     -37.638  40.518 -59.353  1.00  0.00     0.102 A 
HETATM   10  C   UNL     1     -37.345  41.953 -59.247  1.00  0.00     0.261 A 
HETATM   11  N   UNL     1     -37.314  42.436 -57.977  1.00  0.00    -0.153 N 
HETATM   12  O   UNL     1     -37.145  42.641 -60.240  1.00  0.00    -0.268 OA
HETATM   13  H   UNL     1     -37.115  43.412 -57.839  1.00  0.00     0.187 HD
ENDBRANCH   3   5
ENDBRANCH   1   3
BRANCH   2  14
HETATM   14  C   UNL     1     -36.116  40.737 -52.652  1.00  0.00     0.019 A 
HETATM   15  C   UNL     1     -34.714  40.785 -52.704  1.00  0.00     0.094 A 
HETATM   16  C   UNL     1     -33.967  40.390 -51.588  1.00  0.00     0.046 A 
HETATM   17 BR   UNL     1     -32.070  40.433 -51.597  1.00  0.00    -0.048 Br
HETATM   18  C   UNL     1     -34.609  39.948 -50.429  1.00  0.00     0.041 A 
HETATM   19  C   UNL     1     -36.001  39.904 -50.388  1.00  0.00     0.013 A 
HETATM   20 BR   UNL     1     -36.872  39.308 -48.820  1.00  0.00    -0.051 Br
HETATM   21  C   UNL     1     -36.760  40.295 -51.491  1.00  0.00     0.035 A 
BRANCH  15  22
HETATM   22  O   UNL     1     -34.050  41.213 -53.823  1.00  0.00    -0.358 OA
HETATM   23  H   UNL     1     -34.503  42.014 -54.158  1.00  0.00     0.218 HD
ENDBRANCH  15  22
ENDBRANCH   2  14
TORSDOF 4
ENDMDL
