MODEL 1
REMARK VINA RESULT:      -8.5      0.000      0.000
REMARK  3 active torsions:
REMARK  status: ('A' for Active; 'I' for Inactive)
REMARK    1  A    between atoms: C_6  and  N_7 
REMARK       I    between atoms: N_7  and  C_8 
REMARK    2  A    between atoms: C_8  and  C_9 
REMARK    3  A    between atoms: C_20  and  O_21 
ROOT
HETATM    1  C   UNL     1     -42.162  56.805 -51.226  1.00  0.00     0.153 A 
HETATM    2  N   UNL     1     -41.054  57.382 -50.702  1.00  0.00    -0.168 NA
HETATM    3  N   UNL     1     -41.420  58.663 -50.480  1.00  0.00    -0.276 N 
HETATM    4  H   UNL     1     -40.739  59.297 -50.076  1.00  0.00     0.189 HD
HETATM    5  C   UNL     1     -42.707  58.931 -50.832  1.00  0.00     0.069 A 
HETATM    6  C   UNL     1     -43.220  57.744 -51.309  1.00  0.00     0.007 A 
HETATM    7  C   UNL     1     -44.615  57.646 -51.813  1.00  0.00     0.048 C 
HETATM    8  C   UNL     1     -45.516  58.718 -51.155  1.00  0.00     0.044 C 
HETATM    9  C   UNL     1     -44.853  60.077 -50.960  1.00  0.00    -0.043 A 
HETATM   10  C   UNL     1     -43.458  60.171 -50.746  1.00  0.00    -0.001 A 
HETATM   11  C   UNL     1     -45.636  61.237 -50.903  1.00  0.00     0.044 A 
HETATM   12  C   UNL     1     -45.049  62.484 -50.668  1.00  0.00     0.068 A 
HETATM   13  C   UNL     1     -43.670  62.567 -50.464  1.00  0.00     0.037 A 
HETATM   14  C   UNL     1     -42.875  61.415 -50.500  1.00  0.00     0.017 A 
ENDROOT
BRANCH   1  15
HETATM   15  C   UNL     1     -42.177  55.386 -51.633  1.00  0.00     0.277 C 
HETATM   16  N   UNL     1     -40.941  54.970 -52.089  1.00  0.00    -0.322 N 
HETATM   17  H   UNL     1     -40.239  55.707 -52.067  1.00  0.00     0.169 HD
HETATM   18  O   UNL     1     -43.192  54.702 -51.555  1.00  0.00    -0.266 OA
BRANCH  16  19
HETATM   19  C   UNL     1     -40.563  53.698 -52.550  1.00  0.00     0.037 A 
HETATM   20  C   UNL     1     -39.995  52.715 -51.741  1.00  0.00     0.072 A 
HETATM   21  C   UNL     1     -39.645  51.481 -52.289  1.00  0.00     0.124 A 
HETATM   22  C   UNL     1     -39.841  51.197 -53.642  1.00  0.00    -0.023 A 
HETATM   23  F   UNL     1     -39.108  50.549 -51.487  1.00  0.00    -0.205 F 
HETATM   24  C   UNL     1     -39.481  49.852 -54.191  1.00  0.00     0.051 C 
HETATM   25  C   UNL     1     -40.426  52.177 -54.448  1.00  0.00     0.012 A 
HETATM   26  C   UNL     1     -40.779  53.417 -53.906  1.00  0.00     0.030 A 
ENDBRANCH  16  19
ENDBRANCH   1  15
BRANCH  12  27
HETATM   27  O   UNL     1     -45.928  63.531 -50.655  1.00  0.00    -0.356 OA
HETATM   28  C   UNL     1     -47.164  63.328 -49.980  1.00  0.00     0.210 C 
ENDBRANCH  12  27
TORSDOF 3
ENDMDL
MODEL 2
REMARK VINA RESULT:      -8.5      3.367      9.331
REMARK  3 active torsions:
REMARK  status: ('A' for Active; 'I' for Inactive)
REMARK    1  A    between atoms: C_6  and  N_7 
REMARK       I    between atoms: N_7  and  C_8 
REMARK    2  A    between atoms: C_8  and  C_9 
REMARK    3  A    between atoms: C_20  and  O_21 
ROOT
HETATM    1  C   UNL     1     -41.652  56.802 -50.975  1.00  0.00     0.153 A 
HETATM    2  N   UNL     1     -41.239  56.498 -49.722  1.00  0.00    -0.168 NA
HETATM    3  N   UNL     1     -40.758  55.240 -49.827  1.00  0.00    -0.276 N 
HETATM    4  H   UNL     1     -40.380  54.797 -48.997  1.00  0.00     0.189 HD
HETATM    5  C   UNL     1     -40.840  54.729 -51.085  1.00  0.00     0.069 A 
HETATM    6  C   UNL     1     -41.405  55.721 -51.856  1.00  0.00     0.007 A 
HETATM    7  C   UNL     1     -41.675  55.520 -53.305  1.00  0.00     0.048 C 
HETATM    8  C   UNL     1     -40.713  54.469 -53.906  1.00  0.00     0.044 C 
HETATM    9  C   UNL     1     -40.420  53.279 -52.997  1.00  0.00    -0.043 A 
HETATM   10  C   UNL     1     -40.433  53.430 -51.591  1.00  0.00    -0.001 A 
HETATM   11  C   UNL     1     -40.048  52.048 -53.553  1.00  0.00     0.044 A 
HETATM   12  C   UNL     1     -39.720  50.965 -52.733  1.00  0.00     0.068 A 
HETATM   13  C   UNL     1     -39.742  51.121 -51.345  1.00  0.00     0.037 A 
HETATM   14  C   UNL     1     -40.094  52.351 -50.774  1.00  0.00     0.017 A 
ENDROOT
BRANCH   1  15
HETATM   15  C   UNL     1     -42.271  58.105 -51.293  1.00  0.00     0.277 C 
HETATM   16  N   UNL     1     -43.646  58.067 -51.153  1.00  0.00    -0.322 N 
HETATM   17  H   UNL     1     -43.992  57.156 -50.860  1.00  0.00     0.169 HD
HETATM   18  O   UNL     1     -41.601  59.074 -51.634  1.00  0.00    -0.266 OA
BRANCH  16  19
HETATM   19  C   UNL     1     -44.572  59.103 -51.355  1.00  0.00     0.037 A 
HETATM   20  C   UNL     1     -45.081  59.902 -50.332  1.00  0.00     0.072 A 
HETATM   21  C   UNL     1     -46.003  60.905 -50.626  1.00  0.00     0.124 A 
HETATM   22  C   UNL     1     -46.448  61.133 -51.930  1.00  0.00    -0.023 A 
HETATM   23  F   UNL     1     -46.470  61.665 -49.625  1.00  0.00    -0.205 F 
HETATM   24  C   UNL     1     -47.418  62.237 -52.215  1.00  0.00     0.051 C 
HETATM   25  C   UNL     1     -45.925  60.343 -52.957  1.00  0.00     0.012 A 
HETATM   26  C   UNL     1     -44.999  59.335 -52.670  1.00  0.00     0.030 A 
ENDBRANCH  16  19
ENDBRANCH   1  15
BRANCH  12  27
HETATM   27  O   UNL     1     -39.393  49.821 -53.408  1.00  0.00    -0.356 OA
HETATM   28  C   UNL     1     -39.777  49.747 -54.775  1.00  0.00     0.210 C 
ENDBRANCH  12  27
TORSDOF 3
ENDMDL
MODEL 3
REMARK VINA RESULT:      -8.5      5.669      9.154
REMARK  3 active torsions:
REMARK  status: ('A' for Active; 'I' for Inactive)
REMARK    1  A    between atoms: C_6  and  N_7 
REMARK       I    between atoms: N_7  and  C_8 
REMARK    2  A    between atoms: C_8  and  C_9 
REMARK    3  A    between atoms: C_20  and  O_21 
ROOT
HETATM    1  C   UNL     1     -42.456  56.900 -54.566  1.00  0.00     0.153 A 
HETATM    2  N   UNL     1     -42.533  57.466 -53.337  1.00  0.00    -0.168 NA
HETATM    3  N   UNL     1     -42.019  56.533 -52.508  1.00  0.00    -0.276 N 
HETATM    4  H   UNL     1     -41.968  56.743 -51.517  1.00  0.00     0.189 HD
HETATM    5  C   UNL     1     -41.614  55.401 -53.146  1.00  0.00     0.069 A 
HETATM    6  C   UNL     1     -41.873  55.611 -54.482  1.00  0.00     0.007 A 
HETATM    7  C   UNL     1     -41.578  54.572 -55.505  1.00  0.00     0.048 C 
HETATM    8  C   UNL     1     -40.437  53.641 -55.032  1.00  0.00     0.044 C 
HETATM    9  C   UNL     1     -40.477  53.285 -53.550  1.00  0.00    -0.043 A 
HETATM   10  C   UNL     1     -41.017  54.192 -52.608  1.00  0.00    -0.001 A 
HETATM   11  C   UNL     1     -39.896  52.092 -53.100  1.00  0.00     0.044 A 
HETATM   12  C   UNL     1     -39.873  51.779 -51.738  1.00  0.00     0.068 A 
HETATM   13  C   UNL     1     -40.415  52.677 -50.816  1.00  0.00     0.037 A 
HETATM   14  C   UNL     1     -40.983  53.882 -51.248  1.00  0.00     0.017 A 
ENDROOT
BRANCH   1  15
HETATM   15  C   UNL     1     -42.942  57.598 -55.773  1.00  0.00     0.277 C 
HETATM   16  N   UNL     1     -41.900  57.993 -56.591  1.00  0.00    -0.322 N 
HETATM   17  H   UNL     1     -40.986  57.739 -56.222  1.00  0.00     0.169 HD
HETATM   18  O   UNL     1     -44.137  57.778 -55.979  1.00  0.00    -0.266 OA
BRANCH  16  19
HETATM   19  C   UNL     1     -41.964  58.669 -57.820  1.00  0.00     0.037 A 
HETATM   20  C   UNL     1     -41.873  60.054 -57.953  1.00  0.00     0.072 A 
HETATM   21  C   UNL     1     -41.953  60.638 -59.216  1.00  0.00     0.124 A 
HETATM   22  C   UNL     1     -42.133  59.871 -60.368  1.00  0.00    -0.023 A 
HETATM   23  F   UNL     1     -41.854  61.972 -59.316  1.00  0.00    -0.205 F 
HETATM   24  C   UNL     1     -42.186  60.529 -61.713  1.00  0.00     0.051 C 
HETATM   25  C   UNL     1     -42.207  58.482 -60.237  1.00  0.00     0.012 A 
HETATM   26  C   UNL     1     -42.128  57.888 -58.973  1.00  0.00     0.030 A 
ENDBRANCH  16  19
ENDBRANCH   1  15
BRANCH  12  27
HETATM   27  O   UNL     1     -39.291  50.577 -51.442  1.00  0.00    -0.356 OA
HETATM   28  C   UNL     1     -39.567  49.493 -52.320  1.00  0.00     0.210 C 
ENDBRANCH  12  27
TORSDOF 3
ENDMDL
MODEL 4
REMARK VINA RESULT:      -8.4      5.472      6.368
REMARK  3 active torsions:
REMARK  status: ('A' for Active; 'I' for Inactive)
REMARK    1  A    between atoms: C_6  and  N_7 
REMARK       I    between atoms: N_7  and  C_8 
REMARK    2  A    between atoms: C_8  and  C_9 
REMARK    3  A    between atoms: C_20  and  O_21 
ROOT
HETATM    1  C   UNL     1     -42.198  56.269 -54.893  1.00  0.00     0.153 A 
HETATM    2  N   UNL     1     -41.930  57.440 -54.267  1.00  0.00    -0.168 NA
HETATM    3  N   UNL     1     -42.011  58.367 -55.247  1.00  0.00    -0.276 N 
HETATM    4  H   UNL     1     -41.851  59.338 -55.007  1.00  0.00     0.189 HD
HETATM    5  C   UNL     1     -42.321  57.845 -56.465  1.00  0.00     0.069 A 
HETATM    6  C   UNL     1     -42.460  56.489 -56.268  1.00  0.00     0.007 A 
HETATM    7  C   UNL     1     -42.782  55.568 -57.391  1.00  0.00     0.048 C 
HETATM    8  C   UNL     1     -43.546  56.312 -58.512  1.00  0.00     0.044 C 
HETATM    9  C   UNL     1     -43.058  57.730 -58.784  1.00  0.00    -0.043 A 
HETATM   10  C   UNL     1     -42.497  58.508 -57.745  1.00  0.00    -0.001 A 
HETATM   11  C   UNL     1     -43.244  58.305 -60.048  1.00  0.00     0.044 A 
HETATM   12  C   UNL     1     -42.854  59.624 -60.298  1.00  0.00     0.068 A 
HETATM   13  C   UNL     1     -42.295  60.382 -59.267  1.00  0.00     0.037 A 
HETATM   14  C   UNL     1     -42.118  59.829 -57.992  1.00  0.00     0.017 A 
ENDROOT
BRANCH   1  15
HETATM   15  C   UNL     1     -42.191  54.983 -54.167  1.00  0.00     0.277 C 
HETATM   16  N   UNL     1     -40.905  54.526 -53.946  1.00  0.00    -0.322 N 
HETATM   17  H   UNL     1     -40.192  55.148 -54.320  1.00  0.00     0.169 HD
HETATM   18  O   UNL     1     -43.229  54.429 -53.822  1.00  0.00    -0.266 OA
BRANCH  16  19
HETATM   19  C   UNL     1     -40.497  53.355 -53.286  1.00  0.00     0.037 A 
HETATM   20  C   UNL     1     -40.131  52.180 -53.941  1.00  0.00     0.072 A 
HETATM   21  C   UNL     1     -39.744  51.064 -53.201  1.00  0.00     0.124 A 
HETATM   22  C   UNL     1     -39.720  51.081 -51.806  1.00  0.00    -0.023 A 
HETATM   23  F   UNL     1     -39.388  49.949 -53.856  1.00  0.00    -0.205 F 
HETATM   24  C   UNL     1     -39.272  49.873 -51.043  1.00  0.00     0.051 C 
HETATM   25  C   UNL     1     -40.071  52.264 -51.150  1.00  0.00     0.012 A 
HETATM   26  C   UNL     1     -40.460  53.389 -51.885  1.00  0.00     0.030 A 
ENDBRANCH  16  19
ENDBRANCH   1  15
BRANCH  12  27
HETATM   27  O   UNL     1     -43.079  60.049 -61.578  1.00  0.00    -0.356 OA
HETATM   28  C   UNL     1     -42.241  61.088 -62.069  1.00  0.00     0.210 C 
ENDBRANCH  12  27
TORSDOF 3
ENDMDL
MODEL 5
REMARK VINA RESULT:      -8.3      5.221      9.175
REMARK  3 active torsions:
REMARK  status: ('A' for Active; 'I' for Inactive)
REMARK    1  A    between atoms: C_6  and  N_7 
REMARK       I    between atoms: N_7  and  C_8 
REMARK    2  A    between atoms: C_8  and  C_9 
REMARK    3  A    between atoms: C_20  and  O_21 
ROOT
HETATM    1  C   UNL     1     -42.217  56.944 -54.441  1.00  0.00     0.153 A 
HETATM    2  N   UNL     1     -42.150  57.513 -53.213  1.00  0.00    -0.168 NA
HETATM    3  N   UNL     1     -41.635  56.544 -52.425  1.00  0.00    -0.276 N 
HETATM    4  H   UNL     1     -41.486  56.749 -51.444  1.00  0.00     0.189 HD
HETATM    5  C   UNL     1     -41.366  55.388 -53.090  1.00  0.00     0.069 A 
HETATM    6  C   UNL     1     -41.721  55.617 -54.401  1.00  0.00     0.007 A 
HETATM    7  C   UNL     1     -41.588  54.561 -55.440  1.00  0.00     0.048 C 
HETATM    8  C   UNL     1     -40.479  53.550 -55.060  1.00  0.00     0.044 C 
HETATM    9  C   UNL     1     -40.419  53.196 -53.578  1.00  0.00    -0.043 A 
HETATM   10  C   UNL     1     -40.813  54.138 -52.599  1.00  0.00    -0.001 A 
HETATM   11  C   UNL     1     -39.888  51.965 -53.173  1.00  0.00     0.044 A 
HETATM   12  C   UNL     1     -39.773  51.649 -51.816  1.00  0.00     0.068 A 
HETATM   13  C   UNL     1     -40.170  52.582 -50.856  1.00  0.00     0.037 A 
HETATM   14  C   UNL     1     -40.687  53.825 -51.244  1.00  0.00     0.017 A 
ENDROOT
BRANCH   1  15
HETATM   15  C   UNL     1     -42.752  57.676 -55.606  1.00  0.00     0.277 C 
HETATM   16  N   UNL     1     -43.911  57.097 -56.087  1.00  0.00    -0.322 N 
HETATM   17  H   UNL     1     -44.193  56.273 -55.560  1.00  0.00     0.169 HD
HETATM   18  O   UNL     1     -42.196  58.672 -56.055  1.00  0.00    -0.266 OA
BRANCH  16  19
HETATM   19  C   UNL     1     -44.709  57.508 -57.167  1.00  0.00     0.037 A 
HETATM   20  C   UNL     1     -45.864  58.278 -57.032  1.00  0.00     0.072 A 
HETATM   21  C   UNL     1     -46.598  58.635 -58.162  1.00  0.00     0.124 A 
HETATM   22  C   UNL     1     -46.213  58.233 -59.443  1.00  0.00    -0.023 A 
HETATM   23  F   UNL     1     -47.700  59.383 -58.005  1.00  0.00    -0.205 F 
HETATM   24  C   UNL     1     -47.008  58.658 -60.638  1.00  0.00     0.051 C 
HETATM   25  C   UNL     1     -45.046  57.476 -59.579  1.00  0.00     0.012 A 
HETATM   26  C   UNL     1     -44.305  57.114 -58.450  1.00  0.00     0.030 A 
ENDBRANCH  16  19
ENDBRANCH   1  15
BRANCH  12  27
HETATM   27  O   UNL     1     -39.254  50.408 -51.565  1.00  0.00    -0.356 OA
HETATM   28  C   UNL     1     -39.511  49.395 -52.529  1.00  0.00     0.210 C 
ENDBRANCH  12  27
TORSDOF 3
ENDMDL
MODEL 6
REMARK VINA RESULT:      -8.3      3.557      9.583
REMARK  3 active torsions:
REMARK  status: ('A' for Active; 'I' for Inactive)
REMARK    1  A    between atoms: C_6  and  N_7 
REMARK       I    between atoms: N_7  and  C_8 
REMARK    2  A    between atoms: C_8  and  C_9 
REMARK    3  A    between atoms: C_20  and  O_21 
ROOT
HETATM    1  C   UNL     1     -41.760  58.054 -51.887  1.00  0.00     0.153 A 
HETATM    2  N   UNL     1     -42.111  58.202 -53.187  1.00  0.00    -0.168 NA
HETATM    3  N   UNL     1     -41.833  57.003 -53.744  1.00  0.00    -0.276 N 
HETATM    4  H   UNL     1     -42.025  56.874 -54.731  1.00  0.00     0.189 HD
HETATM    5  C   UNL     1     -41.326  56.098 -52.864  1.00  0.00     0.069 A 
HETATM    6  C   UNL     1     -41.276  56.744 -51.648  1.00  0.00     0.007 A 
HETATM    7  C   UNL     1     -40.751  56.071 -50.430  1.00  0.00     0.048 C 
HETATM    8  C   UNL     1     -40.920  54.536 -50.532  1.00  0.00     0.044 C 
HETATM    9  C   UNL     1     -40.655  53.956 -51.917  1.00  0.00    -0.043 A 
HETATM   10  C   UNL     1     -40.911  54.723 -53.077  1.00  0.00    -0.001 A 
HETATM   11  C   UNL     1     -40.240  52.625 -52.051  1.00  0.00     0.044 A 
HETATM   12  C   UNL     1     -40.048  52.060 -53.315  1.00  0.00     0.068 A 
HETATM   13  C   UNL     1     -40.297  52.827 -54.455  1.00  0.00     0.037 A 
HETATM   14  C   UNL     1     -40.730  54.154 -54.339  1.00  0.00     0.017 A 
ENDROOT
BRANCH   1  15
HETATM   15  C   UNL     1     -41.890  59.161 -50.918  1.00  0.00     0.277 C 
HETATM   16  N   UNL     1     -43.075  59.853 -51.087  1.00  0.00    -0.322 N 
HETATM   17  H   UNL     1     -43.647  59.484 -51.843  1.00  0.00     0.169 HD
HETATM   18  O   UNL     1     -41.023  59.396 -50.084  1.00  0.00    -0.266 OA
BRANCH  16  19
HETATM   19  C   UNL     1     -43.555  60.952 -50.356  1.00  0.00     0.037 A 
HETATM   20  C   UNL     1     -44.633  60.889 -49.474  1.00  0.00     0.072 A 
HETATM   21  C   UNL     1     -45.044  62.035 -48.795  1.00  0.00     0.124 A 
HETATM   22  C   UNL     1     -44.408  63.264 -48.980  1.00  0.00    -0.023 A 
HETATM   23  F   UNL     1     -46.079  61.945 -47.946  1.00  0.00    -0.205 F 
HETATM   24  C   UNL     1     -44.857  64.469 -48.213  1.00  0.00     0.051 C 
HETATM   25  C   UNL     1     -43.317  63.323 -49.851  1.00  0.00     0.012 A 
HETATM   26  C   UNL     1     -42.899  62.178 -50.536  1.00  0.00     0.030 A 
ENDBRANCH  16  19
ENDBRANCH   1  15
BRANCH  12  27
HETATM   27  O   UNL     1     -39.627  50.759 -53.298  1.00  0.00    -0.356 OA
HETATM   28  C   UNL     1     -39.982  49.951 -54.413  1.00  0.00     0.210 C 
ENDBRANCH  12  27
TORSDOF 3
ENDMDL
MODEL 7
REMARK VINA RESULT:      -8.2      5.980      8.584
REMARK  3 active torsions:
REMARK  status: ('A' for Active; 'I' for Inactive)
REMARK    1  A    between atoms: C_6  and  N_7 
REMARK       I    between atoms: N_7  and  C_8 
REMARK    2  A    between atoms: C_8  and  C_9 
REMARK    3  A    between atoms: C_20  and  O_21 
ROOT
HETATM    1  C   UNL     1     -42.686  55.935 -55.791  1.00  0.00     0.153 A 
HETATM    2  N   UNL     1     -42.865  54.621 -56.063  1.00  0.00    -0.168 NA
HETATM    3  N   UNL     1     -42.386  53.987 -54.970  1.00  0.00    -0.276 N 
HETATM    4  H   UNL     1     -42.423  52.974 -54.946  1.00  0.00     0.189 HD
HETATM    5  C   UNL     1     -41.915  54.832 -54.014  1.00  0.00     0.069 A 
HETATM    6  C   UNL     1     -42.105  56.103 -54.509  1.00  0.00     0.007 A 
HETATM    7  C   UNL     1     -41.688  57.307 -53.742  1.00  0.00     0.048 C 
HETATM    8  C   UNL     1     -41.678  57.017 -52.223  1.00  0.00     0.044 C 
HETATM    9  C   UNL     1     -41.161  55.634 -51.840  1.00  0.00    -0.043 A 
HETATM   10  C   UNL     1     -41.331  54.537 -52.717  1.00  0.00    -0.001 A 
HETATM   11  C   UNL     1     -40.593  55.423 -50.578  1.00  0.00     0.044 A 
HETATM   12  C   UNL     1     -40.168  54.149 -50.190  1.00  0.00     0.068 A 
HETATM   13  C   UNL     1     -40.334  53.073 -51.064  1.00  0.00     0.037 A 
HETATM   14  C   UNL     1     -40.916  53.264 -52.324  1.00  0.00     0.017 A 
ENDROOT
BRANCH   1  15
HETATM   15  C   UNL     1     -43.067  56.986 -56.756  1.00  0.00     0.277 C 
HETATM   16  N   UNL     1     -41.983  57.420 -57.496  1.00  0.00    -0.322 N 
HETATM   17  H   UNL     1     -41.117  56.946 -57.249  1.00  0.00     0.169 HD
HETATM   18  O   UNL     1     -44.221  57.390 -56.850  1.00  0.00    -0.266 OA
BRANCH  16  19
HETATM   19  C   UNL     1     -41.951  58.392 -58.509  1.00  0.00     0.037 A 
HETATM   20  C   UNL     1     -41.891  59.764 -58.269  1.00  0.00     0.072 A 
HETATM   21  C   UNL     1     -41.869  60.657 -59.339  1.00  0.00     0.124 A 
HETATM   22  C   UNL     1     -41.916  60.216 -60.663  1.00  0.00    -0.023 A 
HETATM   23  F   UNL     1     -41.802  61.971 -59.081  1.00  0.00    -0.205 F 
HETATM   24  C   UNL     1     -41.862  61.200 -61.790  1.00  0.00     0.051 C 
HETATM   25  C   UNL     1     -41.959  58.840 -60.904  1.00  0.00     0.012 A 
HETATM   26  C   UNL     1     -41.982  57.938 -59.835  1.00  0.00     0.030 A 
ENDBRANCH  16  19
ENDBRANCH   1  15
BRANCH  12  27
HETATM   27  O   UNL     1     -39.618  54.091 -48.939  1.00  0.00    -0.356 OA
HETATM   28  C   UNL     1     -40.497  53.795 -47.861  1.00  0.00     0.210 C 
ENDBRANCH  12  27
TORSDOF 3
ENDMDL
MODEL 8
REMARK VINA RESULT:      -8.2      3.291      9.390
REMARK  3 active torsions:
REMARK  status: ('A' for Active; 'I' for Inactive)
REMARK    1  A    between atoms: C_6  and  N_7 
REMARK       I    between atoms: N_7  and  C_8 
REMARK    2  A    between atoms: C_8  and  C_9 
REMARK    3  A    between atoms: C_20  and  O_21 
ROOT
HETATM    1  C   UNL     1     -42.029  56.722 -51.080  1.00  0.00     0.153 A 
HETATM    2  N   UNL     1     -41.398  56.536 -49.896  1.00  0.00    -0.168 NA
HETATM    3  N   UNL     1     -40.780  55.343 -50.033  1.00  0.00    -0.276 N 
HETATM    4  H   UNL     1     -40.229  54.993 -49.257  1.00  0.00     0.189 HD
HETATM    5  C   UNL     1     -40.983  54.761 -51.246  1.00  0.00     0.069 A 
HETATM    6  C   UNL     1     -41.780  55.635 -51.952  1.00  0.00     0.007 A 
HETATM    7  C   UNL     1     -42.235  55.328 -53.335  1.00  0.00     0.048 C 
HETATM    8  C   UNL     1     -41.246  54.372 -54.043  1.00  0.00     0.044 C 
HETATM    9  C   UNL     1     -40.671  53.276 -53.152  1.00  0.00    -0.043 A 
HETATM   10  C   UNL     1     -40.493  53.497 -51.766  1.00  0.00    -0.001 A 
HETATM   11  C   UNL     1     -40.231  52.072 -53.717  1.00  0.00     0.044 A 
HETATM   12  C   UNL     1     -39.648  51.081 -52.923  1.00  0.00     0.068 A 
HETATM   13  C   UNL     1     -39.483  51.305 -51.555  1.00  0.00     0.037 A 
HETATM   14  C   UNL     1     -39.900  52.510 -50.976  1.00  0.00     0.017 A 
ENDROOT
BRANCH   1  15
HETATM   15  C   UNL     1     -42.851  57.922 -51.340  1.00  0.00     0.277 C 
HETATM   16  N   UNL     1     -42.071  59.051 -51.508  1.00  0.00    -0.322 N 
HETATM   17  H   UNL     1     -41.074  58.863 -51.423  1.00  0.00     0.169 HD
HETATM   18  O   UNL     1     -44.075  57.869 -51.391  1.00  0.00    -0.266 OA
BRANCH  16  19
HETATM   19  C   UNL     1     -42.485  60.365 -51.779  1.00  0.00     0.037 A 
HETATM   20  C   UNL     1     -42.667  60.874 -53.064  1.00  0.00     0.072 A 
HETATM   21  C   UNL     1     -43.076  62.195 -53.237  1.00  0.00     0.124 A 
HETATM   22  C   UNL     1     -43.303  63.041 -52.149  1.00  0.00    -0.023 A 
HETATM   23  F   UNL     1     -43.252  62.658 -54.483  1.00  0.00    -0.205 F 
HETATM   24  C   UNL     1     -43.768  64.447 -52.370  1.00  0.00     0.051 C 
HETATM   25  C   UNL     1     -43.136  62.525 -50.861  1.00  0.00     0.012 A 
HETATM   26  C   UNL     1     -42.727  61.200 -50.680  1.00  0.00     0.030 A 
ENDBRANCH  16  19
ENDBRANCH   1  15
BRANCH  12  27
HETATM   27  O   UNL     1     -39.281  49.952 -53.603  1.00  0.00    -0.356 OA
HETATM   28  C   UNL     1     -39.849  49.762 -54.893  1.00  0.00     0.210 C 
ENDBRANCH  12  27
TORSDOF 3
ENDMDL
MODEL 9
REMARK VINA RESULT:      -8.1      3.615      9.461
REMARK  3 active torsions:
REMARK  status: ('A' for Active; 'I' for Inactive)
REMARK    1  A    between atoms: C_6  and  N_7 
REMARK       I    between atoms: N_7  and  C_8 
REMARK    2  A    between atoms: C_8  and  C_9 
REMARK    3  A    between atoms: C_20  and  O_21 
ROOT
HETATM    1  C   UNL     1     -41.487  57.238 -54.016  1.00  0.00     0.153 A 
HETATM    2  N   UNL     1     -41.621  56.870 -55.313  1.00  0.00    -0.168 NA
HETATM    3  N   UNL     1     -41.307  55.556 -55.320  1.00  0.00    -0.276 N 
HETATM    4  H   UNL     1     -41.344  55.056 -56.201  1.00  0.00     0.189 HD
HETATM    5  C   UNL     1     -40.984  55.068 -54.092  1.00  0.00     0.069 A 
HETATM    6  C   UNL     1     -41.102  56.129 -53.223  1.00  0.00     0.007 A 
HETATM    7  C   UNL     1     -40.805  55.984 -51.772  1.00  0.00     0.048 C 
HETATM    8  C   UNL     1     -41.018  54.524 -51.309  1.00  0.00     0.044 C 
HETATM    9  C   UNL     1     -40.560  53.465 -52.306  1.00  0.00    -0.043 A 
HETATM   10  C   UNL     1     -40.597  53.725 -53.696  1.00  0.00    -0.001 A 
HETATM   11  C   UNL     1     -40.184  52.194 -51.855  1.00  0.00     0.044 A 
HETATM   12  C   UNL     1     -39.817  51.194 -52.760  1.00  0.00     0.068 A 
HETATM   13  C   UNL     1     -39.850  51.462 -54.130  1.00  0.00     0.037 A 
HETATM   14  C   UNL     1     -40.241  52.722 -54.599  1.00  0.00     0.017 A 
ENDROOT
BRANCH   1  15
HETATM   15  C   UNL     1     -41.725  58.627 -53.576  1.00  0.00     0.277 C 
HETATM   16  N   UNL     1     -42.822  58.720 -52.740  1.00  0.00    -0.322 N 
HETATM   17  H   UNL     1     -43.274  57.823 -52.575  1.00  0.00     0.169 HD
HETATM   18  O   UNL     1     -41.005  59.552 -53.938  1.00  0.00    -0.266 OA
BRANCH  16  19
HETATM   19  C   UNL     1     -43.350  59.863 -52.118  1.00  0.00     0.037 A 
HETATM   20  C   UNL     1     -44.499  60.524 -52.552  1.00  0.00     0.072 A 
HETATM   21  C   UNL     1     -44.947  61.656 -51.874  1.00  0.00     0.124 A 
HETATM   22  C   UNL     1     -44.268  62.163 -50.764  1.00  0.00    -0.023 A 
HETATM   23  F   UNL     1     -46.060  62.268 -52.306  1.00  0.00    -0.205 F 
HETATM   24  C   UNL     1     -44.793  63.365 -50.042  1.00  0.00     0.051 C 
HETATM   25  C   UNL     1     -43.127  61.491 -50.320  1.00  0.00     0.012 A 
HETATM   26  C   UNL     1     -42.671  60.354 -50.995  1.00  0.00     0.030 A 
ENDBRANCH  16  19
ENDBRANCH   1  15
BRANCH  12  27
HETATM   27  O   UNL     1     -39.457  50.008 -52.181  1.00  0.00    -0.356 OA
HETATM   28  C   UNL     1     -39.597  49.911 -50.769  1.00  0.00     0.210 C 
ENDBRANCH  12  27
TORSDOF 3
ENDMDL
MODEL 10
REMARK VINA RESULT:      -7.9      1.798      2.247
REMARK  3 active torsions:
REMARK  status: ('A' for Active; 'I' for Inactive)
REMARK    1  A    between atoms: C_6  and  N_7 
REMARK       I    between atoms: N_7  and  C_8 
REMARK    2  A    between atoms: C_8  and  C_9 
REMARK    3  A    between atoms: C_20  and  O_21 
ROOT
HETATM    1  C   UNL     1     -42.926  57.273 -53.013  1.00  0.00     0.153 A 
HETATM    2  N   UNL     1     -44.125  57.269 -53.644  1.00  0.00    -0.168 NA
HETATM    3  N   UNL     1     -44.812  58.272 -53.058  1.00  0.00    -0.276 N 
HETATM    4  H   UNL     1     -45.755  58.464 -53.379  1.00  0.00     0.189 HD
HETATM    5  C   UNL     1     -44.111  58.918 -52.087  1.00  0.00     0.069 A 
HETATM    6  C   UNL     1     -42.880  58.302 -52.041  1.00  0.00     0.007 A 
HETATM    7  C   UNL     1     -41.832  58.727 -51.074  1.00  0.00     0.048 C 
HETATM    8  C   UNL     1     -42.017  60.211 -50.677  1.00  0.00     0.044 C 
HETATM    9  C   UNL     1     -43.467  60.647 -50.495  1.00  0.00    -0.043 A 
HETATM   10  C   UNL     1     -44.499  60.034 -51.242  1.00  0.00    -0.001 A 
HETATM   11  C   UNL     1     -43.774  61.722 -49.651  1.00  0.00     0.044 A 
HETATM   12  C   UNL     1     -45.091  62.171 -49.518  1.00  0.00     0.068 A 
HETATM   13  C   UNL     1     -46.105  61.555 -50.255  1.00  0.00     0.037 A 
HETATM   14  C   UNL     1     -45.812  60.491 -51.117  1.00  0.00     0.017 A 
ENDROOT
BRANCH   1  15
HETATM   15  C   UNL     1     -41.869  56.298 -53.351  1.00  0.00     0.277 C 
HETATM   16  N   UNL     1     -42.213  55.015 -52.968  1.00  0.00    -0.322 N 
HETATM   17  H   UNL     1     -43.127  54.964 -52.522  1.00  0.00     0.169 HD
HETATM   18  O   UNL     1     -40.829  56.637 -53.905  1.00  0.00    -0.266 OA
BRANCH  16  19
HETATM   19  C   UNL     1     -41.478  53.830 -53.127  1.00  0.00     0.037 A 
HETATM   20  C   UNL     1     -40.569  53.346 -52.187  1.00  0.00     0.072 A 
HETATM   21  C   UNL     1     -39.878  52.161 -52.434  1.00  0.00     0.124 A 
HETATM   22  C   UNL     1     -40.062  51.437 -53.613  1.00  0.00    -0.023 A 
HETATM   23  F   UNL     1     -39.015  51.713 -51.509  1.00  0.00    -0.205 F 
HETATM   24  C   UNL     1     -39.324  50.152 -53.834  1.00  0.00     0.051 C 
HETATM   25  C   UNL     1     -40.985  51.913 -54.548  1.00  0.00     0.012 A 
HETATM   26  C   UNL     1     -41.682  53.102 -54.307  1.00  0.00     0.030 A 
ENDBRANCH  16  19
ENDBRANCH   1  15
BRANCH  12  27
HETATM   27  O   UNL     1     -45.249  63.215 -48.650  1.00  0.00    -0.356 OA
HETATM   28  C   UNL     1     -46.580  63.537 -48.262  1.00  0.00     0.210 C 
ENDBRANCH  12  27
TORSDOF 3
ENDMDL
