MODEL 1
REMARK VINA RESULT:      -8.3      0.000      0.000
REMARK  7 active torsions:
REMARK  status: ('A' for Active; 'I' for Inactive)
REMARK    1  A    between atoms: O_2  and  C_3 
REMARK    2  A    between atoms: C_6  and  C_7 
REMARK       I    between atoms: C_7  and  N_8 
REMARK    3  A    between atoms: N_8  and  C_9 
REMARK    4  A    between atoms: C_9  and  C_10 
REMARK    5  A    between atoms: C_10  and  N_11 
REMARK       I    between atoms: N_11  and  C_12 
REMARK    6  A    between atoms: C_12  and  C_13 
REMARK    7  A    between atoms: C_15  and  C_16 
ROOT
HETATM    1  N   UNL     1     -41.768  57.212 -51.938  1.00  0.00    -0.355 N 
HETATM    2  C   UNL     1     -42.029  55.936 -52.389  1.00  0.00     0.251 C 
HETATM    3  O   UNL     1     -42.909  55.682 -53.205  1.00  0.00    -0.268 OA
HETATM    4  H   UNL     1     -41.187  57.350 -51.122  1.00  0.00     0.162 HD
ENDROOT
BRANCH   1   5
HETATM    5  C   UNL     1     -42.552  58.348 -52.393  1.00  0.00     0.142 C 
BRANCH   5   6
HETATM    6  C   UNL     1     -41.972  58.998 -53.654  1.00  0.00     0.142 C 
BRANCH   6   7
HETATM    7  N   UNL     1     -42.290  58.265 -54.865  1.00  0.00    -0.355 N 
HETATM    8  C   UNL     1     -42.119  58.834 -56.110  1.00  0.00     0.251 C 
HETATM    9  O   UNL     1     -41.669  59.964 -56.269  1.00  0.00    -0.268 OA
HETATM   10  H   UNL     1     -42.466  57.274 -54.780  1.00  0.00     0.162 HD
BRANCH   8  11
HETATM   11  C   UNL     1     -42.480  57.995 -57.288  1.00  0.00     0.032 A 
HETATM   12  C   UNL     1     -42.946  56.681 -57.158  1.00  0.00     0.020 A 
HETATM   13  C   UNL     1     -43.300  55.938 -58.293  1.00  0.00     0.038 A 
HETATM   14  C   UNL     1     -43.199  56.505 -59.564  1.00  0.00     0.068 A 
HETATM   15  C   UNL     1     -42.740  57.818 -59.692  1.00  0.00     0.038 A 
HETATM   16  C   UNL     1     -42.388  58.563 -58.564  1.00  0.00     0.020 A 
BRANCH  14  17
HETATM   17  O   UNL     1     -43.518  55.895 -60.745  1.00  0.00    -0.356 OA
HETATM   18  C   UNL     1     -44.864  55.463 -60.904  1.00  0.00     0.210 C 
ENDBRANCH  14  17
ENDBRANCH   8  11
ENDBRANCH   6   7
ENDBRANCH   5   6
ENDBRANCH   1   5
BRANCH   2  19
HETATM   19  C   UNL     1     -41.211  54.840 -51.800  1.00  0.00     0.032 A 
HETATM   20  C   UNL     1     -40.979  53.695 -52.577  1.00  0.00     0.029 A 
HETATM   21  C   UNL     1     -40.215  52.631 -52.075  1.00  0.00    -0.023 A 
HETATM   22  C   UNL     1     -39.685  52.734 -50.782  1.00  0.00     0.012 A 
HETATM   23  C   UNL     1     -39.898  53.879 -50.011  1.00  0.00     0.002 A 
HETATM   24  C   UNL     1     -40.656  54.934 -50.519  1.00  0.00     0.017 A 
BRANCH  21  25
HETATM   25  C   UNL     1     -39.972  51.435 -52.868  1.00  0.00    -0.002 A 
HETATM   26  C   UNL     1     -39.561  50.222 -52.352  1.00  0.00     0.153 A 
HETATM   27  O   UNL     1     -39.434  49.295 -53.336  1.00  0.00    -0.334 OA
HETATM   28  C   UNL     1     -39.770  49.907 -54.499  1.00  0.00     0.142 A 
HETATM   29  C   UNL     1     -40.112  51.219 -54.269  1.00  0.00     0.038 A 
ENDBRANCH  21  25
ENDBRANCH   2  19
TORSDOF 7
ENDMDL
MODEL 2
REMARK VINA RESULT:      -8.2      2.643      6.017
REMARK  7 active torsions:
REMARK  status: ('A' for Active; 'I' for Inactive)
REMARK    1  A    between atoms: O_2  and  C_3 
REMARK    2  A    between atoms: C_6  and  C_7 
REMARK       I    between atoms: C_7  and  N_8 
REMARK    3  A    between atoms: N_8  and  C_9 
REMARK    4  A    between atoms: C_9  and  C_10 
REMARK    5  A    between atoms: C_10  and  N_11 
REMARK       I    between atoms: N_11  and  C_12 
REMARK    6  A    between atoms: C_12  and  C_13 
REMARK    7  A    between atoms: C_15  and  C_16 
ROOT
HETATM    1  N   UNL     1     -41.942  54.997 -56.180  1.00  0.00    -0.355 N 
HETATM    2  C   UNL     1     -42.508  54.134 -55.267  1.00  0.00     0.251 C 
HETATM    3  O   UNL     1     -43.706  53.869 -55.250  1.00  0.00    -0.268 OA
HETATM    4  H   UNL     1     -41.005  55.347 -56.030  1.00  0.00     0.162 HD
ENDROOT
BRANCH   1   5
HETATM    5  C   UNL     1     -42.750  55.676 -57.179  1.00  0.00     0.142 C 
BRANCH   5   6
HETATM    6  C   UNL     1     -43.254  57.042 -56.699  1.00  0.00     0.142 C 
BRANCH   6   7
HETATM    7  N   UNL     1     -42.495  57.562 -55.577  1.00  0.00    -0.355 N 
HETATM    8  C   UNL     1     -43.010  57.542 -54.297  1.00  0.00     0.251 C 
HETATM    9  O   UNL     1     -44.109  57.068 -54.029  1.00  0.00    -0.268 OA
HETATM   10  H   UNL     1     -41.519  57.769 -55.728  1.00  0.00     0.162 HD
BRANCH   8  11
HETATM   11  C   UNL     1     -42.150  58.104 -53.218  1.00  0.00     0.032 A 
HETATM   12  C   UNL     1     -40.768  58.272 -53.371  1.00  0.00     0.020 A 
HETATM   13  C   UNL     1     -40.002  58.829 -52.338  1.00  0.00     0.038 A 
HETATM   14  C   UNL     1     -40.612  59.232 -51.149  1.00  0.00     0.068 A 
HETATM   15  C   UNL     1     -41.991  59.069 -51.000  1.00  0.00     0.038 A 
HETATM   16  C   UNL     1     -42.759  58.515 -52.027  1.00  0.00     0.020 A 
BRANCH  14  17
HETATM   17  O   UNL     1     -39.983  59.795 -50.073  1.00  0.00    -0.356 OA
HETATM   18  C   UNL     1     -38.565  59.883 -50.130  1.00  0.00     0.210 C 
ENDBRANCH  14  17
ENDBRANCH   8  11
ENDBRANCH   6   7
ENDBRANCH   5   6
ENDBRANCH   1   5
BRANCH   2  19
HETATM   19  C   UNL     1     -41.595  53.552 -54.244  1.00  0.00     0.032 A 
HETATM   20  C   UNL     1     -41.629  54.085 -52.946  1.00  0.00     0.029 A 
HETATM   21  C   UNL     1     -40.794  53.576 -51.941  1.00  0.00    -0.023 A 
HETATM   22  C   UNL     1     -39.925  52.523 -52.256  1.00  0.00     0.012 A 
HETATM   23  C   UNL     1     -39.900  51.977 -53.542  1.00  0.00     0.002 A 
HETATM   24  C   UNL     1     -40.737  52.486 -54.535  1.00  0.00     0.017 A 
BRANCH  21  25
HETATM   25  C   UNL     1     -40.814  54.124 -50.593  1.00  0.00    -0.002 A 
HETATM   26  C   UNL     1     -41.225  55.402 -50.272  1.00  0.00     0.153 A 
HETATM   27  O   UNL     1     -41.143  55.616 -48.933  1.00  0.00    -0.334 OA
HETATM   28  C   UNL     1     -40.681  54.468 -48.379  1.00  0.00     0.142 A 
HETATM   29  C   UNL     1     -40.467  53.519 -49.351  1.00  0.00     0.038 A 
ENDBRANCH  21  25
ENDBRANCH   2  19
TORSDOF 7
ENDMDL
MODEL 3
REMARK VINA RESULT:      -8.0      1.842      2.481
REMARK  7 active torsions:
REMARK  status: ('A' for Active; 'I' for Inactive)
REMARK    1  A    between atoms: O_2  and  C_3 
REMARK    2  A    between atoms: C_6  and  C_7 
REMARK       I    between atoms: C_7  and  N_8 
REMARK    3  A    between atoms: N_8  and  C_9 
REMARK    4  A    between atoms: C_9  and  C_10 
REMARK    5  A    between atoms: C_10  and  N_11 
REMARK       I    between atoms: N_11  and  C_12 
REMARK    6  A    between atoms: C_12  and  C_13 
REMARK    7  A    between atoms: C_15  and  C_16 
ROOT
HETATM    1  N   UNL     1     -43.148  55.714 -51.922  1.00  0.00    -0.355 N 
HETATM    2  C   UNL     1     -41.780  55.818 -52.055  1.00  0.00     0.251 C 
HETATM    3  O   UNL     1     -41.115  56.673 -51.480  1.00  0.00    -0.268 OA
HETATM    4  H   UNL     1     -43.676  55.141 -52.566  1.00  0.00     0.162 HD
ENDROOT
BRANCH   1   5
HETATM    5  C   UNL     1     -43.898  56.646 -51.096  1.00  0.00     0.142 C 
BRANCH   5   6
HETATM    6  C   UNL     1     -44.747  57.616 -51.925  1.00  0.00     0.142 C 
BRANCH   6   7
HETATM    7  N   UNL     1     -44.723  57.318 -53.344  1.00  0.00    -0.355 N 
HETATM    8  C   UNL     1     -43.883  57.998 -54.202  1.00  0.00     0.251 C 
HETATM    9  O   UNL     1     -43.100  58.862 -53.821  1.00  0.00    -0.268 OA
HETATM   10  H   UNL     1     -45.199  56.484 -53.656  1.00  0.00     0.162 HD
BRANCH   8  11
HETATM   11  C   UNL     1     -43.939  57.616 -55.641  1.00  0.00     0.032 A 
HETATM   12  C   UNL     1     -43.072  56.669 -56.201  1.00  0.00     0.020 A 
HETATM   13  C   UNL     1     -43.179  56.321 -57.554  1.00  0.00     0.038 A 
HETATM   14  C   UNL     1     -44.158  56.908 -58.356  1.00  0.00     0.068 A 
HETATM   15  C   UNL     1     -45.026  57.848 -57.795  1.00  0.00     0.038 A 
HETATM   16  C   UNL     1     -44.925  58.198 -56.447  1.00  0.00     0.020 A 
BRANCH  14  17
HETATM   17  O   UNL     1     -44.373  56.652 -59.682  1.00  0.00    -0.356 OA
HETATM   18  C   UNL     1     -44.403  55.286 -60.077  1.00  0.00     0.210 C 
ENDBRANCH  14  17
ENDBRANCH   8  11
ENDBRANCH   6   7
ENDBRANCH   5   6
ENDBRANCH   1   5
BRANCH   2  19
HETATM   19  C   UNL     1     -41.126  54.856 -52.985  1.00  0.00     0.032 A 
HETATM   20  C   UNL     1     -40.841  53.566 -52.511  1.00  0.00     0.029 A 
HETATM   21  C   UNL     1     -40.227  52.617 -53.342  1.00  0.00    -0.023 A 
HETATM   22  C   UNL     1     -39.905  52.980 -54.656  1.00  0.00     0.012 A 
HETATM   23  C   UNL     1     -40.203  54.257 -55.139  1.00  0.00     0.002 A 
HETATM   24  C   UNL     1     -40.817  55.195 -54.307  1.00  0.00     0.017 A 
BRANCH  21  25
HETATM   25  C   UNL     1     -39.920  51.279 -52.861  1.00  0.00    -0.002 A 
HETATM   26  C   UNL     1     -39.769  50.170 -53.670  1.00  0.00     0.153 A 
HETATM   27  O   UNL     1     -39.473  49.068 -52.933  1.00  0.00    -0.334 OA
HETATM   28  C   UNL     1     -39.426  49.464 -51.636  1.00  0.00     0.142 A 
HETATM   29  C   UNL     1     -39.688  50.810 -51.536  1.00  0.00     0.038 A 
ENDBRANCH  21  25
ENDBRANCH   2  19
TORSDOF 7
ENDMDL
MODEL 4
REMARK VINA RESULT:      -8.0      1.604      2.226
REMARK  7 active torsions:
REMARK  status: ('A' for Active; 'I' for Inactive)
REMARK    1  A    between atoms: O_2  and  C_3 
REMARK    2  A    between atoms: C_6  and  C_7 
REMARK       I    between atoms: C_7  and  N_8 
REMARK    3  A    between atoms: N_8  and  C_9 
REMARK    4  A    between atoms: C_9  and  C_10 
REMARK    5  A    between atoms: C_10  and  N_11 
REMARK       I    between atoms: N_11  and  C_12 
REMARK    6  A    between atoms: C_12  and  C_13 
REMARK    7  A    between atoms: C_15  and  C_16 
ROOT
HETATM    1  N   UNL     1     -41.632  57.948 -50.642  1.00  0.00    -0.355 N 
HETATM    2  C   UNL     1     -42.303  56.767 -50.877  1.00  0.00     0.251 C 
HETATM    3  O   UNL     1     -43.452  56.723 -51.304  1.00  0.00    -0.268 OA
HETATM    4  H   UNL     1     -40.778  57.944 -50.099  1.00  0.00     0.162 HD
ENDROOT
BRANCH   1   5
HETATM    5  C   UNL     1     -42.269  59.234 -50.866  1.00  0.00     0.142 C 
BRANCH   5   6
HETATM    6  C   UNL     1     -41.859  59.871 -52.198  1.00  0.00     0.142 C 
BRANCH   6   7
HETATM    7  N   UNL     1     -42.321  59.119 -53.350  1.00  0.00    -0.355 N 
HETATM    8  C   UNL     1     -41.518  58.173 -53.953  1.00  0.00     0.251 C 
HETATM    9  O   UNL     1     -40.395  57.895 -53.545  1.00  0.00    -0.268 OA
HETATM   10  H   UNL     1     -43.301  59.175 -53.583  1.00  0.00     0.162 HD
BRANCH   8  11
HETATM   11  C   UNL     1     -42.087  57.460 -55.131  1.00  0.00     0.032 A 
HETATM   12  C   UNL     1     -42.695  58.137 -56.196  1.00  0.00     0.020 A 
HETATM   13  C   UNL     1     -43.193  57.426 -57.296  1.00  0.00     0.038 A 
HETATM   14  C   UNL     1     -43.080  56.036 -57.346  1.00  0.00     0.068 A 
HETATM   15  C   UNL     1     -42.469  55.363 -56.285  1.00  0.00     0.038 A 
HETATM   16  C   UNL     1     -41.969  56.066 -55.187  1.00  0.00     0.020 A 
BRANCH  14  17
HETATM   17  O   UNL     1     -43.515  55.229 -58.360  1.00  0.00    -0.356 OA
HETATM   18  C   UNL     1     -43.334  55.708 -59.687  1.00  0.00     0.210 C 
ENDBRANCH  14  17
ENDBRANCH   8  11
ENDBRANCH   6   7
ENDBRANCH   5   6
ENDBRANCH   1   5
BRANCH   2  19
HETATM   19  C   UNL     1     -41.577  55.509 -50.542  1.00  0.00     0.032 A 
HETATM   20  C   UNL     1     -41.251  54.634 -51.588  1.00  0.00     0.029 A 
HETATM   21  C   UNL     1     -40.567  53.436 -51.334  1.00  0.00    -0.023 A 
HETATM   22  C   UNL     1     -40.213  53.131 -50.013  1.00  0.00     0.012 A 
HETATM   23  C   UNL     1     -40.519  54.007 -48.969  1.00  0.00     0.002 A 
HETATM   24  C   UNL     1     -41.197  55.198 -49.232  1.00  0.00     0.017 A 
BRANCH  21  25
HETATM   25  C   UNL     1     -40.228  52.516 -52.409  1.00  0.00    -0.002 A 
HETATM   26  C   UNL     1     -40.611  52.674 -53.727  1.00  0.00     0.153 A 
HETATM   27  O   UNL     1     -40.133  51.662 -54.495  1.00  0.00    -0.334 OA
HETATM   28  C   UNL     1     -39.430  50.843 -53.674  1.00  0.00     0.142 A 
HETATM   29  C   UNL     1     -39.452  51.322 -52.385  1.00  0.00     0.038 A 
ENDBRANCH  21  25
ENDBRANCH   2  19
TORSDOF 7
ENDMDL
MODEL 5
REMARK VINA RESULT:      -7.7      1.845      8.584
REMARK  7 active torsions:
REMARK  status: ('A' for Active; 'I' for Inactive)
REMARK    1  A    between atoms: O_2  and  C_3 
REMARK    2  A    between atoms: C_6  and  C_7 
REMARK       I    between atoms: C_7  and  N_8 
REMARK    3  A    between atoms: N_8  and  C_9 
REMARK    4  A    between atoms: C_9  and  C_10 
REMARK    5  A    between atoms: C_10  and  N_11 
REMARK       I    between atoms: N_11  and  C_12 
REMARK    6  A    between atoms: C_12  and  C_13 
REMARK    7  A    between atoms: C_15  and  C_16 
ROOT
HETATM    1  N   UNL     1     -42.961  57.537 -55.057  1.00  0.00    -0.355 N 
HETATM    2  C   UNL     1     -43.263  56.453 -55.853  1.00  0.00     0.251 C 
HETATM    3  O   UNL     1     -43.642  55.377 -55.402  1.00  0.00    -0.268 OA
HETATM    4  H   UNL     1     -42.458  58.324 -55.445  1.00  0.00     0.162 HD
ENDROOT
BRANCH   1   5
HETATM    5  C   UNL     1     -43.051  57.458 -53.609  1.00  0.00     0.142 C 
BRANCH   5   6
HETATM    6  C   UNL     1     -41.684  57.260 -52.943  1.00  0.00     0.142 C 
BRANCH   6   7
HETATM    7  N   UNL     1     -41.359  55.863 -52.724  1.00  0.00    -0.355 N 
HETATM    8  C   UNL     1     -40.656  55.138 -53.664  1.00  0.00     0.251 C 
HETATM    9  O   UNL     1     -40.246  55.627 -54.711  1.00  0.00    -0.268 OA
HETATM   10  H   UNL     1     -41.500  55.489 -51.797  1.00  0.00     0.162 HD
BRANCH   8  11
HETATM   11  C   UNL     1     -40.378  53.710 -53.341  1.00  0.00     0.032 A 
HETATM   12  C   UNL     1     -40.245  52.730 -54.332  1.00  0.00     0.020 A 
HETATM   13  C   UNL     1     -39.957  51.403 -53.984  1.00  0.00     0.038 A 
HETATM   14  C   UNL     1     -39.790  51.048 -52.644  1.00  0.00     0.068 A 
HETATM   15  C   UNL     1     -39.918  52.029 -51.657  1.00  0.00     0.038 A 
HETATM   16  C   UNL     1     -40.203  53.352 -52.000  1.00  0.00     0.020 A 
BRANCH  14  17
HETATM   17  O   UNL     1     -39.500  49.798 -52.173  1.00  0.00    -0.356 OA
HETATM   18  C   UNL     1     -39.491  49.627 -50.762  1.00  0.00     0.210 C 
ENDBRANCH  14  17
ENDBRANCH   8  11
ENDBRANCH   6   7
ENDBRANCH   5   6
ENDBRANCH   1   5
BRANCH   2  19
HETATM   19  C   UNL     1     -43.064  56.626 -57.319  1.00  0.00     0.032 A 
HETATM   20  C   UNL     1     -42.694  57.894 -57.793  1.00  0.00     0.029 A 
HETATM   21  C   UNL     1     -42.491  58.116 -59.162  1.00  0.00    -0.023 A 
HETATM   22  C   UNL     1     -42.662  57.046 -60.051  1.00  0.00     0.012 A 
HETATM   23  C   UNL     1     -43.013  55.778 -59.583  1.00  0.00     0.002 A 
HETATM   24  C   UNL     1     -43.210  55.564 -58.218  1.00  0.00     0.017 A 
BRANCH  21  25
HETATM   25  C   UNL     1     -42.113  59.428 -59.667  1.00  0.00    -0.002 A 
HETATM   26  C   UNL     1     -41.736  60.494 -58.876  1.00  0.00     0.153 A 
HETATM   27  O   UNL     1     -41.430  61.578 -59.635  1.00  0.00    -0.334 OA
HETATM   28  C   UNL     1     -41.604  61.212 -60.930  1.00  0.00     0.142 A 
HETATM   29  C   UNL     1     -42.018  59.903 -61.007  1.00  0.00     0.038 A 
ENDBRANCH  21  25
ENDBRANCH   2  19
TORSDOF 7
ENDMDL
MODEL 6
REMARK VINA RESULT:      -7.6      4.657      7.908
REMARK  7 active torsions:
REMARK  status: ('A' for Active; 'I' for Inactive)
REMARK    1  A    between atoms: O_2  and  C_3 
REMARK    2  A    between atoms: C_6  and  C_7 
REMARK       I    between atoms: C_7  and  N_8 
REMARK    3  A    between atoms: N_8  and  C_9 
REMARK    4  A    between atoms: C_9  and  C_10 
REMARK    5  A    between atoms: C_10  and  N_11 
REMARK       I    between atoms: N_11  and  C_12 
REMARK    6  A    between atoms: C_12  and  C_13 
REMARK    7  A    between atoms: C_15  and  C_16 
ROOT
HETATM    1  N   UNL     1     -41.316  57.241 -51.959  1.00  0.00    -0.355 N 
HETATM    2  C   UNL     1     -41.484  55.884 -51.780  1.00  0.00     0.251 C 
HETATM    3  O   UNL     1     -41.956  55.397 -50.758  1.00  0.00    -0.268 OA
HETATM    4  H   UNL     1     -40.739  57.582 -52.715  1.00  0.00     0.162 HD
ENDROOT
BRANCH   1   5
HETATM    5  C   UNL     1     -41.671  58.188 -50.915  1.00  0.00     0.142 C 
BRANCH   5   6
HETATM    6  C   UNL     1     -42.795  59.140 -51.341  1.00  0.00     0.142 C 
BRANCH   6   7
HETATM    7  N   UNL     1     -43.097  60.142 -50.337  1.00  0.00    -0.355 N 
HETATM    8  C   UNL     1     -44.388  60.587 -50.137  1.00  0.00     0.251 C 
HETATM    9  O   UNL     1     -45.346  60.152 -50.767  1.00  0.00    -0.268 OA
HETATM   10  H   UNL     1     -42.374  60.370 -49.670  1.00  0.00     0.162 HD
BRANCH   8  11
HETATM   11  C   UNL     1     -44.587  61.621 -49.083  1.00  0.00     0.032 A 
HETATM   12  C   UNL     1     -45.079  61.308 -47.809  1.00  0.00     0.020 A 
HETATM   13  C   UNL     1     -45.226  62.309 -46.840  1.00  0.00     0.038 A 
HETATM   14  C   UNL     1     -44.873  63.628 -47.131  1.00  0.00     0.068 A 
HETATM   15  C   UNL     1     -44.377  63.937 -48.400  1.00  0.00     0.038 A 
HETATM   16  C   UNL     1     -44.228  62.943 -49.370  1.00  0.00     0.020 A 
BRANCH  14  17
HETATM   17  O   UNL     1     -44.958  64.692 -46.277  1.00  0.00    -0.356 OA
HETATM   18  C   UNL     1     -44.942  64.402 -44.884  1.00  0.00     0.210 C 
ENDBRANCH  14  17
ENDBRANCH   8  11
ENDBRANCH   6   7
ENDBRANCH   5   6
ENDBRANCH   1   5
BRANCH   2  19
HETATM   19  C   UNL     1     -41.017  55.003 -52.887  1.00  0.00     0.032 A 
HETATM   20  C   UNL     1     -40.718  53.665 -52.587  1.00  0.00     0.029 A 
HETATM   21  C   UNL     1     -40.276  52.788 -53.589  1.00  0.00    -0.023 A 
HETATM   22  C   UNL     1     -40.141  53.273 -54.896  1.00  0.00     0.012 A 
HETATM   23  C   UNL     1     -40.455  54.599 -55.204  1.00  0.00     0.002 A 
HETATM   24  C   UNL     1     -40.897  55.464 -54.202  1.00  0.00     0.017 A 
BRANCH  21  25
HETATM   25  C   UNL     1     -39.955  51.401 -53.290  1.00  0.00    -0.002 A 
HETATM   26  C   UNL     1     -39.810  50.407 -54.239  1.00  0.00     0.153 A 
HETATM   27  O   UNL     1     -39.498  49.222 -53.655  1.00  0.00    -0.334 OA
HETATM   28  C   UNL     1     -39.434  49.446 -52.319  1.00  0.00     0.142 A 
HETATM   29  C   UNL     1     -39.701  50.766 -52.041  1.00  0.00     0.038 A 
ENDBRANCH  21  25
ENDBRANCH   2  19
TORSDOF 7
ENDMDL
MODEL 7
REMARK VINA RESULT:      -7.6      1.730      7.503
REMARK  7 active torsions:
REMARK  status: ('A' for Active; 'I' for Inactive)
REMARK    1  A    between atoms: O_2  and  C_3 
REMARK    2  A    between atoms: C_6  and  C_7 
REMARK       I    between atoms: C_7  and  N_8 
REMARK    3  A    between atoms: N_8  and  C_9 
REMARK    4  A    between atoms: C_9  and  C_10 
REMARK    5  A    between atoms: C_10  and  N_11 
REMARK       I    between atoms: N_11  and  C_12 
REMARK    6  A    between atoms: C_12  and  C_13 
REMARK    7  A    between atoms: C_15  and  C_16 
ROOT
HETATM    1  N   UNL     1     -42.080  57.846 -53.009  1.00  0.00    -0.355 N 
HETATM    2  C   UNL     1     -43.239  57.375 -53.588  1.00  0.00     0.251 C 
HETATM    3  O   UNL     1     -44.331  57.415 -53.030  1.00  0.00    -0.268 OA
HETATM    4  H   UNL     1     -41.183  57.605 -53.407  1.00  0.00     0.162 HD
ENDROOT
BRANCH   1   5
HETATM    5  C   UNL     1     -42.081  58.404 -51.667  1.00  0.00     0.142 C 
BRANCH   5   6
HETATM    6  C   UNL     1     -41.594  57.405 -50.612  1.00  0.00     0.142 C 
BRANCH   6   7
HETATM    7  N   UNL     1     -40.995  56.218 -51.192  1.00  0.00    -0.355 N 
HETATM    8  C   UNL     1     -41.634  54.996 -51.139  1.00  0.00     0.251 C 
HETATM    9  O   UNL     1     -42.740  54.846 -50.631  1.00  0.00    -0.268 OA
HETATM   10  H   UNL     1     -40.191  56.344 -51.790  1.00  0.00     0.162 HD
BRANCH   8  11
HETATM   11  C   UNL     1     -40.929  53.841 -51.763  1.00  0.00     0.032 A 
HETATM   12  C   UNL     1     -40.319  52.836 -51.002  1.00  0.00     0.020 A 
HETATM   13  C   UNL     1     -39.690  51.753 -51.632  1.00  0.00     0.038 A 
HETATM   14  C   UNL     1     -39.674  51.661 -53.024  1.00  0.00     0.068 A 
HETATM   15  C   UNL     1     -40.289  52.662 -53.781  1.00  0.00     0.038 A 
HETATM   16  C   UNL     1     -40.918  53.742 -53.159  1.00  0.00     0.020 A 
BRANCH  14  17
HETATM   17  O   UNL     1     -39.105  50.658 -53.758  1.00  0.00    -0.356 OA
HETATM   18  C   UNL     1     -39.978  49.873 -54.562  1.00  0.00     0.210 C 
ENDBRANCH  14  17
ENDBRANCH   8  11
ENDBRANCH   6   7
ENDBRANCH   5   6
ENDBRANCH   1   5
BRANCH   2  19
HETATM   19  C   UNL     1     -43.106  56.756 -54.937  1.00  0.00     0.032 A 
HETATM   20  C   UNL     1     -42.828  57.595 -56.026  1.00  0.00     0.029 A 
HETATM   21  C   UNL     1     -42.690  57.069 -57.319  1.00  0.00    -0.023 A 
HETATM   22  C   UNL     1     -42.834  55.688 -57.503  1.00  0.00     0.012 A 
HETATM   23  C   UNL     1     -43.094  54.845 -56.419  1.00  0.00     0.002 A 
HETATM   24  C   UNL     1     -43.226  55.376 -55.136  1.00  0.00     0.017 A 
BRANCH  21  25
HETATM   25  C   UNL     1     -42.408  57.929 -58.459  1.00  0.00    -0.002 A 
HETATM   26  C   UNL     1     -42.173  57.478 -59.743  1.00  0.00     0.153 A 
HETATM   27  O   UNL     1     -41.954  58.518 -60.589  1.00  0.00    -0.334 OA
HETATM   28  C   UNL     1     -42.052  59.652 -59.852  1.00  0.00     0.142 A 
HETATM   29  C   UNL     1     -42.333  59.349 -58.541  1.00  0.00     0.038 A 
ENDBRANCH  21  25
ENDBRANCH   2  19
TORSDOF 7
ENDMDL
MODEL 8
REMARK VINA RESULT:      -7.5      1.292      8.058
REMARK  7 active torsions:
REMARK  status: ('A' for Active; 'I' for Inactive)
REMARK    1  A    between atoms: O_2  and  C_3 
REMARK    2  A    between atoms: C_6  and  C_7 
REMARK       I    between atoms: C_7  and  N_8 
REMARK    3  A    between atoms: N_8  and  C_9 
REMARK    4  A    between atoms: C_9  and  C_10 
REMARK    5  A    between atoms: C_10  and  N_11 
REMARK       I    between atoms: N_11  and  C_12 
REMARK    6  A    between atoms: C_12  and  C_13 
REMARK    7  A    between atoms: C_15  and  C_16 
ROOT
HETATM    1  N   UNL     1     -42.849  58.194 -55.124  1.00  0.00    -0.355 N 
HETATM    2  C   UNL     1     -42.214  59.079 -55.969  1.00  0.00     0.251 C 
HETATM    3  O   UNL     1     -41.590  60.057 -55.568  1.00  0.00    -0.268 OA
HETATM    4  H   UNL     1     -43.518  57.534 -55.496  1.00  0.00     0.162 HD
ENDROOT
BRANCH   1   5
HETATM    5  C   UNL     1     -42.837  58.387 -53.683  1.00  0.00     0.142 C 
BRANCH   5   6
HETATM    6  C   UNL     1     -43.570  57.269 -52.933  1.00  0.00     0.142 C 
BRANCH   6   7
HETATM    7  N   UNL     1     -42.700  56.163 -52.577  1.00  0.00    -0.355 N 
HETATM    8  C   UNL     1     -42.474  55.121 -53.453  1.00  0.00     0.251 C 
HETATM    9  O   UNL     1     -42.965  55.078 -54.576  1.00  0.00    -0.268 OA
HETATM   10  H   UNL     1     -42.126  56.266 -51.752  1.00  0.00     0.162 HD
BRANCH   8  11
HETATM   11  C   UNL     1     -41.567  54.035 -52.986  1.00  0.00     0.032 A 
HETATM   12  C   UNL     1     -41.259  53.846 -51.633  1.00  0.00     0.020 A 
HETATM   13  C   UNL     1     -40.421  52.794 -51.237  1.00  0.00     0.038 A 
HETATM   14  C   UNL     1     -39.894  51.918 -52.187  1.00  0.00     0.068 A 
HETATM   15  C   UNL     1     -40.208  52.105 -53.536  1.00  0.00     0.038 A 
HETATM   16  C   UNL     1     -41.043  53.151 -53.935  1.00  0.00     0.020 A 
BRANCH  14  17
HETATM   17  O   UNL     1     -39.076  50.853 -51.933  1.00  0.00    -0.356 OA
HETATM   18  C   UNL     1     -39.511  49.927 -50.945  1.00  0.00     0.210 C 
ENDBRANCH  14  17
ENDBRANCH   8  11
ENDBRANCH   6   7
ENDBRANCH   5   6
ENDBRANCH   1   5
BRANCH   2  19
HETATM   19  C   UNL     1     -42.354  58.824 -57.430  1.00  0.00     0.032 A 
HETATM   20  C   UNL     1     -43.045  57.674 -57.838  1.00  0.00     0.029 A 
HETATM   21  C   UNL     1     -43.211  57.383 -59.200  1.00  0.00    -0.023 A 
HETATM   22  C   UNL     1     -42.674  58.265 -60.147  1.00  0.00     0.012 A 
HETATM   23  C   UNL     1     -42.000  59.421 -59.746  1.00  0.00     0.002 A 
HETATM   24  C   UNL     1     -41.843  59.705 -58.389  1.00  0.00     0.017 A 
BRANCH  21  25
HETATM   25  C   UNL     1     -43.919  56.189 -59.637  1.00  0.00    -0.002 A 
HETATM   26  C   UNL     1     -44.732  56.123 -60.752  1.00  0.00     0.153 A 
HETATM   27  O   UNL     1     -45.241  54.874 -60.907  1.00  0.00    -0.334 OA
HETATM   28  C   UNL     1     -44.753  54.121 -59.890  1.00  0.00     0.142 A 
HETATM   29  C   UNL     1     -43.933  54.876 -59.085  1.00  0.00     0.038 A 
ENDBRANCH  21  25
ENDBRANCH   2  19
TORSDOF 7
ENDMDL
MODEL 9
REMARK VINA RESULT:      -7.5      2.916      5.963
REMARK  7 active torsions:
REMARK  status: ('A' for Active; 'I' for Inactive)
REMARK    1  A    between atoms: O_2  and  C_3 
REMARK    2  A    between atoms: C_6  and  C_7 
REMARK       I    between atoms: C_7  and  N_8 
REMARK    3  A    between atoms: N_8  and  C_9 
REMARK    4  A    between atoms: C_9  and  C_10 
REMARK    5  A    between atoms: C_10  and  N_11 
REMARK       I    between atoms: N_11  and  C_12 
REMARK    6  A    between atoms: C_12  and  C_13 
REMARK    7  A    between atoms: C_15  and  C_16 
ROOT
HETATM    1  N   UNL     1     -40.192  53.247 -49.965  1.00  0.00    -0.355 N 
HETATM    2  C   UNL     1     -40.256  51.994 -50.537  1.00  0.00     0.251 C 
HETATM    3  O   UNL     1     -40.285  50.959 -49.879  1.00  0.00    -0.268 OA
HETATM    4  H   UNL     1     -39.960  54.050 -50.534  1.00  0.00     0.162 HD
ENDROOT
BRANCH   1   5
HETATM    5  C   UNL     1     -40.127  53.415 -48.523  1.00  0.00     0.142 C 
BRANCH   5   6
HETATM    6  C   UNL     1     -40.838  54.686 -48.045  1.00  0.00     0.142 C 
BRANCH   6   7
HETATM    7  N   UNL     1     -41.219  55.564 -49.136  1.00  0.00    -0.355 N 
HETATM    8  C   UNL     1     -42.315  55.287 -49.927  1.00  0.00     0.251 C 
HETATM    9  O   UNL     1     -43.038  54.313 -49.744  1.00  0.00    -0.268 OA
HETATM   10  H   UNL     1     -40.775  56.470 -49.185  1.00  0.00     0.162 HD
BRANCH   8  11
HETATM   11  C   UNL     1     -42.616  56.252 -51.021  1.00  0.00     0.032 A 
HETATM   12  C   UNL     1     -41.623  56.758 -51.869  1.00  0.00     0.020 A 
HETATM   13  C   UNL     1     -41.957  57.644 -52.903  1.00  0.00     0.038 A 
HETATM   14  C   UNL     1     -43.285  58.022 -53.103  1.00  0.00     0.068 A 
HETATM   15  C   UNL     1     -44.275  57.512 -52.261  1.00  0.00     0.038 A 
HETATM   16  C   UNL     1     -43.948  56.628 -51.230  1.00  0.00     0.020 A 
BRANCH  14  17
HETATM   17  O   UNL     1     -43.742  58.868 -54.076  1.00  0.00    -0.356 OA
HETATM   18  C   UNL     1     -44.831  58.410 -54.868  1.00  0.00     0.210 C 
ENDBRANCH  14  17
ENDBRANCH   8  11
ENDBRANCH   6   7
ENDBRANCH   5   6
ENDBRANCH   1   5
BRANCH   2  19
HETATM   19  C   UNL     1     -40.244  51.939 -52.026  1.00  0.00     0.032 A 
HETATM   20  C   UNL     1     -40.877  52.972 -52.732  1.00  0.00     0.029 A 
HETATM   21  C   UNL     1     -40.895  52.974 -54.135  1.00  0.00    -0.023 A 
HETATM   22  C   UNL     1     -40.267  51.924 -54.818  1.00  0.00     0.012 A 
HETATM   23  C   UNL     1     -39.620  50.902 -54.119  1.00  0.00     0.002 A 
HETATM   24  C   UNL     1     -39.603  50.910 -52.724  1.00  0.00     0.017 A 
BRANCH  21  25
HETATM   25  C   UNL     1     -41.555  54.036 -54.880  1.00  0.00    -0.002 A 
HETATM   26  C   UNL     1     -42.908  54.080 -55.152  1.00  0.00     0.153 A 
HETATM   27  O   UNL     1     -43.225  55.199 -55.853  1.00  0.00    -0.334 OA
HETATM   28  C   UNL     1     -42.072  55.890 -56.033  1.00  0.00     0.142 A 
HETATM   29  C   UNL     1     -41.018  55.224 -55.453  1.00  0.00     0.038 A 
ENDBRANCH  21  25
ENDBRANCH   2  19
TORSDOF 7
ENDMDL
MODEL 10
REMARK VINA RESULT:      -7.4      1.918      2.832
REMARK  7 active torsions:
REMARK  status: ('A' for Active; 'I' for Inactive)
REMARK    1  A    between atoms: O_2  and  C_3 
REMARK    2  A    between atoms: C_6  and  C_7 
REMARK       I    between atoms: C_7  and  N_8 
REMARK    3  A    between atoms: N_8  and  C_9 
REMARK    4  A    between atoms: C_9  and  C_10 
REMARK    5  A    between atoms: C_10  and  N_11 
REMARK       I    between atoms: N_11  and  C_12 
REMARK    6  A    between atoms: C_12  and  C_13 
REMARK    7  A    between atoms: C_15  and  C_16 
ROOT
HETATM    1  N   UNL     1     -42.183  57.415 -54.363  1.00  0.00    -0.355 N 
HETATM    2  C   UNL     1     -42.725  57.038 -53.153  1.00  0.00     0.251 C 
HETATM    3  O   UNL     1     -43.776  57.498 -52.718  1.00  0.00    -0.268 OA
HETATM    4  H   UNL     1     -41.225  57.175 -54.583  1.00  0.00     0.162 HD
ENDROOT
BRANCH   1   5
HETATM    5  C   UNL     1     -42.824  58.418 -55.197  1.00  0.00     0.142 C 
BRANCH   5   6
HETATM    6  C   UNL     1     -42.278  58.430 -56.629  1.00  0.00     0.142 C 
BRANCH   6   7
HETATM    7  N   UNL     1     -43.286  58.106 -57.621  1.00  0.00    -0.355 N 
HETATM    8  C   UNL     1     -43.453  56.814 -58.074  1.00  0.00     0.251 C 
HETATM    9  O   UNL     1     -42.791  55.871 -57.655  1.00  0.00    -0.268 OA
HETATM   10  H   UNL     1     -43.976  58.812 -57.834  1.00  0.00     0.162 HD
BRANCH   8  11
HETATM   11  C   UNL     1     -44.515  56.592 -59.096  1.00  0.00     0.032 A 
HETATM   12  C   UNL     1     -44.378  55.657 -60.129  1.00  0.00     0.020 A 
HETATM   13  C   UNL     1     -45.414  55.463 -61.053  1.00  0.00     0.038 A 
HETATM   14  C   UNL     1     -46.598  56.194 -60.945  1.00  0.00     0.068 A 
HETATM   15  C   UNL     1     -46.736  57.122 -59.910  1.00  0.00     0.038 A 
HETATM   16  C   UNL     1     -45.707  57.318 -58.986  1.00  0.00     0.020 A 
BRANCH  14  17
HETATM   17  O   UNL     1     -47.683  56.094 -61.771  1.00  0.00    -0.356 OA
HETATM   18  C   UNL     1     -48.344  57.305 -62.115  1.00  0.00     0.210 C 
ENDBRANCH  14  17
ENDBRANCH   8  11
ENDBRANCH   6   7
ENDBRANCH   5   6
ENDBRANCH   1   5
BRANCH   2  19
HETATM   19  C   UNL     1     -41.944  56.057 -52.348  1.00  0.00     0.032 A 
HETATM   20  C   UNL     1     -41.542  54.863 -52.967  1.00  0.00     0.029 A 
HETATM   21  C   UNL     1     -40.803  53.903 -52.260  1.00  0.00    -0.023 A 
HETATM   22  C   UNL     1     -40.472  54.159 -50.923  1.00  0.00     0.012 A 
HETATM   23  C   UNL     1     -40.854  55.354 -50.307  1.00  0.00     0.002 A 
HETATM   24  C   UNL     1     -41.586  56.305 -51.019  1.00  0.00     0.017 A 
BRANCH  21  25
HETATM   25  C   UNL     1     -40.386  52.658 -52.887  1.00  0.00    -0.002 A 
HETATM   26  C   UNL     1     -40.659  52.309 -54.195  1.00  0.00     0.153 A 
HETATM   27  O   UNL     1     -40.128  51.096 -54.494  1.00  0.00    -0.334 OA
HETATM   28  C   UNL     1     -39.501  50.654 -53.375  1.00  0.00     0.142 A 
HETATM   29  C   UNL     1     -39.625  51.576 -52.361  1.00  0.00     0.038 A 
ENDBRANCH  21  25
ENDBRANCH   2  19
TORSDOF 7
ENDMDL
