MODEL 1
REMARK VINA RESULT:      -9.6      0.000      0.000
REMARK  4 active torsions:
REMARK  status: ('A' for Active; 'I' for Inactive)
REMARK    1  A    between atoms: N_7  and  N_8 
REMARK       I    between atoms: N_8  and  C_9 
REMARK    2  A    between atoms: C_9  and  C_10 
REMARK    3  A    between atoms: C_15  and  C_16 
REMARK    4  A    between atoms: C_24  and  C_25 
ROOT
HETATM    1  C   UNL     1     -42.000  58.357 -53.964  1.00  0.00     0.150 A 
HETATM    2  N   UNL     1     -43.121  57.731 -53.535  1.00  0.00    -0.165 NA
HETATM    3  N   UNL     1     -42.654  56.610 -52.963  1.00  0.00    -0.240 N 
HETATM    4  C   UNL     1     -41.304  56.442 -53.082  1.00  0.00     0.123 A 
HETATM    5  N   UNL     1     -40.699  55.307 -52.675  1.00  0.00    -0.366 N 
HETATM    6  C   UNL     1     -41.446  54.174 -52.134  1.00  0.00     0.118 C 
HETATM    7  C   UNL     1     -42.925  54.224 -52.572  1.00  0.00     0.066 C 
HETATM    8  C   UNL     1     -43.533  55.622 -52.372  1.00  0.00     0.221 C 
HETATM    9  C   UNL     1     -40.838  57.585 -53.674  1.00  0.00     0.089 A 
HETATM   10  H   UNL     1     -39.683  55.220 -52.661  1.00  0.00     0.161 HD
ENDROOT
BRANCH   1  11
HETATM   11  C   UNL     1     -42.041  59.649 -54.666  1.00  0.00     0.292 C 
HETATM   12  N   UNL     1     -41.818  59.516 -56.028  1.00  0.00    -0.241 N 
HETATM   13  H   UNL     1     -41.655  58.572 -56.393  1.00  0.00     0.192 HD
HETATM   14  O   UNL     1     -42.234  60.708 -54.075  1.00  0.00    -0.264 OA
BRANCH  12  15
HETATM   15  N   UNL     1     -41.785  60.606 -56.849  1.00  0.00    -0.165 NA
HETATM   16  C   UNL     1     -41.839  60.379 -58.121  1.00  0.00     0.157 A 
HETATM   17  C   UNL     1     -41.824  61.402 -59.160  1.00  0.00     0.027 A 
HETATM   18  C   UNL     1     -41.927  59.038 -58.860  1.00  0.00     0.277 A 
HETATM   19  C   UNL     1     -41.751  62.777 -59.068  1.00  0.00     0.016 A 
HETATM   20  C   UNL     1     -41.901  60.735 -60.381  1.00  0.00     0.048 A 
HETATM   21  C   UNL     1     -41.758  63.492 -60.268  1.00  0.00     0.001 A 
HETATM   22  C   UNL     1     -41.838  62.822 -61.507  1.00  0.00     0.002 A 
HETATM   23  C   UNL     1     -41.910  61.425 -61.574  1.00  0.00     0.030 A 
HETATM   24  N   UNL     1     -41.962  59.356 -60.201  1.00  0.00    -0.321 N 
HETATM   25  H   UNL     1     -42.021  58.663 -60.932  1.00  0.00     0.169 HD
HETATM   26  O   UNL     1     -41.953  57.947 -58.333  1.00  0.00    -0.266 OA
ENDBRANCH  12  15
ENDBRANCH   1  11
BRANCH   8  27
HETATM   27  C   UNL     1     -43.772  55.950 -50.915  1.00  0.00     0.409 C 
HETATM   28  F   UNL     1     -44.748  56.865 -50.739  1.00  0.00    -0.169 F 
HETATM   29  F   UNL     1     -44.169  54.830 -50.254  1.00  0.00    -0.169 F 
HETATM   30  F   UNL     1     -42.668  56.396 -50.278  1.00  0.00    -0.169 F 
ENDBRANCH   8  27
BRANCH   6  31
HETATM   31  C   UNL     1     -40.803  52.874 -52.594  1.00  0.00    -0.035 A 
HETATM   32  C   UNL     1     -40.923  52.462 -53.931  1.00  0.00     0.012 A 
HETATM   33  C   UNL     1     -40.317  51.279 -54.364  1.00  0.00     0.043 A 
HETATM   34  C   UNL     1     -39.589  50.508 -53.464  1.00  0.00     0.116 A 
HETATM   35  F   UNL     1     -39.011  49.376 -53.883  1.00  0.00    -0.206 F 
HETATM   36  C   UNL     1     -39.453  50.897 -52.138  1.00  0.00     0.043 A 
HETATM   37  C   UNL     1     -40.055  52.078 -51.704  1.00  0.00     0.012 A 
ENDBRANCH   6  31
TORSDOF 4
ENDMDL
MODEL 2
REMARK VINA RESULT:      -9.6      3.611      9.896
REMARK  4 active torsions:
REMARK  status: ('A' for Active; 'I' for Inactive)
REMARK    1  A    between atoms: N_7  and  N_8 
REMARK       I    between atoms: N_8  and  C_9 
REMARK    2  A    between atoms: C_9  and  C_10 
REMARK    3  A    between atoms: C_15  and  C_16 
REMARK    4  A    between atoms: C_24  and  C_25 
ROOT
HETATM    1  C   UNL     1     -42.417  56.367 -56.377  1.00  0.00     0.150 A 
HETATM    2  N   UNL     1     -42.480  57.390 -55.494  1.00  0.00    -0.165 NA
HETATM    3  N   UNL     1     -42.598  58.473 -56.278  1.00  0.00    -0.240 N 
HETATM    4  C   UNL     1     -42.523  58.206 -57.616  1.00  0.00     0.123 A 
HETATM    5  N   UNL     1     -42.495  59.198 -58.529  1.00  0.00    -0.366 N 
HETATM    6  C   UNL     1     -42.488  60.609 -58.151  1.00  0.00     0.118 C 
HETATM    7  C   UNL     1     -41.996  60.792 -56.700  1.00  0.00     0.066 C 
HETATM    8  C   UNL     1     -42.684  59.813 -55.735  1.00  0.00     0.221 C 
HETATM    9  C   UNL     1     -42.466  56.842 -57.719  1.00  0.00     0.089 A 
HETATM   10  H   UNL     1     -42.549  59.003 -59.529  1.00  0.00     0.161 HD
ENDROOT
BRANCH   1  11
HETATM   11  C   UNL     1     -42.280  54.966 -55.949  1.00  0.00     0.292 C 
HETATM   12  N   UNL     1     -40.969  54.634 -55.642  1.00  0.00    -0.241 N 
HETATM   13  H   UNL     1     -40.258  55.366 -55.741  1.00  0.00     0.192 HD
HETATM   14  O   UNL     1     -43.239  54.200 -55.898  1.00  0.00    -0.264 OA
BRANCH  12  15
HETATM   15  N   UNL     1     -40.631  53.370 -55.256  1.00  0.00    -0.165 NA
HETATM   16  C   UNL     1     -40.481  53.169 -53.986  1.00  0.00     0.157 A 
HETATM   17  C   UNL     1     -40.130  51.894 -53.372  1.00  0.00     0.027 A 
HETATM   18  C   UNL     1     -40.619  54.165 -52.828  1.00  0.00     0.277 A 
HETATM   19  C   UNL     1     -39.881  50.660 -53.937  1.00  0.00     0.016 A 
HETATM   20  C   UNL     1     -40.074  52.114 -51.997  1.00  0.00     0.048 A 
HETATM   21  C   UNL     1     -39.566  49.617 -53.064  1.00  0.00     0.001 A 
HETATM   22  C   UNL     1     -39.509  49.832 -51.671  1.00  0.00     0.002 A 
HETATM   23  C   UNL     1     -39.765  51.095 -51.122  1.00  0.00     0.030 A 
HETATM   24  N   UNL     1     -40.361  53.440 -51.685  1.00  0.00    -0.321 N 
HETATM   25  H   UNL     1     -40.381  53.841 -50.759  1.00  0.00     0.169 HD
HETATM   26  O   UNL     1     -40.895  55.340 -52.943  1.00  0.00    -0.266 OA
ENDBRANCH  12  15
ENDBRANCH   1  11
BRANCH   8  27
HETATM   27  C   UNL     1     -44.129  60.172 -55.474  1.00  0.00     0.409 C 
HETATM   28  F   UNL     1     -44.985  59.516 -56.286  1.00  0.00    -0.169 F 
HETATM   29  F   UNL     1     -44.463  59.828 -54.202  1.00  0.00    -0.169 F 
HETATM   30  F   UNL     1     -44.383  61.494 -55.590  1.00  0.00    -0.169 F 
ENDBRANCH   8  27
BRANCH   6  31
HETATM   31  C   UNL     1     -41.603  61.389 -59.111  1.00  0.00    -0.035 A 
HETATM   32  C   UNL     1     -40.480  62.081 -58.631  1.00  0.00     0.012 A 
HETATM   33  C   UNL     1     -39.651  62.783 -59.512  1.00  0.00     0.043 A 
HETATM   34  C   UNL     1     -39.941  62.793 -60.871  1.00  0.00     0.116 A 
HETATM   35  F   UNL     1     -39.146  63.466 -61.711  1.00  0.00    -0.206 F 
HETATM   36  C   UNL     1     -41.044  62.112 -61.370  1.00  0.00     0.043 A 
HETATM   37  C   UNL     1     -41.872  61.410 -60.494  1.00  0.00     0.012 A 
ENDBRANCH   6  31
TORSDOF 4
ENDMDL
MODEL 3
REMARK VINA RESULT:      -9.4      3.754      4.255
REMARK  4 active torsions:
REMARK  status: ('A' for Active; 'I' for Inactive)
REMARK    1  A    between atoms: N_7  and  N_8 
REMARK       I    between atoms: N_8  and  C_9 
REMARK    2  A    between atoms: C_9  and  C_10 
REMARK    3  A    between atoms: C_15  and  C_16 
REMARK    4  A    between atoms: C_24  and  C_25 
ROOT
HETATM    1  C   UNL     1     -43.860  57.219 -55.262  1.00  0.00     0.150 A 
HETATM    2  N   UNL     1     -43.812  57.286 -53.912  1.00  0.00    -0.165 NA
HETATM    3  N   UNL     1     -42.744  56.535 -53.599  1.00  0.00    -0.240 N 
HETATM    4  C   UNL     1     -42.161  55.918 -54.669  1.00  0.00     0.123 A 
HETATM    5  N   UNL     1     -41.161  55.029 -54.507  1.00  0.00    -0.366 N 
HETATM    6  C   UNL     1     -40.675  54.630 -53.187  1.00  0.00     0.118 C 
HETATM    7  C   UNL     1     -41.734  54.907 -52.100  1.00  0.00     0.066 C 
HETATM    8  C   UNL     1     -42.329  56.319 -52.228  1.00  0.00     0.221 C 
HETATM    9  C   UNL     1     -42.822  56.387 -55.773  1.00  0.00     0.089 A 
HETATM   10  H   UNL     1     -40.651  54.649 -55.304  1.00  0.00     0.161 HD
ENDROOT
BRANCH   1  11
HETATM   11  C   UNL     1     -44.895  57.908 -56.048  1.00  0.00     0.292 C 
HETATM   12  N   UNL     1     -44.927  57.483 -57.368  1.00  0.00    -0.241 N 
HETATM   13  H   UNL     1     -44.255  56.763 -57.650  1.00  0.00     0.192 HD
HETATM   14  O   UNL     1     -45.620  58.772 -55.560  1.00  0.00    -0.264 OA
BRANCH  12  15
HETATM   15  N   UNL     1     -45.798  58.027 -58.265  1.00  0.00    -0.165 NA
HETATM   16  C   UNL     1     -46.097  57.307 -59.298  1.00  0.00     0.157 A 
HETATM   17  C   UNL     1     -47.010  57.702 -60.364  1.00  0.00     0.027 A 
HETATM   18  C   UNL     1     -45.597  55.907 -59.676  1.00  0.00     0.277 A 
HETATM   19  C   UNL     1     -47.739  58.860 -60.541  1.00  0.00     0.016 A 
HETATM   20  C   UNL     1     -47.049  56.645 -61.270  1.00  0.00     0.048 A 
HETATM   21  C   UNL     1     -48.537  58.936 -61.686  1.00  0.00     0.001 A 
HETATM   22  C   UNL     1     -48.582  57.867 -62.606  1.00  0.00     0.002 A 
HETATM   23  C   UNL     1     -47.831  56.703 -62.404  1.00  0.00     0.030 A 
HETATM   24  N   UNL     1     -46.224  55.599 -60.864  1.00  0.00    -0.321 N 
HETATM   25  H   UNL     1     -46.084  54.728 -61.354  1.00  0.00     0.169 HD
HETATM   26  O   UNL     1     -44.809  55.247 -59.034  1.00  0.00    -0.266 OA
ENDBRANCH  12  15
ENDBRANCH   1  11
BRANCH   8  27
HETATM   27  C   UNL     1     -41.360  57.400 -51.807  1.00  0.00     0.409 C 
HETATM   28  F   UNL     1     -41.978  58.491 -51.306  1.00  0.00    -0.169 F 
HETATM   29  F   UNL     1     -40.550  56.929 -50.822  1.00  0.00    -0.169 F 
HETATM   30  F   UNL     1     -40.546  57.809 -52.805  1.00  0.00    -0.169 F 
ENDBRANCH   8  27
BRANCH   6  31
HETATM   31  C   UNL     1     -40.310  53.153 -53.204  1.00  0.00    -0.035 A 
HETATM   32  C   UNL     1     -39.871  52.522 -52.030  1.00  0.00     0.012 A 
HETATM   33  C   UNL     1     -39.553  51.160 -52.035  1.00  0.00     0.043 A 
HETATM   34  C   UNL     1     -39.676  50.428 -53.210  1.00  0.00     0.116 A 
HETATM   35  F   UNL     1     -39.371  49.125 -53.210  1.00  0.00    -0.206 F 
HETATM   36  C   UNL     1     -40.112  51.030 -54.383  1.00  0.00     0.043 A 
HETATM   37  C   UNL     1     -40.431  52.387 -54.381  1.00  0.00     0.012 A 
ENDBRANCH   6  31
TORSDOF 4
ENDMDL
MODEL 4
REMARK VINA RESULT:      -9.4      2.411      2.810
REMARK  4 active torsions:
REMARK  status: ('A' for Active; 'I' for Inactive)
REMARK    1  A    between atoms: N_7  and  N_8 
REMARK       I    between atoms: N_8  and  C_9 
REMARK    2  A    between atoms: C_9  and  C_10 
REMARK    3  A    between atoms: C_15  and  C_16 
REMARK    4  A    between atoms: C_24  and  C_25 
ROOT
HETATM    1  C   UNL     1     -43.580  56.892 -54.934  1.00  0.00     0.150 A 
HETATM    2  N   UNL     1     -43.687  56.896 -53.585  1.00  0.00    -0.165 NA
HETATM    3  N   UNL     1     -42.659  56.129 -53.187  1.00  0.00    -0.240 N 
HETATM    4  C   UNL     1     -41.955  55.562 -54.211  1.00  0.00     0.123 A 
HETATM    5  N   UNL     1     -40.976  54.665 -53.977  1.00  0.00    -0.366 N 
HETATM    6  C   UNL     1     -40.643  54.205 -52.630  1.00  0.00     0.118 C 
HETATM    7  C   UNL     1     -41.820  54.432 -51.659  1.00  0.00     0.066 C 
HETATM    8  C   UNL     1     -42.403  55.849 -51.789  1.00  0.00     0.221 C 
HETATM    9  C   UNL     1     -42.487  56.083 -55.361  1.00  0.00     0.089 A 
HETATM   10  H   UNL     1     -40.377  54.322 -54.728  1.00  0.00     0.161 HD
ENDROOT
BRANCH   1  11
HETATM   11  C   UNL     1     -44.521  57.618 -55.800  1.00  0.00     0.292 C 
HETATM   12  N   UNL     1     -44.381  57.276 -57.137  1.00  0.00    -0.241 N 
HETATM   13  H   UNL     1     -43.666  56.581 -57.376  1.00  0.00     0.192 HD
HETATM   14  O   UNL     1     -45.316  58.442 -55.355  1.00  0.00    -0.264 OA
BRANCH  12  15
HETATM   15  N   UNL     1     -45.143  57.866 -58.102  1.00  0.00    -0.165 NA
HETATM   16  C   UNL     1     -44.519  58.577 -58.984  1.00  0.00     0.157 A 
HETATM   17  C   UNL     1     -45.147  59.280 -60.096  1.00  0.00     0.027 A 
HETATM   18  C   UNL     1     -43.018  58.870 -59.102  1.00  0.00     0.277 A 
HETATM   19  C   UNL     1     -46.472  59.369 -60.472  1.00  0.00     0.016 A 
HETATM   20  C   UNL     1     -44.125  59.915 -60.798  1.00  0.00     0.048 A 
HETATM   21  C   UNL     1     -46.758  60.132 -61.606  1.00  0.00     0.001 A 
HETATM   22  C   UNL     1     -45.727  60.775 -62.322  1.00  0.00     0.002 A 
HETATM   23  C   UNL     1     -44.389  60.671 -61.920  1.00  0.00     0.030 A 
HETATM   24  N   UNL     1     -42.884  59.671 -60.215  1.00  0.00    -0.321 N 
HETATM   25  H   UNL     1     -41.996  60.023 -60.540  1.00  0.00     0.169 HD
HETATM   26  O   UNL     1     -42.163  58.463 -58.346  1.00  0.00    -0.266 OA
ENDBRANCH  12  15
ENDBRANCH   1  11
BRANCH   8  27
HETATM   27  C   UNL     1     -41.492  56.908 -51.210  1.00  0.00     0.409 C 
HETATM   28  F   UNL     1     -40.668  57.450 -52.132  1.00  0.00    -0.169 F 
HETATM   29  F   UNL     1     -42.238  57.929 -50.711  1.00  0.00    -0.169 F 
HETATM   30  F   UNL     1     -40.730  56.460 -50.189  1.00  0.00    -0.169 F 
ENDBRANCH   8  27
BRANCH   6  31
HETATM   31  C   UNL     1     -40.272  52.730 -52.674  1.00  0.00    -0.035 A 
HETATM   32  C   UNL     1     -40.318  52.026 -53.889  1.00  0.00     0.012 A 
HETATM   33  C   UNL     1     -39.959  50.676 -53.939  1.00  0.00     0.043 A 
HETATM   34  C   UNL     1     -39.552  50.028 -52.778  1.00  0.00     0.116 A 
HETATM   35  F   UNL     1     -39.209  48.736 -52.831  1.00  0.00    -0.206 F 
HETATM   36  C   UNL     1     -39.494  50.704 -51.567  1.00  0.00     0.043 A 
HETATM   37  C   UNL     1     -39.850  52.051 -51.514  1.00  0.00     0.012 A 
ENDBRANCH   6  31
TORSDOF 4
ENDMDL
MODEL 5
REMARK VINA RESULT:      -9.4      4.794      9.873
REMARK  4 active torsions:
REMARK  status: ('A' for Active; 'I' for Inactive)
REMARK    1  A    between atoms: N_7  and  N_8 
REMARK       I    between atoms: N_8  and  C_9 
REMARK    2  A    between atoms: C_9  and  C_10 
REMARK    3  A    between atoms: C_15  and  C_16 
REMARK    4  A    between atoms: C_24  and  C_25 
ROOT
HETATM    1  C   UNL     1     -42.969  57.223 -52.660  1.00  0.00     0.150 A 
HETATM    2  N   UNL     1     -43.570  58.181 -53.402  1.00  0.00    -0.165 NA
HETATM    3  N   UNL     1     -43.522  59.265 -52.611  1.00  0.00    -0.240 N 
HETATM    4  C   UNL     1     -43.004  59.029 -51.370  1.00  0.00     0.123 A 
HETATM    5  N   UNL     1     -43.006  59.982 -50.415  1.00  0.00    -0.366 N 
HETATM    6  C   UNL     1     -43.603  61.298 -50.627  1.00  0.00     0.118 C 
HETATM    7  C   UNL     1     -44.631  61.263 -51.777  1.00  0.00     0.066 C 
HETATM    8  C   UNL     1     -44.077  60.540 -53.016  1.00  0.00     0.221 C 
HETATM    9  C   UNL     1     -42.579  57.727 -51.386  1.00  0.00     0.089 A 
HETATM   10  H   UNL     1     -42.524  59.846 -49.526  1.00  0.00     0.161 HD
ENDROOT
BRANCH   1  11
HETATM   11  C   UNL     1     -42.801  55.844 -53.145  1.00  0.00     0.292 C 
HETATM   12  N   UNL     1     -41.467  55.478 -53.243  1.00  0.00    -0.241 N 
HETATM   13  H   UNL     1     -40.763  56.175 -52.980  1.00  0.00     0.192 HD
HETATM   14  O   UNL     1     -43.759  55.132 -53.437  1.00  0.00    -0.264 OA
BRANCH  12  15
HETATM   15  N   UNL     1     -41.103  54.247 -53.705  1.00  0.00    -0.165 NA
HETATM   16  C   UNL     1     -40.675  53.398 -52.828  1.00  0.00     0.157 A 
HETATM   17  C   UNL     1     -40.246  52.035 -53.115  1.00  0.00     0.027 A 
HETATM   18  C   UNL     1     -40.500  53.579 -51.315  1.00  0.00     0.277 A 
HETATM   19  C   UNL     1     -40.187  51.342 -54.306  1.00  0.00     0.016 A 
HETATM   20  C   UNL     1     -39.866  51.469 -51.899  1.00  0.00     0.048 A 
HETATM   21  C   UNL     1     -39.724  50.025 -54.250  1.00  0.00     0.001 A 
HETATM   22  C   UNL     1     -39.340  49.447 -53.022  1.00  0.00     0.002 A 
HETATM   23  C   UNL     1     -39.408  50.171 -51.826  1.00  0.00     0.030 A 
HETATM   24  N   UNL     1     -40.018  52.374 -50.852  1.00  0.00    -0.321 N 
HETATM   25  H   UNL     1     -39.807  52.199 -49.880  1.00  0.00     0.169 HD
HETATM   26  O   UNL     1     -40.746  54.592 -50.696  1.00  0.00    -0.266 OA
ENDBRANCH  12  15
ENDBRANCH   1  11
BRANCH   8  27
HETATM   27  C   UNL     1     -43.029  61.352 -53.744  1.00  0.00     0.409 C 
HETATM   28  F   UNL     1     -41.791  60.826 -53.633  1.00  0.00    -0.169 F 
HETATM   29  F   UNL     1     -43.317  61.385 -55.071  1.00  0.00    -0.169 F 
HETATM   30  F   UNL     1     -42.968  62.638 -53.336  1.00  0.00    -0.169 F 
ENDBRANCH   8  27
BRANCH   6  31
HETATM   31  C   UNL     1     -44.266  61.768 -49.341  1.00  0.00    -0.035 A 
HETATM   32  C   UNL     1     -44.939  60.851 -48.517  1.00  0.00     0.012 A 
HETATM   33  C   UNL     1     -45.532  61.273 -47.324  1.00  0.00     0.043 A 
HETATM   34  C   UNL     1     -45.453  62.610 -46.951  1.00  0.00     0.116 A 
HETATM   35  F   UNL     1     -46.023  63.010 -45.808  1.00  0.00    -0.206 F 
HETATM   36  C   UNL     1     -44.790  63.535 -47.746  1.00  0.00     0.043 A 
HETATM   37  C   UNL     1     -44.195  63.116 -48.936  1.00  0.00     0.012 A 
ENDBRANCH   6  31
TORSDOF 4
ENDMDL
MODEL 6
REMARK VINA RESULT:      -9.2      5.163      8.021
REMARK  4 active torsions:
REMARK  status: ('A' for Active; 'I' for Inactive)
REMARK    1  A    between atoms: N_7  and  N_8 
REMARK       I    between atoms: N_8  and  C_9 
REMARK    2  A    between atoms: C_9  and  C_10 
REMARK    3  A    between atoms: C_15  and  C_16 
REMARK    4  A    between atoms: C_24  and  C_25 
ROOT
HETATM    1  C   UNL     1     -44.862  58.518 -51.614  1.00  0.00     0.150 A 
HETATM    2  N   UNL     1     -43.918  58.974 -52.469  1.00  0.00    -0.165 NA
HETATM    3  N   UNL     1     -43.386  57.850 -52.976  1.00  0.00    -0.240 N 
HETATM    4  C   UNL     1     -43.879  56.701 -52.426  1.00  0.00     0.123 A 
HETATM    5  N   UNL     1     -43.357  55.496 -52.734  1.00  0.00    -0.366 N 
HETATM    6  C   UNL     1     -42.210  55.346 -53.627  1.00  0.00     0.118 C 
HETATM    7  C   UNL     1     -41.400  56.656 -53.714  1.00  0.00     0.066 C 
HETATM    8  C   UNL     1     -42.308  57.875 -53.943  1.00  0.00     0.221 C 
HETATM    9  C   UNL     1     -44.881  57.094 -51.580  1.00  0.00     0.089 A 
HETATM   10  H   UNL     1     -43.789  54.630 -52.412  1.00  0.00     0.161 HD
ENDROOT
BRANCH   1  11
HETATM   11  C   UNL     1     -45.707  59.424 -50.820  1.00  0.00     0.292 C 
HETATM   12  N   UNL     1     -45.251  59.566 -49.518  1.00  0.00    -0.241 N 
HETATM   13  H   UNL     1     -44.407  59.048 -49.252  1.00  0.00     0.192 HD
HETATM   14  O   UNL     1     -46.708  59.961 -51.287  1.00  0.00    -0.264 OA
BRANCH  12  15
HETATM   15  N   UNL     1     -45.918  60.340 -48.615  1.00  0.00    -0.165 NA
HETATM   16  C   UNL     1     -45.458  61.533 -48.418  1.00  0.00     0.157 A 
HETATM   17  C   UNL     1     -46.029  62.515 -47.503  1.00  0.00     0.027 A 
HETATM   18  C   UNL     1     -44.241  62.216 -49.053  1.00  0.00     0.277 A 
HETATM   19  C   UNL     1     -47.126  62.437 -46.669  1.00  0.00     0.016 A 
HETATM   20  C   UNL     1     -45.237  63.657 -47.596  1.00  0.00     0.048 A 
HETATM   21  C   UNL     1     -47.421  63.568 -45.905  1.00  0.00     0.001 A 
HETATM   22  C   UNL     1     -46.624  64.729 -45.996  1.00  0.00     0.002 A 
HETATM   23  C   UNL     1     -45.515  64.782 -46.850  1.00  0.00     0.030 A 
HETATM   24  N   UNL     1     -44.196  63.479 -48.502  1.00  0.00    -0.321 N 
HETATM   25  H   UNL     1     -43.491  64.160 -48.739  1.00  0.00     0.169 HD
HETATM   26  O   UNL     1     -43.498  61.710 -49.866  1.00  0.00    -0.266 OA
ENDBRANCH  12  15
ENDBRANCH   1  11
BRANCH   8  27
HETATM   27  C   UNL     1     -42.873  57.926 -55.345  1.00  0.00     0.409 C 
HETATM   28  F   UNL     1     -44.098  57.368 -55.435  1.00  0.00    -0.169 F 
HETATM   29  F   UNL     1     -43.008  59.221 -55.736  1.00  0.00    -0.169 F 
HETATM   30  F   UNL     1     -42.081  57.332 -56.263  1.00  0.00    -0.169 F 
ENDBRANCH   8  27
BRANCH   6  31
HETATM   31  C   UNL     1     -41.326  54.210 -53.133  1.00  0.00    -0.035 A 
HETATM   32  C   UNL     1     -40.960  54.139 -51.779  1.00  0.00     0.012 A 
HETATM   33  C   UNL     1     -40.165  53.087 -51.315  1.00  0.00     0.043 A 
HETATM   34  C   UNL     1     -39.737  52.105 -52.200  1.00  0.00     0.116 A 
HETATM   35  F   UNL     1     -38.976  51.099 -51.752  1.00  0.00    -0.206 F 
HETATM   36  C   UNL     1     -40.090  52.151 -53.542  1.00  0.00     0.043 A 
HETATM   37  C   UNL     1     -40.884  53.198 -54.008  1.00  0.00     0.012 A 
ENDBRANCH   6  31
TORSDOF 4
ENDMDL
MODEL 7
REMARK VINA RESULT:      -9.0      5.438      9.800
REMARK  4 active torsions:
REMARK  status: ('A' for Active; 'I' for Inactive)
REMARK    1  A    between atoms: N_7  and  N_8 
REMARK       I    between atoms: N_8  and  C_9 
REMARK    2  A    between atoms: C_9  and  C_10 
REMARK    3  A    between atoms: C_15  and  C_16 
REMARK    4  A    between atoms: C_24  and  C_25 
ROOT
HETATM    1  C   UNL     1     -42.755  58.730 -52.333  1.00  0.00     0.150 A 
HETATM    2  N   UNL     1     -44.067  58.982 -52.546  1.00  0.00    -0.165 NA
HETATM    3  N   UNL     1     -44.322  60.021 -51.734  1.00  0.00    -0.240 N 
HETATM    4  C   UNL     1     -43.267  60.388 -50.948  1.00  0.00     0.123 A 
HETATM    5  N   UNL     1     -43.400  61.328 -49.989  1.00  0.00    -0.366 N 
HETATM    6  C   UNL     1     -44.680  61.970 -49.696  1.00  0.00     0.118 C 
HETATM    7  C   UNL     1     -45.859  61.109 -50.194  1.00  0.00     0.066 C 
HETATM    8  C   UNL     1     -45.639  60.616 -51.634  1.00  0.00     0.221 C 
HETATM    9  C   UNL     1     -42.215  59.611 -51.352  1.00  0.00     0.089 A 
HETATM   10  H   UNL     1     -42.594  61.682 -49.475  1.00  0.00     0.161 HD
ENDROOT
BRANCH   1  11
HETATM   11  C   UNL     1     -42.039  57.648 -53.027  1.00  0.00     0.292 C 
HETATM   12  N   UNL     1     -42.654  56.417 -52.860  1.00  0.00    -0.241 N 
HETATM   13  H   UNL     1     -43.509  56.386 -52.295  1.00  0.00     0.192 HD
HETATM   14  O   UNL     1     -41.005  57.849 -53.658  1.00  0.00    -0.264 OA
BRANCH  12  15
HETATM   15  N   UNL     1     -42.124  55.282 -53.401  1.00  0.00    -0.165 NA
HETATM   16  C   UNL     1     -41.476  54.501 -52.598  1.00  0.00     0.157 A 
HETATM   17  C   UNL     1     -40.843  53.244 -52.976  1.00  0.00     0.027 A 
HETATM   18  C   UNL     1     -41.201  54.671 -51.099  1.00  0.00     0.277 A 
HETATM   19  C   UNL     1     -40.771  52.603 -54.196  1.00  0.00     0.016 A 
HETATM   20  C   UNL     1     -40.263  52.724 -51.821  1.00  0.00     0.048 A 
HETATM   21  C   UNL     1     -40.081  51.389 -54.233  1.00  0.00     0.001 A 
HETATM   22  C   UNL     1     -39.494  50.856 -53.066  1.00  0.00     0.002 A 
HETATM   23  C   UNL     1     -39.580  51.526 -51.840  1.00  0.00     0.030 A 
HETATM   24  N   UNL     1     -40.476  53.559 -50.728  1.00  0.00    -0.321 N 
HETATM   25  H   UNL     1     -40.151  53.399 -49.786  1.00  0.00     0.169 HD
HETATM   26  O   UNL     1     -41.564  55.608 -50.421  1.00  0.00    -0.266 OA
ENDBRANCH  12  15
ENDBRANCH   1  11
BRANCH   8  27
HETATM   27  C   UNL     1     -45.785  61.720 -52.656  1.00  0.00     0.409 C 
HETATM   28  F   UNL     1     -44.604  62.277 -52.996  1.00  0.00    -0.169 F 
HETATM   29  F   UNL     1     -46.318  61.216 -53.801  1.00  0.00    -0.169 F 
HETATM   30  F   UNL     1     -46.609  62.714 -52.258  1.00  0.00    -0.169 F 
ENDBRANCH   8  27
BRANCH   6  31
HETATM   31  C   UNL     1     -44.797  62.209 -48.198  1.00  0.00    -0.035 A 
HETATM   32  C   UNL     1     -44.942  63.515 -47.701  1.00  0.00     0.012 A 
HETATM   33  C   UNL     1     -45.071  63.739 -46.328  1.00  0.00     0.043 A 
HETATM   34  C   UNL     1     -45.058  62.662 -45.449  1.00  0.00     0.116 A 
HETATM   35  F   UNL     1     -45.181  62.881 -44.135  1.00  0.00    -0.206 F 
HETATM   36  C   UNL     1     -44.920  61.362 -45.917  1.00  0.00     0.043 A 
HETATM   37  C   UNL     1     -44.793  61.134 -47.287  1.00  0.00     0.012 A 
ENDBRANCH   6  31
TORSDOF 4
ENDMDL
MODEL 8
REMARK VINA RESULT:      -8.8      4.873      7.932
REMARK  4 active torsions:
REMARK  status: ('A' for Active; 'I' for Inactive)
REMARK    1  A    between atoms: N_7  and  N_8 
REMARK       I    between atoms: N_8  and  C_9 
REMARK    2  A    between atoms: C_9  and  C_10 
REMARK    3  A    between atoms: C_15  and  C_16 
REMARK    4  A    between atoms: C_24  and  C_25 
ROOT
HETATM    1  C   UNL     1     -41.961  58.637 -53.643  1.00  0.00     0.150 A 
HETATM    2  N   UNL     1     -42.123  57.329 -53.341  1.00  0.00    -0.165 NA
HETATM    3  N   UNL     1     -42.130  56.728 -54.542  1.00  0.00    -0.240 N 
HETATM    4  C   UNL     1     -42.071  57.592 -55.598  1.00  0.00     0.123 A 
HETATM    5  N   UNL     1     -42.199  57.156 -56.868  1.00  0.00    -0.366 N 
HETATM    6  C   UNL     1     -42.458  55.754 -57.192  1.00  0.00     0.118 C 
HETATM    7  C   UNL     1     -43.070  55.011 -55.986  1.00  0.00     0.066 C 
HETATM    8  C   UNL     1     -42.298  55.297 -54.687  1.00  0.00     0.221 C 
HETATM    9  C   UNL     1     -41.900  58.836 -55.053  1.00  0.00     0.089 A 
HETATM   10  H   UNL     1     -42.047  57.777 -57.663  1.00  0.00     0.161 HD
ENDROOT
BRANCH   1  11
HETATM   11  C   UNL     1     -41.898  59.682 -52.609  1.00  0.00     0.292 C 
HETATM   12  N   UNL     1     -43.062  60.433 -52.547  1.00  0.00    -0.241 N 
HETATM   13  H   UNL     1     -43.816  60.195 -53.199  1.00  0.00     0.192 HD
HETATM   14  O   UNL     1     -40.902  59.851 -51.911  1.00  0.00    -0.264 OA
BRANCH  12  15
HETATM   15  N   UNL     1     -43.187  61.473 -51.672  1.00  0.00    -0.165 NA
HETATM   16  C   UNL     1     -43.943  61.278 -50.640  1.00  0.00     0.157 A 
HETATM   17  C   UNL     1     -44.200  62.255 -49.589  1.00  0.00     0.027 A 
HETATM   18  C   UNL     1     -44.744  60.029 -50.252  1.00  0.00     0.277 A 
HETATM   19  C   UNL     1     -43.743  63.547 -49.429  1.00  0.00     0.016 A 
HETATM   20  C   UNL     1     -45.056  61.644 -48.675  1.00  0.00     0.048 A 
HETATM   21  C   UNL     1     -44.178  64.236 -48.295  1.00  0.00     0.001 A 
HETATM   22  C   UNL     1     -45.043  63.623 -47.365  1.00  0.00     0.002 A 
HETATM   23  C   UNL     1     -45.494  62.310 -47.550  1.00  0.00     0.030 A 
HETATM   24  N   UNL     1     -45.370  60.346 -49.065  1.00  0.00    -0.321 N 
HETATM   25  H   UNL     1     -45.972  59.705 -48.569  1.00  0.00     0.169 HD
HETATM   26  O   UNL     1     -44.791  58.999 -50.890  1.00  0.00    -0.266 OA
ENDBRANCH  12  15
ENDBRANCH   1  11
BRANCH   8  27
HETATM   27  C   UNL     1     -40.950  54.613 -54.648  1.00  0.00     0.409 C 
HETATM   28  F   UNL     1     -39.938  55.432 -55.002  1.00  0.00    -0.169 F 
HETATM   29  F   UNL     1     -40.685  54.197 -53.381  1.00  0.00    -0.169 F 
HETATM   30  F   UNL     1     -40.884  53.514 -55.431  1.00  0.00    -0.169 F 
ENDBRANCH   8  27
BRANCH   6  31
HETATM   31  C   UNL     1     -43.392  55.673 -58.390  1.00  0.00    -0.035 A 
HETATM   32  C   UNL     1     -43.679  56.825 -59.140  1.00  0.00     0.012 A 
HETATM   33  C   UNL     1     -44.520  56.753 -60.254  1.00  0.00     0.043 A 
HETATM   34  C   UNL     1     -45.072  55.532 -60.623  1.00  0.00     0.116 A 
HETATM   35  F   UNL     1     -45.877  55.467 -61.691  1.00  0.00    -0.206 F 
HETATM   36  C   UNL     1     -44.800  54.378 -59.900  1.00  0.00     0.043 A 
HETATM   37  C   UNL     1     -43.960  54.447 -58.789  1.00  0.00     0.012 A 
ENDBRANCH   6  31
TORSDOF 4
ENDMDL
MODEL 9
REMARK VINA RESULT:      -8.7      4.421     10.092
REMARK  4 active torsions:
REMARK  status: ('A' for Active; 'I' for Inactive)
REMARK    1  A    between atoms: N_7  and  N_8 
REMARK       I    between atoms: N_8  and  C_9 
REMARK    2  A    between atoms: C_9  and  C_10 
REMARK    3  A    between atoms: C_15  and  C_16 
REMARK    4  A    between atoms: C_24  and  C_25 
ROOT
HETATM    1  C   UNL     1     -43.148  57.398 -55.977  1.00  0.00     0.150 A 
HETATM    2  N   UNL     1     -44.069  56.883 -56.824  1.00  0.00    -0.165 NA
HETATM    3  N   UNL     1     -43.674  57.331 -58.026  1.00  0.00    -0.240 N 
HETATM    4  C   UNL     1     -42.604  58.178 -57.982  1.00  0.00     0.123 A 
HETATM    5  N   UNL     1     -42.167  58.815 -59.089  1.00  0.00    -0.366 N 
HETATM    6  C   UNL     1     -42.835  58.683 -60.381  1.00  0.00     0.118 C 
HETATM    7  C   UNL     1     -44.294  58.213 -60.206  1.00  0.00     0.066 C 
HETATM    8  C   UNL     1     -44.399  57.021 -59.241  1.00  0.00     0.221 C 
HETATM    9  C   UNL     1     -42.198  58.198 -56.675  1.00  0.00     0.089 A 
HETATM   10  H   UNL     1     -41.306  59.361 -59.084  1.00  0.00     0.161 HD
ENDROOT
BRANCH   1  11
HETATM   11  C   UNL     1     -43.194  57.160 -54.526  1.00  0.00     0.292 C 
HETATM   12  N   UNL     1     -41.940  56.897 -53.994  1.00  0.00    -0.241 N 
HETATM   13  H   UNL     1     -41.143  56.896 -54.638  1.00  0.00     0.192 HD
HETATM   14  O   UNL     1     -44.247  57.181 -53.893  1.00  0.00    -0.264 OA
BRANCH  12  15
HETATM   15  N   UNL     1     -41.778  56.618 -52.669  1.00  0.00    -0.165 NA
HETATM   16  C   UNL     1     -41.358  55.431 -52.370  1.00  0.00     0.157 A 
HETATM   17  C   UNL     1     -41.114  54.940 -51.019  1.00  0.00     0.027 A 
HETATM   18  C   UNL     1     -41.017  54.264 -53.304  1.00  0.00     0.277 A 
HETATM   19  C   UNL     1     -41.259  55.561 -49.795  1.00  0.00     0.016 A 
HETATM   20  C   UNL     1     -40.670  53.625 -51.144  1.00  0.00     0.048 A 
HETATM   21  C   UNL     1     -40.937  54.810 -48.663  1.00  0.00     0.001 A 
HETATM   22  C   UNL     1     -40.486  53.479 -48.783  1.00  0.00     0.002 A 
HETATM   23  C   UNL     1     -40.348  52.871 -50.037  1.00  0.00     0.030 A 
HETATM   24  N   UNL     1     -40.614  53.236 -52.480  1.00  0.00    -0.321 N 
HETATM   25  H   UNL     1     -40.326  52.332 -52.823  1.00  0.00     0.169 HD
HETATM   26  O   UNL     1     -41.103  54.285 -54.513  1.00  0.00    -0.266 OA
ENDBRANCH  12  15
ENDBRANCH   1  11
BRANCH   8  27
HETATM   27  C   UNL     1     -43.874  55.737 -59.842  1.00  0.00     0.409 C 
HETATM   28  F   UNL     1     -44.298  54.639 -59.181  1.00  0.00    -0.169 F 
HETATM   29  F   UNL     1     -44.320  55.615 -61.120  1.00  0.00    -0.169 F 
HETATM   30  F   UNL     1     -42.526  55.686 -59.903  1.00  0.00    -0.169 F 
ENDBRANCH   8  27
BRANCH   6  31
HETATM   31  C   UNL     1     -42.794  60.016 -61.114  1.00  0.00    -0.035 A 
HETATM   32  C   UNL     1     -43.903  60.444 -61.862  1.00  0.00     0.012 A 
HETATM   33  C   UNL     1     -43.878  61.677 -62.520  1.00  0.00     0.043 A 
HETATM   34  C   UNL     1     -42.750  62.484 -62.431  1.00  0.00     0.116 A 
HETATM   35  F   UNL     1     -42.731  63.664 -63.063  1.00  0.00    -0.206 F 
HETATM   36  C   UNL     1     -41.643  62.084 -61.694  1.00  0.00     0.043 A 
HETATM   37  C   UNL     1     -41.665  60.855 -61.034  1.00  0.00     0.012 A 
ENDBRANCH   6  31
TORSDOF 4
ENDMDL
MODEL 10
REMARK VINA RESULT:      -8.7      3.689      4.277
REMARK  4 active torsions:
REMARK  status: ('A' for Active; 'I' for Inactive)
REMARK    1  A    between atoms: N_7  and  N_8 
REMARK       I    between atoms: N_8  and  C_9 
REMARK    2  A    between atoms: C_9  and  C_10 
REMARK    3  A    between atoms: C_15  and  C_16 
REMARK    4  A    between atoms: C_24  and  C_25 
ROOT
HETATM    1  C   UNL     1     -43.253  56.412 -56.475  1.00  0.00     0.150 A 
HETATM    2  N   UNL     1     -43.506  56.621 -55.162  1.00  0.00    -0.165 NA
HETATM    3  N   UNL     1     -42.535  55.930 -54.543  1.00  0.00    -0.240 N 
HETATM    4  C   UNL     1     -41.731  55.218 -55.387  1.00  0.00     0.123 A 
HETATM    5  N   UNL     1     -40.792  54.373 -54.914  1.00  0.00    -0.366 N 
HETATM    6  C   UNL     1     -40.611  54.125 -53.485  1.00  0.00     0.118 C 
HETATM    7  C   UNL     1     -41.884  54.491 -52.693  1.00  0.00     0.066 C 
HETATM    8  C   UNL     1     -42.434  55.868 -53.099  1.00  0.00     0.221 C 
HETATM    9  C   UNL     1     -42.129  55.554 -56.653  1.00  0.00     0.089 A 
HETATM   10  H   UNL     1     -40.119  53.924 -55.534  1.00  0.00     0.161 HD
ENDROOT
BRANCH   1  11
HETATM   11  C   UNL     1     -44.088  56.992 -57.539  1.00  0.00     0.292 C 
HETATM   12  N   UNL     1     -45.189  57.669 -57.035  1.00  0.00    -0.241 N 
HETATM   13  H   UNL     1     -45.305  57.696 -56.017  1.00  0.00     0.192 HD
HETATM   14  O   UNL     1     -43.818  56.855 -58.729  1.00  0.00    -0.264 OA
BRANCH  12  15
HETATM   15  N   UNL     1     -46.103  58.250 -57.866  1.00  0.00    -0.165 NA
HETATM   16  C   UNL     1     -46.433  59.473 -57.604  1.00  0.00     0.157 A 
HETATM   17  C   UNL     1     -47.382  60.271 -58.371  1.00  0.00     0.027 A 
HETATM   18  C   UNL     1     -45.948  60.383 -56.468  1.00  0.00     0.277 A 
HETATM   19  C   UNL     1     -48.123  59.957 -59.492  1.00  0.00     0.016 A 
HETATM   20  C   UNL     1     -47.444  61.520 -57.757  1.00  0.00     0.048 A 
HETATM   21  C   UNL     1     -48.956  60.956 -60.000  1.00  0.00     0.001 A 
HETATM   22  C   UNL     1     -49.022  62.224 -59.384  1.00  0.00     0.002 A 
HETATM   23  C   UNL     1     -48.259  62.518 -58.247  1.00  0.00     0.030 A 
HETATM   24  N   UNL     1     -46.605  61.581 -56.648  1.00  0.00    -0.321 N 
HETATM   25  H   UNL     1     -46.479  62.377 -56.041  1.00  0.00     0.169 HD
HETATM   26  O   UNL     1     -45.152  60.068 -55.609  1.00  0.00    -0.266 OA
ENDBRANCH  12  15
ENDBRANCH   1  11
BRANCH   8  27
HETATM   27  C   UNL     1     -41.581  57.008 -52.593  1.00  0.00     0.409 C 
HETATM   28  F   UNL     1     -42.302  58.108 -52.292  1.00  0.00    -0.169 F 
HETATM   29  F   UNL     1     -40.952  56.634 -51.448  1.00  0.00    -0.169 F 
HETATM   30  F   UNL     1     -40.610  57.376 -53.457  1.00  0.00    -0.169 F 
ENDBRANCH   8  27
BRANCH   6  31
HETATM   31  C   UNL     1     -40.253  52.663 -53.263  1.00  0.00    -0.035 A 
HETATM   32  C   UNL     1     -39.786  52.233 -52.011  1.00  0.00     0.012 A 
HETATM   33  C   UNL     1     -39.475  50.887 -51.796  1.00  0.00     0.043 A 
HETATM   34  C   UNL     1     -39.633  49.970 -52.828  1.00  0.00     0.116 A 
HETATM   35  F   UNL     1     -39.334  48.682 -52.618  1.00  0.00    -0.206 F 
HETATM   36  C   UNL     1     -40.097  50.370 -54.074  1.00  0.00     0.043 A 
HETATM   37  C   UNL     1     -40.410  51.712 -54.291  1.00  0.00     0.012 A 
ENDBRANCH   6  31
TORSDOF 4
ENDMDL
