MODEL 1
REMARK VINA RESULT:      -7.9      0.000      0.000
REMARK  6 active torsions:
REMARK  status: ('A' for Active; 'I' for Inactive)
REMARK    1  A    between atoms: C_2  and  N_3 
REMARK    2  A    between atoms: C_5  and  C_6 
REMARK    3  A    between atoms: C_6  and  N_7 
REMARK       I    between atoms: N_7  and  C_8 
REMARK    4  A    between atoms: C_8  and  C_9 
REMARK    5  A    between atoms: C_9  and  C_10 
REMARK    6  A    between atoms: C_11  and  C_12 
ROOT
HETATM    1  C   UNL     1     -42.143  54.089 -54.461  1.00  0.00     0.006 A 
HETATM    2  C   UNL     1     -40.832  53.528 -54.285  1.00  0.00     0.096 A 
HETATM    3  N   UNL     1     -39.936  54.143 -55.066  1.00  0.00    -0.173 NA
HETATM    4  N   UNL     1     -40.634  55.062 -55.732  1.00  0.00    -0.282 N 
HETATM    5  H   UNL     1     -40.134  55.650 -56.390  1.00  0.00     0.189 HD
HETATM    6  C   UNL     1     -41.958  55.102 -55.393  1.00  0.00     0.033 A 
HETATM    7  C   UNL     1     -42.863  56.108 -55.994  1.00  0.00     0.070 C 
ENDROOT
BRANCH   1   8
HETATM    8  C   UNL     1     -43.378  53.709 -53.702  1.00  0.00     0.146 C 
BRANCH   8   9
HETATM    9  C   UNL     1     -43.513  54.403 -52.353  1.00  0.00     0.222 C 
HETATM   10  N   UNL     1     -43.709  55.768 -52.422  1.00  0.00    -0.359 N 
HETATM   11  H   UNL     1     -43.632  56.198 -53.341  1.00  0.00     0.162 HD
HETATM   12  O   UNL     1     -43.481  53.804 -51.277  1.00  0.00    -0.273 OA
BRANCH  10  13
HETATM   13  C   UNL     1     -43.803  56.682 -51.285  1.00  0.00     0.155 C 
BRANCH  13  14
HETATM   14  C   UNL     1     -42.720  57.773 -51.200  1.00  0.00     0.206 C 
HETATM   15  N   UNL     1     -41.533  57.474 -50.292  1.00  0.00    -0.066 N 
HETATM   16  H   UNL     1     -41.917  57.548 -49.323  1.00  0.00     0.280 HD
HETATM   17  C   UNL     1     -40.580  58.602 -50.599  1.00  0.00     0.235 C 
HETATM   18  C   UNL     1     -40.816  58.928 -52.074  1.00  0.00     0.030 C 
HETATM   19  C   UNL     1     -42.035  58.122 -52.509  1.00  0.00     0.036 C 
BRANCH  15  20
HETATM   20  C   UNL     1     -40.913  56.100 -50.375  1.00  0.00     0.231 C 
HETATM   21  C   UNL     1     -41.190  55.305 -49.108  1.00  0.00     0.034 C 
ENDBRANCH  15  20
ENDBRANCH  13  14
ENDBRANCH  10  13
ENDBRANCH   8   9
ENDBRANCH   1   8
BRANCH   2  22
HETATM   22  C   UNL     1     -40.389  52.478 -53.369  1.00  0.00    -0.005 A 
HETATM   23  C   UNL     1     -40.087  51.190 -53.833  1.00  0.00     0.017 A 
HETATM   24  C   UNL     1     -39.661  50.205 -52.938  1.00  0.00     0.043 A 
HETATM   25  C   UNL     1     -39.528  50.512 -51.588  1.00  0.00     0.116 A 
HETATM   26  F   UNL     1     -39.119  49.565 -50.735  1.00  0.00    -0.206 F 
HETATM   27  C   UNL     1     -39.807  51.786 -51.113  1.00  0.00     0.043 A 
HETATM   28  C   UNL     1     -40.235  52.772 -52.004  1.00  0.00     0.017 A 
ENDBRANCH   2  22
TORSDOF 6
ENDMDL
MODEL 2
REMARK VINA RESULT:      -7.6      2.776      5.586
REMARK  6 active torsions:
REMARK  status: ('A' for Active; 'I' for Inactive)
REMARK    1  A    between atoms: C_2  and  N_3 
REMARK    2  A    between atoms: C_5  and  C_6 
REMARK    3  A    between atoms: C_6  and  N_7 
REMARK       I    between atoms: N_7  and  C_8 
REMARK    4  A    between atoms: C_8  and  C_9 
REMARK    5  A    between atoms: C_9  and  C_10 
REMARK    6  A    between atoms: C_11  and  C_12 
ROOT
HETATM    1  C   UNL     1     -42.271  55.751 -52.732  1.00  0.00     0.006 A 
HETATM    2  C   UNL     1     -42.195  54.382 -52.301  1.00  0.00     0.096 A 
HETATM    3  N   UNL     1     -43.153  54.104 -51.408  1.00  0.00    -0.173 NA
HETATM    4  N   UNL     1     -43.822  55.247 -51.255  1.00  0.00    -0.282 N 
HETATM    5  H   UNL     1     -44.605  55.252 -50.609  1.00  0.00     0.189 HD
HETATM    6  C   UNL     1     -43.362  56.265 -52.043  1.00  0.00     0.033 A 
HETATM    7  C   UNL     1     -44.035  57.584 -52.042  1.00  0.00     0.070 C 
ENDROOT
BRANCH   1   8
HETATM    8  C   UNL     1     -41.415  56.399 -53.776  1.00  0.00     0.146 C 
BRANCH   8   9
HETATM    9  C   UNL     1     -42.106  56.575 -55.122  1.00  0.00     0.222 C 
HETATM   10  N   UNL     1     -42.287  57.888 -55.512  1.00  0.00    -0.359 N 
HETATM   11  H   UNL     1     -42.053  58.606 -54.831  1.00  0.00     0.162 HD
HETATM   12  O   UNL     1     -42.457  55.631 -55.832  1.00  0.00    -0.273 OA
BRANCH  10  13
HETATM   13  C   UNL     1     -42.977  58.338 -56.719  1.00  0.00     0.155 C 
BRANCH  13  14
HETATM   14  C   UNL     1     -42.231  58.121 -58.048  1.00  0.00     0.206 C 
HETATM   15  N   UNL     1     -42.487  56.795 -58.754  1.00  0.00    -0.066 N 
HETATM   16  H   UNL     1     -41.991  56.085 -58.170  1.00  0.00     0.280 HD
HETATM   17  C   UNL     1     -41.810  56.986 -60.088  1.00  0.00     0.235 C 
HETATM   18  C   UNL     1     -41.962  58.475 -60.398  1.00  0.00     0.030 C 
HETATM   19  C   UNL     1     -42.536  59.126 -59.144  1.00  0.00     0.036 C 
BRANCH  15  20
HETATM   20  C   UNL     1     -43.914  56.312 -58.848  1.00  0.00     0.231 C 
HETATM   21  C   UNL     1     -44.044  55.205 -59.882  1.00  0.00     0.034 C 
ENDBRANCH  15  20
ENDBRANCH  13  14
ENDBRANCH  10  13
ENDBRANCH   8   9
ENDBRANCH   1   8
BRANCH   2  22
HETATM   22  C   UNL     1     -41.292  53.321 -52.743  1.00  0.00    -0.005 A 
HETATM   23  C   UNL     1     -40.334  52.776 -51.878  1.00  0.00     0.017 A 
HETATM   24  C   UNL     1     -39.485  51.759 -52.322  1.00  0.00     0.043 A 
HETATM   25  C   UNL     1     -39.603  51.283 -53.624  1.00  0.00     0.116 A 
HETATM   26  F   UNL     1     -38.788  50.308 -54.045  1.00  0.00    -0.206 F 
HETATM   27  C   UNL     1     -40.557  51.800 -54.490  1.00  0.00     0.043 A 
HETATM   28  C   UNL     1     -41.405  52.817 -54.049  1.00  0.00     0.017 A 
ENDBRANCH   2  22
TORSDOF 6
ENDMDL
MODEL 3
REMARK VINA RESULT:      -7.4      2.619      5.663
REMARK  6 active torsions:
REMARK  status: ('A' for Active; 'I' for Inactive)
REMARK    1  A    between atoms: C_2  and  N_3 
REMARK    2  A    between atoms: C_5  and  C_6 
REMARK    3  A    between atoms: C_6  and  N_7 
REMARK       I    between atoms: N_7  and  C_8 
REMARK    4  A    between atoms: C_8  and  C_9 
REMARK    5  A    between atoms: C_9  and  C_10 
REMARK    6  A    between atoms: C_11  and  C_12 
ROOT
HETATM    1  C   UNL     1     -42.914  56.116 -52.074  1.00  0.00     0.006 A 
HETATM    2  C   UNL     1     -42.740  54.717 -51.792  1.00  0.00     0.096 A 
HETATM    3  N   UNL     1     -43.663  54.282 -50.925  1.00  0.00    -0.173 NA
HETATM    4  N   UNL     1     -44.403  55.354 -50.644  1.00  0.00    -0.282 N 
HETATM    5  H   UNL     1     -45.174  55.238 -49.994  1.00  0.00     0.189 HD
HETATM    6  C   UNL     1     -44.026  56.479 -51.324  1.00  0.00     0.033 A 
HETATM    7  C   UNL     1     -44.784  57.742 -51.176  1.00  0.00     0.070 C 
ENDROOT
BRANCH   1   8
HETATM    8  C   UNL     1     -42.122  56.928 -53.052  1.00  0.00     0.146 C 
BRANCH   8   9
HETATM    9  C   UNL     1     -42.793  57.092 -54.409  1.00  0.00     0.222 C 
HETATM   10  N   UNL     1     -42.173  57.991 -55.255  1.00  0.00    -0.359 N 
HETATM   11  H   UNL     1     -41.408  58.537 -54.866  1.00  0.00     0.162 HD
HETATM   12  O   UNL     1     -43.794  56.462 -54.751  1.00  0.00    -0.273 OA
BRANCH  10  13
HETATM   13  C   UNL     1     -42.642  58.387 -56.581  1.00  0.00     0.155 C 
BRANCH  13  14
HETATM   14  C   UNL     1     -42.706  57.269 -57.639  1.00  0.00     0.206 C 
HETATM   15  N   UNL     1     -44.093  56.730 -57.963  1.00  0.00    -0.066 N 
HETATM   16  H   UNL     1     -44.363  56.173 -57.122  1.00  0.00     0.280 HD
HETATM   17  C   UNL     1     -43.839  55.841 -59.156  1.00  0.00     0.235 C 
HETATM   18  C   UNL     1     -42.686  56.508 -59.907  1.00  0.00     0.030 C 
HETATM   19  C   UNL     1     -42.181  57.637 -59.015  1.00  0.00     0.036 C 
BRANCH  15  20
HETATM   20  C   UNL     1     -45.208  57.727 -58.161  1.00  0.00     0.231 C 
HETATM   21  C   UNL     1     -46.219  57.216 -59.174  1.00  0.00     0.034 C 
ENDBRANCH  15  20
ENDBRANCH  13  14
ENDBRANCH  10  13
ENDBRANCH   8   9
ENDBRANCH   1   8
BRANCH   2  22
HETATM   22  C   UNL     1     -41.777  53.773 -52.354  1.00  0.00    -0.005 A 
HETATM   23  C   UNL     1     -41.807  53.425 -53.711  1.00  0.00     0.017 A 
HETATM   24  C   UNL     1     -40.872  52.523 -54.225  1.00  0.00     0.043 A 
HETATM   25  C   UNL     1     -39.904  51.981 -53.386  1.00  0.00     0.116 A 
HETATM   26  F   UNL     1     -39.009  51.118 -53.883  1.00  0.00    -0.206 F 
HETATM   27  C   UNL     1     -39.848  52.326 -52.042  1.00  0.00     0.043 A 
HETATM   28  C   UNL     1     -40.783  53.226 -51.526  1.00  0.00     0.017 A 
ENDBRANCH   2  22
TORSDOF 6
ENDMDL
MODEL 4
REMARK VINA RESULT:      -7.3      2.637      5.497
REMARK  6 active torsions:
REMARK  status: ('A' for Active; 'I' for Inactive)
REMARK    1  A    between atoms: C_2  and  N_3 
REMARK    2  A    between atoms: C_5  and  C_6 
REMARK    3  A    between atoms: C_6  and  N_7 
REMARK       I    between atoms: N_7  and  C_8 
REMARK    4  A    between atoms: C_8  and  C_9 
REMARK    5  A    between atoms: C_9  and  C_10 
REMARK    6  A    between atoms: C_11  and  C_12 
ROOT
HETATM    1  C   UNL     1     -42.675  55.303 -52.366  1.00  0.00     0.006 A 
HETATM    2  C   UNL     1     -41.464  54.660 -51.937  1.00  0.00     0.096 A 
HETATM    3  N   UNL     1     -40.970  55.246 -50.839  1.00  0.00    -0.173 NA
HETATM    4  N   UNL     1     -41.819  56.237 -50.567  1.00  0.00    -0.282 N 
HETATM    5  H   UNL     1     -41.624  56.815 -49.756  1.00  0.00     0.189 HD
HETATM    6  C   UNL     1     -42.879  56.306 -51.426  1.00  0.00     0.033 A 
HETATM    7  C   UNL     1     -43.950  57.310 -51.227  1.00  0.00     0.070 C 
ENDROOT
BRANCH   1   8
HETATM    8  C   UNL     1     -43.547  54.878 -53.507  1.00  0.00     0.146 C 
BRANCH   8   9
HETATM    9  C   UNL     1     -43.693  55.928 -54.600  1.00  0.00     0.222 C 
HETATM   10  N   UNL     1     -42.682  55.925 -55.542  1.00  0.00    -0.359 N 
HETATM   11  H   UNL     1     -41.889  55.314 -55.364  1.00  0.00     0.162 HD
HETATM   12  O   UNL     1     -44.644  56.708 -54.669  1.00  0.00    -0.273 OA
BRANCH  10  13
HETATM   13  C   UNL     1     -42.541  56.864 -56.653  1.00  0.00     0.155 C 
BRANCH  13  14
HETATM   14  C   UNL     1     -43.228  56.464 -57.972  1.00  0.00     0.206 C 
HETATM   15  N   UNL     1     -44.715  56.780 -58.077  1.00  0.00    -0.066 N 
HETATM   16  H   UNL     1     -45.177  56.095 -57.438  1.00  0.00     0.280 HD
HETATM   17  C   UNL     1     -45.022  56.480 -59.524  1.00  0.00     0.235 C 
HETATM   18  C   UNL     1     -43.740  56.829 -60.280  1.00  0.00     0.030 C 
HETATM   19  C   UNL     1     -42.677  57.118 -59.225  1.00  0.00     0.036 C 
BRANCH  15  20
HETATM   20  C   UNL     1     -45.180  58.139 -57.614  1.00  0.00     0.231 C 
HETATM   21  C   UNL     1     -46.698  58.211 -57.585  1.00  0.00     0.034 C 
ENDBRANCH  15  20
ENDBRANCH  13  14
ENDBRANCH  10  13
ENDBRANCH   8   9
ENDBRANCH   1   8
BRANCH   2  22
HETATM   22  C   UNL     1     -40.793  53.486 -52.490  1.00  0.00    -0.005 A 
HETATM   23  C   UNL     1     -40.139  52.564 -51.661  1.00  0.00     0.017 A 
HETATM   24  C   UNL     1     -39.509  51.446 -52.214  1.00  0.00     0.043 A 
HETATM   25  C   UNL     1     -39.543  51.247 -53.590  1.00  0.00     0.116 A 
HETATM   26  F   UNL     1     -38.939  50.174 -54.115  1.00  0.00    -0.206 F 
HETATM   27  C   UNL     1     -40.199  52.140 -54.426  1.00  0.00     0.043 A 
HETATM   28  C   UNL     1     -40.827  53.259 -53.876  1.00  0.00     0.017 A 
ENDBRANCH   2  22
TORSDOF 6
ENDMDL
MODEL 5
REMARK VINA RESULT:      -7.2      2.651      5.691
REMARK  6 active torsions:
REMARK  status: ('A' for Active; 'I' for Inactive)
REMARK    1  A    between atoms: C_2  and  N_3 
REMARK    2  A    between atoms: C_5  and  C_6 
REMARK    3  A    between atoms: C_6  and  N_7 
REMARK       I    between atoms: N_7  and  C_8 
REMARK    4  A    between atoms: C_8  and  C_9 
REMARK    5  A    between atoms: C_9  and  C_10 
REMARK    6  A    between atoms: C_11  and  C_12 
ROOT
HETATM    1  C   UNL     1     -42.192  56.547 -52.089  1.00  0.00     0.006 A 
HETATM    2  C   UNL     1     -42.396  55.125 -52.047  1.00  0.00     0.096 A 
HETATM    3  N   UNL     1     -43.590  54.825 -51.523  1.00  0.00    -0.173 NA
HETATM    4  N   UNL     1     -44.141  56.001 -51.225  1.00  0.00    -0.282 N 
HETATM    5  H   UNL     1     -45.067  55.997 -50.810  1.00  0.00     0.189 HD
HETATM    6  C   UNL     1     -43.367  57.075 -51.567  1.00  0.00     0.033 A 
HETATM    7  C   UNL     1     -43.858  58.457 -51.364  1.00  0.00     0.070 C 
ENDROOT
BRANCH   1   8
HETATM    8  C   UNL     1     -41.011  57.256 -52.677  1.00  0.00     0.146 C 
BRANCH   8   9
HETATM    9  C   UNL     1     -41.352  58.152 -53.860  1.00  0.00     0.222 C 
HETATM   10  N   UNL     1     -42.213  57.589 -54.782  1.00  0.00    -0.359 N 
HETATM   11  H   UNL     1     -42.448  56.608 -54.653  1.00  0.00     0.162 HD
HETATM   12  O   UNL     1     -40.924  59.300 -53.986  1.00  0.00    -0.273 OA
BRANCH  10  13
HETATM   13  C   UNL     1     -42.649  58.201 -56.036  1.00  0.00     0.155 C 
BRANCH  13  14
HETATM   14  C   UNL     1     -43.357  57.268 -57.036  1.00  0.00     0.206 C 
HETATM   15  N   UNL     1     -43.267  57.664 -58.504  1.00  0.00    -0.066 N 
HETATM   16  H   UNL     1     -43.888  58.499 -58.592  1.00  0.00     0.280 HD
HETATM   17  C   UNL     1     -43.847  56.465 -59.214  1.00  0.00     0.235 C 
HETATM   18  C   UNL     1     -43.463  55.268 -58.344  1.00  0.00     0.030 C 
HETATM   19  C   UNL     1     -42.857  55.835 -57.064  1.00  0.00     0.036 C 
BRANCH  15  20
HETATM   20  C   UNL     1     -41.924  58.105 -59.033  1.00  0.00     0.231 C 
HETATM   21  C   UNL     1     -42.027  58.523 -60.491  1.00  0.00     0.034 C 
ENDBRANCH  15  20
ENDBRANCH  13  14
ENDBRANCH  10  13
ENDBRANCH   8   9
ENDBRANCH   1   8
BRANCH   2  22
HETATM   22  C   UNL     1     -41.533  54.051 -52.535  1.00  0.00    -0.005 A 
HETATM   23  C   UNL     1     -40.718  53.320 -51.660  1.00  0.00     0.017 A 
HETATM   24  C   UNL     1     -39.904  52.295 -52.150  1.00  0.00     0.043 A 
HETATM   25  C   UNL     1     -39.915  51.998 -53.508  1.00  0.00     0.116 A 
HETATM   26  F   UNL     1     -39.134  51.014 -53.973  1.00  0.00    -0.206 F 
HETATM   27  C   UNL     1     -40.727  52.700 -54.389  1.00  0.00     0.043 A 
HETATM   28  C   UNL     1     -41.539  53.726 -53.901  1.00  0.00     0.017 A 
ENDBRANCH   2  22
TORSDOF 6
ENDMDL
MODEL 6
REMARK VINA RESULT:      -7.1      2.750      5.643
REMARK  6 active torsions:
REMARK  status: ('A' for Active; 'I' for Inactive)
REMARK    1  A    between atoms: C_2  and  N_3 
REMARK    2  A    between atoms: C_5  and  C_6 
REMARK    3  A    between atoms: C_6  and  N_7 
REMARK       I    between atoms: N_7  and  C_8 
REMARK    4  A    between atoms: C_8  and  C_9 
REMARK    5  A    between atoms: C_9  and  C_10 
REMARK    6  A    between atoms: C_11  and  C_12 
ROOT
HETATM    1  C   UNL     1     -41.293  55.854 -52.541  1.00  0.00     0.006 A 
HETATM    2  C   UNL     1     -41.030  54.595 -51.899  1.00  0.00     0.096 A 
HETATM    3  N   UNL     1     -41.275  54.664 -50.585  1.00  0.00    -0.173 NA
HETATM    4  N   UNL     1     -41.674  55.918 -50.375  1.00  0.00    -0.282 N 
HETATM    5  H   UNL     1     -41.916  56.184 -49.426  1.00  0.00     0.189 HD
HETATM    6  C   UNL     1     -41.736  56.675 -51.511  1.00  0.00     0.033 A 
HETATM    7  C   UNL     1     -42.222  58.073 -51.463  1.00  0.00     0.070 C 
ENDROOT
BRANCH   1   8
HETATM    8  C   UNL     1     -41.206  56.135 -54.009  1.00  0.00     0.146 C 
BRANCH   8   9
HETATM    9  C   UNL     1     -42.549  56.418 -54.668  1.00  0.00     0.222 C 
HETATM   10  N   UNL     1     -42.494  57.280 -55.746  1.00  0.00    -0.359 N 
HETATM   11  H   UNL     1     -41.601  57.729 -55.930  1.00  0.00     0.162 HD
HETATM   12  O   UNL     1     -43.607  55.906 -54.297  1.00  0.00    -0.273 OA
BRANCH  10  13
HETATM   13  C   UNL     1     -43.638  57.770 -56.513  1.00  0.00     0.155 C 
BRANCH  13  14
HETATM   14  C   UNL     1     -43.886  57.089 -57.872  1.00  0.00     0.206 C 
HETATM   15  N   UNL     1     -43.669  57.955 -59.106  1.00  0.00    -0.066 N 
HETATM   16  H   UNL     1     -44.474  58.620 -59.108  1.00  0.00     0.280 HD
HETATM   17  C   UNL     1     -43.770  56.961 -60.237  1.00  0.00     0.235 C 
HETATM   18  C   UNL     1     -43.218  55.655 -59.665  1.00  0.00     0.030 C 
HETATM   19  C   UNL     1     -43.012  55.886 -58.172  1.00  0.00     0.036 C 
BRANCH  15  20
HETATM   20  C   UNL     1     -42.432  58.819 -59.151  1.00  0.00     0.231 C 
HETATM   21  C   UNL     1     -42.011  59.086 -60.588  1.00  0.00     0.034 C 
ENDBRANCH  15  20
ENDBRANCH  13  14
ENDBRANCH  10  13
ENDBRANCH   8   9
ENDBRANCH   1   8
BRANCH   2  22
HETATM   22  C   UNL     1     -40.613  53.325 -52.489  1.00  0.00    -0.005 A 
HETATM   23  C   UNL     1     -40.965  52.984 -53.802  1.00  0.00     0.017 A 
HETATM   24  C   UNL     1     -40.550  51.765 -54.345  1.00  0.00     0.043 A 
HETATM   25  C   UNL     1     -39.777  50.898 -53.581  1.00  0.00     0.116 A 
HETATM   26  F   UNL     1     -39.381  49.732 -54.106  1.00  0.00    -0.206 F 
HETATM   27  C   UNL     1     -39.405  51.225 -52.284  1.00  0.00     0.043 A 
HETATM   28  C   UNL     1     -39.820  52.442 -51.738  1.00  0.00     0.017 A 
ENDBRANCH   2  22
TORSDOF 6
ENDMDL
MODEL 7
REMARK VINA RESULT:      -7.0      3.216      6.141
REMARK  6 active torsions:
REMARK  status: ('A' for Active; 'I' for Inactive)
REMARK    1  A    between atoms: C_2  and  N_3 
REMARK    2  A    between atoms: C_5  and  C_6 
REMARK    3  A    between atoms: C_6  and  N_7 
REMARK       I    between atoms: N_7  and  C_8 
REMARK    4  A    between atoms: C_8  and  C_9 
REMARK    5  A    between atoms: C_9  and  C_10 
REMARK    6  A    between atoms: C_11  and  C_12 
ROOT
HETATM    1  C   UNL     1     -42.502  55.700 -53.851  1.00  0.00     0.006 A 
HETATM    2  C   UNL     1     -42.327  54.583 -52.963  1.00  0.00     0.096 A 
HETATM    3  N   UNL     1     -43.202  54.630 -51.951  1.00  0.00    -0.173 NA
HETATM    4  N   UNL     1     -43.913  55.737 -52.163  1.00  0.00    -0.282 N 
HETATM    5  H   UNL     1     -44.646  55.962 -51.498  1.00  0.00     0.189 HD
HETATM    6  C   UNL     1     -43.564  56.408 -53.302  1.00  0.00     0.033 A 
HETATM    7  C   UNL     1     -44.299  57.624 -53.719  1.00  0.00     0.070 C 
ENDROOT
BRANCH   1   8
HETATM    8  C   UNL     1     -41.758  55.940 -55.129  1.00  0.00     0.146 C 
BRANCH   8   9
HETATM    9  C   UNL     1     -42.517  55.511 -56.377  1.00  0.00     0.222 C 
HETATM   10  N   UNL     1     -42.329  56.326 -57.477  1.00  0.00    -0.359 N 
HETATM   11  H   UNL     1     -41.805  57.184 -57.328  1.00  0.00     0.162 HD
HETATM   12  O   UNL     1     -43.225  54.504 -56.428  1.00  0.00    -0.273 OA
BRANCH  10  13
HETATM   13  C   UNL     1     -42.985  56.183 -58.775  1.00  0.00     0.155 C 
BRANCH  13  14
HETATM   14  C   UNL     1     -44.419  56.736 -58.874  1.00  0.00     0.206 C 
HETATM   15  N   UNL     1     -44.551  58.183 -59.332  1.00  0.00    -0.066 N 
HETATM   16  H   UNL     1     -44.213  58.749 -58.522  1.00  0.00     0.280 HD
HETATM   17  C   UNL     1     -46.038  58.339 -59.535  1.00  0.00     0.235 C 
HETATM   18  C   UNL     1     -46.520  56.963 -59.995  1.00  0.00     0.030 C 
HETATM   19  C   UNL     1     -45.336  56.014 -59.844  1.00  0.00     0.036 C 
BRANCH  15  20
HETATM   20  C   UNL     1     -43.716  58.628 -60.508  1.00  0.00     0.231 C 
HETATM   21  C   UNL     1     -42.653  59.623 -60.072  1.00  0.00     0.034 C 
ENDBRANCH  15  20
ENDBRANCH  13  14
ENDBRANCH  10  13
ENDBRANCH   8   9
ENDBRANCH   1   8
BRANCH   2  22
HETATM   22  C   UNL     1     -41.408  53.452 -53.069  1.00  0.00    -0.005 A 
HETATM   23  C   UNL     1     -40.549  53.113 -52.014  1.00  0.00     0.017 A 
HETATM   24  C   UNL     1     -39.682  52.024 -52.137  1.00  0.00     0.043 A 
HETATM   25  C   UNL     1     -39.683  51.272 -53.308  1.00  0.00     0.116 A 
HETATM   26  F   UNL     1     -38.852  50.229 -53.421  1.00  0.00    -0.206 F 
HETATM   27  C   UNL     1     -40.538  51.583 -54.357  1.00  0.00     0.043 A 
HETATM   28  C   UNL     1     -41.403  52.672 -54.237  1.00  0.00     0.017 A 
ENDBRANCH   2  22
TORSDOF 6
ENDMDL
MODEL 8
REMARK VINA RESULT:      -6.8      3.078      5.865
REMARK  6 active torsions:
REMARK  status: ('A' for Active; 'I' for Inactive)
REMARK    1  A    between atoms: C_2  and  N_3 
REMARK    2  A    between atoms: C_5  and  C_6 
REMARK    3  A    between atoms: C_6  and  N_7 
REMARK       I    between atoms: N_7  and  C_8 
REMARK    4  A    between atoms: C_8  and  C_9 
REMARK    5  A    between atoms: C_9  and  C_10 
REMARK    6  A    between atoms: C_11  and  C_12 
ROOT
HETATM    1  C   UNL     1     -42.867  55.469 -53.305  1.00  0.00     0.006 A 
HETATM    2  C   UNL     1     -41.937  55.114 -52.268  1.00  0.00     0.096 A 
HETATM    3  N   UNL     1     -41.853  56.079 -51.344  1.00  0.00    -0.173 NA
HETATM    4  N   UNL     1     -42.686  57.030 -51.765  1.00  0.00    -0.282 N 
HETATM    5  H   UNL     1     -42.774  57.866 -51.196  1.00  0.00     0.189 HD
HETATM    6  C   UNL     1     -43.348  56.714 -52.918  1.00  0.00     0.033 A 
HETATM    7  C   UNL     1     -44.359  57.634 -53.487  1.00  0.00     0.070 C 
ENDROOT
BRANCH   1   8
HETATM    8  C   UNL     1     -43.277  54.608 -54.460  1.00  0.00     0.146 C 
BRANCH   8   9
HETATM    9  C   UNL     1     -42.648  55.011 -55.787  1.00  0.00     0.222 C 
HETATM   10  N   UNL     1     -43.548  55.217 -56.814  1.00  0.00    -0.359 N 
HETATM   11  H   UNL     1     -44.519  54.976 -56.630  1.00  0.00     0.162 HD
HETATM   12  O   UNL     1     -41.436  55.171 -55.942  1.00  0.00    -0.273 OA
BRANCH  10  13
HETATM   13  C   UNL     1     -43.212  55.542 -58.199  1.00  0.00     0.155 C 
BRANCH  13  14
HETATM   14  C   UNL     1     -43.721  56.900 -58.719  1.00  0.00     0.206 C 
HETATM   15  N   UNL     1     -44.623  56.855 -59.945  1.00  0.00    -0.066 N 
HETATM   16  H   UNL     1     -43.985  56.606 -60.734  1.00  0.00     0.280 HD
HETATM   17  C   UNL     1     -45.113  58.278 -60.057  1.00  0.00     0.235 C 
HETATM   18  C   UNL     1     -45.195  58.781 -58.616  1.00  0.00     0.030 C 
HETATM   19  C   UNL     1     -44.556  57.706 -57.742  1.00  0.00     0.036 C 
BRANCH  15  20
HETATM   20  C   UNL     1     -45.720  55.818 -59.974  1.00  0.00     0.231 C 
HETATM   21  C   UNL     1     -46.907  56.310 -60.787  1.00  0.00     0.034 C 
ENDBRANCH  15  20
ENDBRANCH  13  14
ENDBRANCH  10  13
ENDBRANCH   8   9
ENDBRANCH   1   8
BRANCH   2  22
HETATM   22  C   UNL     1     -41.175  53.879 -52.091  1.00  0.00    -0.005 A 
HETATM   23  C   UNL     1     -40.601  53.217 -53.185  1.00  0.00     0.017 A 
HETATM   24  C   UNL     1     -39.873  52.041 -52.990  1.00  0.00     0.043 A 
HETATM   25  C   UNL     1     -39.712  51.536 -51.704  1.00  0.00     0.116 A 
HETATM   26  F   UNL     1     -39.012  50.409 -51.522  1.00  0.00    -0.206 F 
HETATM   27  C   UNL     1     -40.260  52.186 -50.607  1.00  0.00     0.043 A 
HETATM   28  C   UNL     1     -40.989  53.360 -50.800  1.00  0.00     0.017 A 
ENDBRANCH   2  22
TORSDOF 6
ENDMDL
MODEL 9
REMARK VINA RESULT:      -6.7      3.398      6.499
REMARK  6 active torsions:
REMARK  status: ('A' for Active; 'I' for Inactive)
REMARK    1  A    between atoms: C_2  and  N_3 
REMARK    2  A    between atoms: C_5  and  C_6 
REMARK    3  A    between atoms: C_6  and  N_7 
REMARK       I    between atoms: N_7  and  C_8 
REMARK    4  A    between atoms: C_8  and  C_9 
REMARK    5  A    between atoms: C_9  and  C_10 
REMARK    6  A    between atoms: C_11  and  C_12 
ROOT
HETATM    1  C   UNL     1     -40.882  57.998 -51.963  1.00  0.00     0.006 A 
HETATM    2  C   UNL     1     -41.662  56.793 -51.894  1.00  0.00     0.096 A 
HETATM    3  N   UNL     1     -42.009  56.515 -50.631  1.00  0.00    -0.173 NA
HETATM    4  N   UNL     1     -41.470  57.492 -49.903  1.00  0.00    -0.282 N 
HETATM    5  H   UNL     1     -41.618  57.470 -48.900  1.00  0.00     0.189 HD
HETATM    6  C   UNL     1     -40.807  58.431 -50.644  1.00  0.00     0.033 A 
HETATM    7  C   UNL     1     -40.205  59.618 -49.997  1.00  0.00     0.070 C 
ENDROOT
BRANCH   1   8
HETATM    8  C   UNL     1     -40.383  58.660 -53.210  1.00  0.00     0.146 C 
BRANCH   8   9
HETATM    9  C   UNL     1     -41.474  59.335 -54.032  1.00  0.00     0.222 C 
HETATM   10  N   UNL     1     -41.690  58.775 -55.276  1.00  0.00    -0.359 N 
HETATM   11  H   UNL     1     -41.041  58.051 -55.573  1.00  0.00     0.162 HD
HETATM   12  O   UNL     1     -42.137  60.289 -53.624  1.00  0.00    -0.273 OA
BRANCH  10  13
HETATM   13  C   UNL     1     -42.624  59.264 -56.288  1.00  0.00     0.155 C 
BRANCH  13  14
HETATM   14  C   UNL     1     -42.189  59.087 -57.755  1.00  0.00     0.206 C 
HETATM   15  N   UNL     1     -42.048  57.651 -58.245  1.00  0.00    -0.066 N 
HETATM   16  H   UNL     1     -41.186  57.295 -57.775  1.00  0.00     0.280 HD
HETATM   17  C   UNL     1     -41.839  57.820 -59.730  1.00  0.00     0.235 C 
HETATM   18  C   UNL     1     -42.646  59.064 -60.102  1.00  0.00     0.030 C 
HETATM   19  C   UNL     1     -43.121  59.685 -58.792  1.00  0.00     0.036 C 
BRANCH  15  20
HETATM   20  C   UNL     1     -43.138  56.673 -57.880  1.00  0.00     0.231 C 
HETATM   21  C   UNL     1     -43.244  55.569 -58.920  1.00  0.00     0.034 C 
ENDBRANCH  15  20
ENDBRANCH  13  14
ENDBRANCH  10  13
ENDBRANCH   8   9
ENDBRANCH   1   8
BRANCH   2  22
HETATM   22  C   UNL     1     -42.136  55.934 -52.977  1.00  0.00    -0.005 A 
HETATM   23  C   UNL     1     -41.327  54.917 -53.503  1.00  0.00     0.017 A 
HETATM   24  C   UNL     1     -41.804  54.105 -54.536  1.00  0.00     0.043 A 
HETATM   25  C   UNL     1     -43.089  54.305 -55.032  1.00  0.00     0.116 A 
HETATM   26  F   UNL     1     -43.541  53.524 -56.020  1.00  0.00    -0.206 F 
HETATM   27  C   UNL     1     -43.910  55.297 -54.513  1.00  0.00     0.043 A 
HETATM   28  C   UNL     1     -43.434  56.110 -53.482  1.00  0.00     0.017 A 
ENDBRANCH   2  22
TORSDOF 6
ENDMDL
MODEL 10
REMARK VINA RESULT:      -6.6     14.366     16.966
REMARK  6 active torsions:
REMARK  status: ('A' for Active; 'I' for Inactive)
REMARK    1  A    between atoms: C_2  and  N_3 
REMARK    2  A    between atoms: C_5  and  C_6 
REMARK    3  A    between atoms: C_6  and  N_7 
REMARK       I    between atoms: N_7  and  C_8 
REMARK    4  A    between atoms: C_8  and  C_9 
REMARK    5  A    between atoms: C_9  and  C_10 
REMARK    6  A    between atoms: C_11  and  C_12 
ROOT
HETATM    1  C   UNL     1     -36.918  39.904 -59.105  1.00  0.00     0.006 A 
HETATM    2  C   UNL     1     -36.786  41.212 -58.522  1.00  0.00     0.096 A 
HETATM    3  N   UNL     1     -37.039  42.168 -59.423  1.00  0.00    -0.173 NA
HETATM    4  N   UNL     1     -37.316  41.515 -60.551  1.00  0.00    -0.282 N 
HETATM    5  H   UNL     1     -37.541  42.065 -61.373  1.00  0.00     0.189 HD
HETATM    6  C   UNL     1     -37.290  40.154 -60.420  1.00  0.00     0.033 A 
HETATM    7  C   UNL     1     -37.638  39.278 -61.562  1.00  0.00     0.070 C 
ENDROOT
BRANCH   1   8
HETATM    8  C   UNL     1     -36.786  38.597 -58.386  1.00  0.00     0.146 C 
BRANCH   8   9
HETATM    9  C   UNL     1     -35.347  38.172 -58.131  1.00  0.00     0.222 C 
HETATM   10  N   UNL     1     -35.072  37.818 -56.824  1.00  0.00    -0.359 N 
HETATM   11  H   UNL     1     -35.807  37.978 -56.140  1.00  0.00     0.162 HD
HETATM   12  O   UNL     1     -34.489  38.117 -59.013  1.00  0.00    -0.273 OA
BRANCH  10  13
HETATM   13  C   UNL     1     -33.764  37.438 -56.293  1.00  0.00     0.155 C 
BRANCH  13  14
HETATM   14  C   UNL     1     -33.362  38.082 -54.953  1.00  0.00     0.206 C 
HETATM   15  N   UNL     1     -32.095  38.928 -54.968  1.00  0.00    -0.066 N 
HETATM   16  H   UNL     1     -31.317  38.237 -55.056  1.00  0.00     0.280 HD
HETATM   17  C   UNL     1     -32.107  39.577 -53.605  1.00  0.00     0.235 C 
HETATM   18  C   UNL     1     -33.587  39.770 -53.273  1.00  0.00     0.030 C 
HETATM   19  C   UNL     1     -34.375  39.042 -54.357  1.00  0.00     0.036 C 
BRANCH  15  20
HETATM   20  C   UNL     1     -31.907  39.895 -56.112  1.00  0.00     0.231 C 
HETATM   21  C   UNL     1     -30.510  39.773 -56.698  1.00  0.00     0.034 C 
ENDBRANCH  15  20
ENDBRANCH  13  14
ENDBRANCH  10  13
ENDBRANCH   8   9
ENDBRANCH   1   8
BRANCH   2  22
HETATM   22  C   UNL     1     -36.488  41.583 -57.140  1.00  0.00    -0.005 A 
HETATM   23  C   UNL     1     -35.260  42.162 -56.793  1.00  0.00     0.017 A 
HETATM   24  C   UNL     1     -35.000  42.513 -55.465  1.00  0.00     0.043 A 
HETATM   25  C   UNL     1     -35.971  42.294 -54.493  1.00  0.00     0.116 A 
HETATM   26  F   UNL     1     -35.718  42.633 -53.223  1.00  0.00    -0.206 F 
HETATM   27  C   UNL     1     -37.199  41.736 -54.820  1.00  0.00     0.043 A 
HETATM   28  C   UNL     1     -37.459  41.383 -56.146  1.00  0.00     0.017 A 
ENDBRANCH   2  22
TORSDOF 6
ENDMDL
