MODEL 1
REMARK VINA RESULT:      -8.9      0.000      0.000
REMARK  8 active torsions:
REMARK  status: ('A' for Active; 'I' for Inactive)
REMARK    1  A    between atoms: O_2  and  C_3 
REMARK    2  A    between atoms: C_6  and  C_7 
REMARK    3  A    between atoms: C_11  and  C_12 
REMARK       I    between atoms: C_12  and  N_13 
REMARK    4  A    between atoms: N_13  and  N_14 
REMARK       I    between atoms: N_14  and  C_15 
REMARK    5  A    between atoms: C_15  and  C_16 
REMARK    6  A    between atoms: C_16  and  C_17 
REMARK    7  A    between atoms: C_17  and  C_18 
REMARK    8  A    between atoms: N_20  and  C_21 
ROOT
HETATM    1  C   UNL     1     -45.606  60.458 -47.790  1.00  0.00     0.288 C 
HETATM    2  N   UNL     1     -44.978  60.594 -49.009  1.00  0.00    -0.262 N 
HETATM    3  O   UNL     1     -46.322  59.492 -47.531  1.00  0.00    -0.264 OA
HETATM    4  H   UNL     1     -44.409  61.395 -49.272  1.00  0.00     0.190 HD
ENDROOT
BRANCH   2   5
HETATM    5  N   UNL     1     -45.090  59.575 -49.962  1.00  0.00    -0.267 N 
HETATM    6  C   UNL     1     -44.078  59.464 -50.887  1.00  0.00     0.236 C 
HETATM    7  O   UNL     1     -43.053  60.144 -50.805  1.00  0.00    -0.272 OA
HETATM    8  H   UNL     1     -46.025  59.198 -50.097  1.00  0.00     0.190 HD
BRANCH   6   9
HETATM    9  C   UNL     1     -44.214  58.370 -51.928  1.00  0.00     0.109 C 
BRANCH   9  10
HETATM   10  C   UNL     1     -42.976  58.038 -52.753  1.00  0.00     0.051 C 
BRANCH  10  11
HETATM   11  C   UNL     1     -42.291  56.781 -52.346  1.00  0.00    -0.021 A 
HETATM   12  C   UNL     1     -41.822  55.767 -53.156  1.00  0.00     0.127 A 
HETATM   13  N   UNL     1     -41.295  54.786 -52.339  1.00  0.00    -0.245 N 
HETATM   14  N   UNL     1     -41.392  55.145 -51.033  1.00  0.00    -0.180 NA
HETATM   15  C   UNL     1     -41.994  56.331 -51.045  1.00  0.00     0.147 A 
BRANCH  13  16
HETATM   16  C   UNL     1     -40.725  53.538 -52.718  1.00  0.00     0.058 A 
HETATM   17  C   UNL     1     -40.927  53.003 -53.998  1.00  0.00     0.031 A 
HETATM   18  C   UNL     1     -40.367  51.767 -54.335  1.00  0.00     0.002 A 
HETATM   19  C   UNL     1     -39.606  51.062 -53.405  1.00  0.00     0.000 A 
HETATM   20  C   UNL     1     -39.398  51.589 -52.133  1.00  0.00     0.002 A 
HETATM   21  C   UNL     1     -39.954  52.823 -51.788  1.00  0.00     0.031 A 
ENDBRANCH  13  16
ENDBRANCH  10  11
ENDBRANCH   9  10
ENDBRANCH   6   9
ENDBRANCH   2   5
BRANCH   1  22
HETATM   22  C   UNL     1     -45.333  61.507 -46.846  1.00  0.00     0.121 A 
HETATM   23  N   UNL     1     -45.445  62.830 -47.172  1.00  0.00    -0.272 N 
HETATM   24  N   UNL     1     -45.248  63.669 -46.142  1.00  0.00    -0.174 NA
HETATM   25  H   UNL     1     -45.692  63.217 -48.078  1.00  0.00     0.189 HD
HETATM   26  C   UNL     1     -44.943  62.869 -45.109  1.00  0.00     0.089 A 
HETATM   27  C   UNL     1     -44.966  61.506 -45.514  1.00  0.00     0.071 A 
BRANCH  26  28
HETATM   28  C   UNL     1     -44.695  63.389 -43.764  1.00  0.00    -0.005 A 
HETATM   29  C   UNL     1     -45.568  64.325 -43.194  1.00  0.00     0.016 A 
HETATM   30  C   UNL     1     -45.389  64.763 -41.875  1.00  0.00     0.037 A 
HETATM   31  C   UNL     1     -44.330  64.272 -41.114  1.00  0.00     0.068 A 
HETATM   32  C   UNL     1     -43.428  63.377 -41.692  1.00  0.00     0.037 A 
HETATM   33  C   UNL     1     -43.611  62.931 -43.005  1.00  0.00     0.016 A 
BRANCH  31  34
HETATM   34  O   UNL     1     -44.064  64.603 -39.815  1.00  0.00    -0.356 OA
HETATM   35  C   UNL     1     -44.665  63.774 -38.826  1.00  0.00     0.210 C 
ENDBRANCH  31  34
ENDBRANCH  26  28
ENDBRANCH   1  22
TORSDOF 8
ENDMDL
MODEL 2
REMARK VINA RESULT:      -8.7      2.421     12.434
REMARK  8 active torsions:
REMARK  status: ('A' for Active; 'I' for Inactive)
REMARK    1  A    between atoms: O_2  and  C_3 
REMARK    2  A    between atoms: C_6  and  C_7 
REMARK    3  A    between atoms: C_11  and  C_12 
REMARK       I    between atoms: C_12  and  N_13 
REMARK    4  A    between atoms: N_13  and  N_14 
REMARK       I    between atoms: N_14  and  C_15 
REMARK    5  A    between atoms: C_15  and  C_16 
REMARK    6  A    between atoms: C_16  and  C_17 
REMARK    7  A    between atoms: C_17  and  C_18 
REMARK    8  A    between atoms: N_20  and  C_21 
ROOT
HETATM    1  C   UNL     1     -44.282  58.565 -51.545  1.00  0.00     0.288 C 
HETATM    2  N   UNL     1     -44.029  59.284 -50.397  1.00  0.00    -0.262 N 
HETATM    3  O   UNL     1     -44.910  59.044 -52.488  1.00  0.00    -0.264 OA
HETATM    4  H   UNL     1     -43.547  58.911 -49.584  1.00  0.00     0.190 HD
ENDROOT
BRANCH   2   5
HETATM    5  N   UNL     1     -44.426  60.624 -50.320  1.00  0.00    -0.267 N 
HETATM    6  C   UNL     1     -45.437  60.931 -49.439  1.00  0.00     0.236 C 
HETATM    7  O   UNL     1     -45.886  60.090 -48.656  1.00  0.00    -0.272 OA
HETATM    8  H   UNL     1     -44.170  61.207 -51.113  1.00  0.00     0.190 HD
BRANCH   6   9
HETATM    9  C   UNL     1     -45.877  62.380 -49.373  1.00  0.00     0.109 C 
BRANCH   9  10
HETATM   10  C   UNL     1     -47.121  62.692 -48.548  1.00  0.00     0.051 C 
BRANCH  10  11
HETATM   11  C   UNL     1     -46.834  63.222 -47.187  1.00  0.00    -0.021 A 
HETATM   12  C   UNL     1     -45.737  62.969 -46.390  1.00  0.00     0.127 A 
HETATM   13  N   UNL     1     -45.918  63.646 -45.199  1.00  0.00    -0.245 N 
HETATM   14  N   UNL     1     -47.085  64.341 -45.214  1.00  0.00    -0.180 NA
HETATM   15  C   UNL     1     -47.629  64.076 -46.399  1.00  0.00     0.147 A 
BRANCH  13  16
HETATM   16  C   UNL     1     -45.068  63.662 -44.058  1.00  0.00     0.058 A 
HETATM   17  C   UNL     1     -45.147  64.686 -43.104  1.00  0.00     0.031 A 
HETATM   18  C   UNL     1     -44.288  64.683 -42.002  1.00  0.00     0.002 A 
HETATM   19  C   UNL     1     -43.350  63.664 -41.843  1.00  0.00     0.000 A 
HETATM   20  C   UNL     1     -43.269  62.641 -42.784  1.00  0.00     0.002 A 
HETATM   21  C   UNL     1     -44.123  62.637 -43.889  1.00  0.00     0.031 A 
ENDBRANCH  13  16
ENDBRANCH  10  11
ENDBRANCH   9  10
ENDBRANCH   6   9
ENDBRANCH   2   5
BRANCH   1  22
HETATM   22  C   UNL     1     -43.733  57.237 -51.563  1.00  0.00     0.121 A 
HETATM   23  N   UNL     1     -44.346  56.185 -50.940  1.00  0.00    -0.272 N 
HETATM   24  N   UNL     1     -43.745  55.001 -51.141  1.00  0.00    -0.174 NA
HETATM   25  H   UNL     1     -45.201  56.213 -50.392  1.00  0.00     0.189 HD
HETATM   26  C   UNL     1     -42.666  55.291 -51.883  1.00  0.00     0.089 A 
HETATM   27  C   UNL     1     -42.612  56.687 -52.152  1.00  0.00     0.071 A 
BRANCH  26  28
HETATM   28  C   UNL     1     -41.749  54.260 -52.367  1.00  0.00    -0.005 A 
HETATM   29  C   UNL     1     -40.784  53.712 -51.511  1.00  0.00     0.016 A 
HETATM   30  C   UNL     1     -39.959  52.663 -51.937  1.00  0.00     0.037 A 
HETATM   31  C   UNL     1     -40.088  52.154 -53.229  1.00  0.00     0.068 A 
HETATM   32  C   UNL     1     -41.012  52.728 -54.102  1.00  0.00     0.037 A 
HETATM   33  C   UNL     1     -41.844  53.768 -53.675  1.00  0.00     0.016 A 
BRANCH  31  34
HETATM   34  O   UNL     1     -39.360  51.122 -53.752  1.00  0.00    -0.356 OA
HETATM   35  C   UNL     1     -40.114  50.039 -54.287  1.00  0.00     0.210 C 
ENDBRANCH  31  34
ENDBRANCH  26  28
ENDBRANCH   1  22
TORSDOF 8
ENDMDL
MODEL 3
REMARK VINA RESULT:      -8.5      7.537     12.308
REMARK  8 active torsions:
REMARK  status: ('A' for Active; 'I' for Inactive)
REMARK    1  A    between atoms: O_2  and  C_3 
REMARK    2  A    between atoms: C_6  and  C_7 
REMARK    3  A    between atoms: C_11  and  C_12 
REMARK       I    between atoms: C_12  and  N_13 
REMARK    4  A    between atoms: N_13  and  N_14 
REMARK       I    between atoms: N_14  and  C_15 
REMARK    5  A    between atoms: C_15  and  C_16 
REMARK    6  A    between atoms: C_16  and  C_17 
REMARK    7  A    between atoms: C_17  and  C_18 
REMARK    8  A    between atoms: N_20  and  C_21 
ROOT
HETATM    1  C   UNL     1     -45.361  57.971 -55.282  1.00  0.00     0.288 C 
HETATM    2  N   UNL     1     -45.025  56.798 -54.642  1.00  0.00    -0.262 N 
HETATM    3  O   UNL     1     -45.446  59.039 -54.679  1.00  0.00    -0.264 OA
HETATM    4  H   UNL     1     -44.981  55.890 -55.099  1.00  0.00     0.190 HD
ENDROOT
BRANCH   2   5
HETATM    5  N   UNL     1     -44.695  56.822 -53.282  1.00  0.00    -0.267 N 
HETATM    6  C   UNL     1     -43.358  56.864 -52.959  1.00  0.00     0.236 C 
HETATM    7  O   UNL     1     -42.491  57.005 -53.824  1.00  0.00    -0.272 OA
HETATM    8  H   UNL     1     -45.422  56.504 -52.646  1.00  0.00     0.190 HD
BRANCH   6   9
HETATM    9  C   UNL     1     -43.006  56.872 -51.485  1.00  0.00     0.109 C 
BRANCH   9  10
HETATM   10  C   UNL     1     -41.526  56.810 -51.123  1.00  0.00     0.051 C 
BRANCH  10  11
HETATM   11  C   UNL     1     -40.977  55.429 -51.037  1.00  0.00    -0.021 A 
HETATM   12  C   UNL     1     -40.870  54.492 -52.044  1.00  0.00     0.127 A 
HETATM   13  N   UNL     1     -40.336  53.343 -51.494  1.00  0.00    -0.245 N 
HETATM   14  N   UNL     1     -40.078  53.518 -50.171  1.00  0.00    -0.180 NA
HETATM   15  C   UNL     1     -40.471  54.761 -49.905  1.00  0.00     0.147 A 
BRANCH  13  16
HETATM   16  C   UNL     1     -40.072  52.100 -52.135  1.00  0.00     0.058 A 
HETATM   17  C   UNL     1     -40.149  51.968 -53.528  1.00  0.00     0.031 A 
HETATM   18  C   UNL     1     -39.899  50.731 -54.129  1.00  0.00     0.002 A 
HETATM   19  C   UNL     1     -39.571  49.624 -53.348  1.00  0.00     0.000 A 
HETATM   20  C   UNL     1     -39.488  49.748 -51.964  1.00  0.00     0.002 A 
HETATM   21  C   UNL     1     -39.737  50.981 -51.356  1.00  0.00     0.031 A 
ENDBRANCH  13  16
ENDBRANCH  10  11
ENDBRANCH   9  10
ENDBRANCH   6   9
ENDBRANCH   2   5
BRANCH   1  22
HETATM   22  C   UNL     1     -45.571  57.852 -56.699  1.00  0.00     0.121 A 
HETATM   23  N   UNL     1     -44.619  57.341 -57.537  1.00  0.00    -0.272 N 
HETATM   24  N   UNL     1     -45.020  57.214 -58.812  1.00  0.00    -0.174 NA
HETATM   25  H   UNL     1     -43.687  57.028 -57.283  1.00  0.00     0.189 HD
HETATM   26  C   UNL     1     -46.267  57.707 -58.825  1.00  0.00     0.089 A 
HETATM   27  C   UNL     1     -46.643  58.137 -57.522  1.00  0.00     0.071 A 
BRANCH  26  28
HETATM   28  C   UNL     1     -47.094  57.715 -60.032  1.00  0.00    -0.005 A 
HETATM   29  C   UNL     1     -47.582  58.922 -60.548  1.00  0.00     0.016 A 
HETATM   30  C   UNL     1     -48.299  58.951 -61.751  1.00  0.00     0.037 A 
HETATM   31  C   UNL     1     -48.541  57.768 -62.447  1.00  0.00     0.068 A 
HETATM   32  C   UNL     1     -48.101  56.557 -61.913  1.00  0.00     0.037 A 
HETATM   33  C   UNL     1     -47.375  56.527 -60.718  1.00  0.00     0.016 A 
BRANCH  31  34
HETATM   34  O   UNL     1     -49.207  57.668 -63.638  1.00  0.00    -0.356 OA
HETATM   35  C   UNL     1     -50.220  58.640 -63.867  1.00  0.00     0.210 C 
ENDBRANCH  31  34
ENDBRANCH  26  28
ENDBRANCH   1  22
TORSDOF 8
ENDMDL
MODEL 4
REMARK VINA RESULT:      -8.4      7.497     11.968
REMARK  8 active torsions:
REMARK  status: ('A' for Active; 'I' for Inactive)
REMARK    1  A    between atoms: O_2  and  C_3 
REMARK    2  A    between atoms: C_6  and  C_7 
REMARK    3  A    between atoms: C_11  and  C_12 
REMARK       I    between atoms: C_12  and  N_13 
REMARK    4  A    between atoms: N_13  and  N_14 
REMARK       I    between atoms: N_14  and  C_15 
REMARK    5  A    between atoms: C_15  and  C_16 
REMARK    6  A    between atoms: C_16  and  C_17 
REMARK    7  A    between atoms: C_17  and  C_18 
REMARK    8  A    between atoms: N_20  and  C_21 
ROOT
HETATM    1  C   UNL     1     -42.348  56.376 -55.558  1.00  0.00     0.288 C 
HETATM    2  N   UNL     1     -42.825  57.243 -54.600  1.00  0.00    -0.262 N 
HETATM    3  O   UNL     1     -41.474  55.547 -55.308  1.00  0.00    -0.264 OA
HETATM    4  H   UNL     1     -43.519  57.965 -54.777  1.00  0.00     0.190 HD
ENDROOT
BRANCH   2   5
HETATM    5  N   UNL     1     -42.364  57.139 -53.282  1.00  0.00    -0.267 N 
HETATM    6  C   UNL     1     -41.321  57.957 -52.914  1.00  0.00     0.236 C 
HETATM    7  O   UNL     1     -40.894  58.836 -53.667  1.00  0.00    -0.272 OA
HETATM    8  H   UNL     1     -42.610  56.281 -52.795  1.00  0.00     0.190 HD
BRANCH   6   9
HETATM    9  C   UNL     1     -40.813  57.828 -51.492  1.00  0.00     0.109 C 
BRANCH   9  10
HETATM   10  C   UNL     1     -41.489  56.789 -50.604  1.00  0.00     0.051 C 
BRANCH  10  11
HETATM   11  C   UNL     1     -40.897  55.427 -50.698  1.00  0.00    -0.021 A 
HETATM   12  C   UNL     1     -40.910  54.567 -51.777  1.00  0.00     0.127 A 
HETATM   13  N   UNL     1     -40.273  53.403 -51.394  1.00  0.00    -0.245 N 
HETATM   14  N   UNL     1     -39.834  53.495 -50.111  1.00  0.00    -0.180 NA
HETATM   15  C   UNL     1     -40.217  54.701 -49.701  1.00  0.00     0.147 A 
BRANCH  13  16
HETATM   16  C   UNL     1     -40.070  52.218 -52.156  1.00  0.00     0.058 A 
HETATM   17  C   UNL     1     -40.269  52.201 -53.543  1.00  0.00     0.031 A 
HETATM   18  C   UNL     1     -40.077  51.018 -54.263  1.00  0.00     0.002 A 
HETATM   19  C   UNL     1     -39.686  49.852 -53.608  1.00  0.00     0.000 A 
HETATM   20  C   UNL     1     -39.482  49.862 -52.231  1.00  0.00     0.002 A 
HETATM   21  C   UNL     1     -39.672  51.040 -51.504  1.00  0.00     0.031 A 
ENDBRANCH  13  16
ENDBRANCH  10  11
ENDBRANCH   9  10
ENDBRANCH   6   9
ENDBRANCH   2   5
BRANCH   1  22
HETATM   22  C   UNL     1     -42.969  56.495 -56.848  1.00  0.00     0.121 A 
HETATM   23  N   UNL     1     -42.487  55.849 -57.952  1.00  0.00    -0.272 N 
HETATM   24  N   UNL     1     -43.246  55.994 -59.051  1.00  0.00    -0.174 NA
HETATM   25  H   UNL     1     -41.660  55.262 -58.004  1.00  0.00     0.189 HD
HETATM   26  C   UNL     1     -44.241  56.810 -58.668  1.00  0.00     0.089 A 
HETATM   27  C   UNL     1     -44.091  57.163 -57.298  1.00  0.00     0.071 A 
BRANCH  26  28
HETATM   28  C   UNL     1     -45.329  57.193 -59.567  1.00  0.00    -0.005 A 
HETATM   29  C   UNL     1     -46.201  56.221 -60.077  1.00  0.00     0.016 A 
HETATM   30  C   UNL     1     -47.298  56.586 -60.867  1.00  0.00     0.037 A 
HETATM   31  C   UNL     1     -47.532  57.929 -61.161  1.00  0.00     0.068 A 
HETATM   32  C   UNL     1     -46.639  58.896 -60.697  1.00  0.00     0.037 A 
HETATM   33  C   UNL     1     -45.549  58.535 -59.899  1.00  0.00     0.016 A 
BRANCH  31  34
HETATM   34  O   UNL     1     -48.576  58.412 -61.899  1.00  0.00    -0.356 OA
HETATM   35  C   UNL     1     -49.041  59.709 -61.544  1.00  0.00     0.210 C 
ENDBRANCH  31  34
ENDBRANCH  26  28
ENDBRANCH   1  22
TORSDOF 8
ENDMDL
MODEL 5
REMARK VINA RESULT:      -8.4      1.719      2.666
REMARK  8 active torsions:
REMARK  status: ('A' for Active; 'I' for Inactive)
REMARK    1  A    between atoms: O_2  and  C_3 
REMARK    2  A    between atoms: C_6  and  C_7 
REMARK    3  A    between atoms: C_11  and  C_12 
REMARK       I    between atoms: C_12  and  N_13 
REMARK    4  A    between atoms: N_13  and  N_14 
REMARK       I    between atoms: N_14  and  C_15 
REMARK    5  A    between atoms: C_15  and  C_16 
REMARK    6  A    between atoms: C_16  and  C_17 
REMARK    7  A    between atoms: C_17  and  C_18 
REMARK    8  A    between atoms: N_20  and  C_21 
ROOT
HETATM    1  C   UNL     1     -44.503  60.232 -50.550  1.00  0.00     0.288 C 
HETATM    2  N   UNL     1     -43.249  60.660 -50.929  1.00  0.00    -0.262 N 
HETATM    3  O   UNL     1     -45.220  59.573 -51.300  1.00  0.00    -0.264 OA
HETATM    4  H   UNL     1     -42.643  61.237 -50.351  1.00  0.00     0.190 HD
ENDROOT
BRANCH   2   5
HETATM    5  N   UNL     1     -42.736  60.278 -52.174  1.00  0.00    -0.267 N 
HETATM    6  C   UNL     1     -41.597  59.506 -52.175  1.00  0.00     0.236 C 
HETATM    7  O   UNL     1     -41.120  59.060 -51.130  1.00  0.00    -0.272 OA
HETATM    8  H   UNL     1     -43.045  60.833 -52.968  1.00  0.00     0.190 HD
BRANCH   6   9
HETATM    9  C   UNL     1     -41.035  59.111 -53.527  1.00  0.00     0.109 C 
BRANCH   9  10
HETATM   10  C   UNL     1     -41.861  58.142 -54.366  1.00  0.00     0.051 C 
BRANCH  10  11
HETATM   11  C   UNL     1     -41.905  56.754 -53.830  1.00  0.00    -0.021 A 
HETATM   12  C   UNL     1     -40.949  55.767 -53.948  1.00  0.00     0.127 A 
HETATM   13  N   UNL     1     -41.437  54.633 -53.327  1.00  0.00    -0.245 N 
HETATM   14  N   UNL     1     -42.666  54.867 -52.797  1.00  0.00    -0.180 NA
HETATM   15  C   UNL     1     -42.941  56.131 -53.109  1.00  0.00     0.147 A 
BRANCH  13  16
HETATM   16  C   UNL     1     -40.821  53.355 -53.219  1.00  0.00     0.058 A 
HETATM   17  C   UNL     1     -40.222  52.933 -52.024  1.00  0.00     0.031 A 
HETATM   18  C   UNL     1     -39.611  51.677 -51.953  1.00  0.00     0.002 A 
HETATM   19  C   UNL     1     -39.596  50.839 -53.066  1.00  0.00     0.000 A 
HETATM   20  C   UNL     1     -40.193  51.249 -54.255  1.00  0.00     0.002 A 
HETATM   21  C   UNL     1     -40.805  52.502 -54.334  1.00  0.00     0.031 A 
ENDBRANCH  13  16
ENDBRANCH  10  11
ENDBRANCH   9  10
ENDBRANCH   6   9
ENDBRANCH   2   5
BRANCH   1  22
HETATM   22  C   UNL     1     -44.886  60.586 -49.210  1.00  0.00     0.121 A 
HETATM   23  N   UNL     1     -45.816  59.874 -48.506  1.00  0.00    -0.272 N 
HETATM   24  N   UNL     1     -45.980  60.286 -47.238  1.00  0.00    -0.174 NA
HETATM   25  H   UNL     1     -46.346  59.071 -48.831  1.00  0.00     0.189 HD
HETATM   26  C   UNL     1     -45.162  61.343 -47.118  1.00  0.00     0.089 A 
HETATM   27  C   UNL     1     -44.473  61.576 -48.340  1.00  0.00     0.071 A 
BRANCH  26  28
HETATM   28  C   UNL     1     -45.003  62.070 -45.859  1.00  0.00    -0.005 A 
HETATM   29  C   UNL     1     -44.376  61.461 -44.764  1.00  0.00     0.016 A 
HETATM   30  C   UNL     1     -44.138  62.177 -43.584  1.00  0.00     0.037 A 
HETATM   31  C   UNL     1     -44.533  63.510 -43.485  1.00  0.00     0.068 A 
HETATM   32  C   UNL     1     -45.203  64.107 -44.553  1.00  0.00     0.037 A 
HETATM   33  C   UNL     1     -45.431  63.398 -45.736  1.00  0.00     0.016 A 
BRANCH  31  34
HETATM   34  O   UNL     1     -44.339  64.319 -42.399  1.00  0.00    -0.356 OA
HETATM   35  C   UNL     1     -43.786  63.691 -41.248  1.00  0.00     0.210 C 
ENDBRANCH  31  34
ENDBRANCH  26  28
ENDBRANCH   1  22
TORSDOF 8
ENDMDL
MODEL 6
REMARK VINA RESULT:      -8.3      5.224     12.730
REMARK  8 active torsions:
REMARK  status: ('A' for Active; 'I' for Inactive)
REMARK    1  A    between atoms: O_2  and  C_3 
REMARK    2  A    between atoms: C_6  and  C_7 
REMARK    3  A    between atoms: C_11  and  C_12 
REMARK       I    between atoms: C_12  and  N_13 
REMARK    4  A    between atoms: N_13  and  N_14 
REMARK       I    between atoms: N_14  and  C_15 
REMARK    5  A    between atoms: C_15  and  C_16 
REMARK    6  A    between atoms: C_16  and  C_17 
REMARK    7  A    between atoms: C_17  and  C_18 
REMARK    8  A    between atoms: N_20  and  C_21 
ROOT
HETATM    1  C   UNL     1     -42.442  58.410 -51.467  1.00  0.00     0.288 C 
HETATM    2  N   UNL     1     -43.509  58.694 -50.644  1.00  0.00    -0.262 N 
HETATM    3  O   UNL     1     -41.997  59.235 -52.264  1.00  0.00    -0.264 OA
HETATM    4  H   UNL     1     -43.927  58.027 -50.000  1.00  0.00     0.190 HD
ENDROOT
BRANCH   2   5
HETATM    5  N   UNL     1     -44.066  59.978 -50.653  1.00  0.00    -0.267 N 
HETATM    6  C   UNL     1     -45.386  60.094 -50.283  1.00  0.00     0.236 C 
HETATM    7  O   UNL     1     -46.018  59.133 -49.839  1.00  0.00    -0.272 OA
HETATM    8  H   UNL     1     -43.570  60.671 -51.209  1.00  0.00     0.190 HD
BRANCH   6   9
HETATM    9  C   UNL     1     -45.989  61.485 -50.312  1.00  0.00     0.109 C 
BRANCH   9  10
HETATM   10  C   UNL     1     -46.276  62.090 -51.682  1.00  0.00     0.051 C 
BRANCH  10  11
HETATM   11  C   UNL     1     -47.570  62.822 -51.766  1.00  0.00    -0.021 A 
HETATM   12  C   UNL     1     -48.637  62.570 -52.603  1.00  0.00     0.127 A 
HETATM   13  N   UNL     1     -49.601  63.527 -52.355  1.00  0.00    -0.245 N 
HETATM   14  N   UNL     1     -49.197  64.373 -51.372  1.00  0.00    -0.180 NA
HETATM   15  C   UNL     1     -47.981  63.952 -51.033  1.00  0.00     0.147 A 
BRANCH  13  16
HETATM   16  C   UNL     1     -50.862  63.693 -52.994  1.00  0.00     0.058 A 
HETATM   17  C   UNL     1     -51.000  64.495 -54.136  1.00  0.00     0.031 A 
HETATM   18  C   UNL     1     -52.254  64.652 -54.733  1.00  0.00     0.002 A 
HETATM   19  C   UNL     1     -53.372  64.013 -54.200  1.00  0.00     0.000 A 
HETATM   20  C   UNL     1     -53.242  63.211 -53.068  1.00  0.00     0.002 A 
HETATM   21  C   UNL     1     -51.992  63.050 -52.466  1.00  0.00     0.031 A 
ENDBRANCH  13  16
ENDBRANCH  10  11
ENDBRANCH   9  10
ENDBRANCH   6   9
ENDBRANCH   2   5
BRANCH   1  22
HETATM   22  C   UNL     1     -41.876  57.100 -51.298  1.00  0.00     0.121 A 
HETATM   23  N   UNL     1     -41.772  56.502 -50.073  1.00  0.00    -0.272 N 
HETATM   24  N   UNL     1     -41.309  55.242 -50.113  1.00  0.00    -0.174 NA
HETATM   25  H   UNL     1     -42.039  56.897 -49.176  1.00  0.00     0.189 HD
HETATM   26  C   UNL     1     -41.050  55.019 -51.410  1.00  0.00     0.089 A 
HETATM   27  C   UNL     1     -41.372  56.167 -52.184  1.00  0.00     0.071 A 
BRANCH  26  28
HETATM   28  C   UNL     1     -40.563  53.729 -51.900  1.00  0.00    -0.005 A 
HETATM   29  C   UNL     1     -40.004  52.800 -51.012  1.00  0.00     0.016 A 
HETATM   30  C   UNL     1     -39.616  51.529 -51.454  1.00  0.00     0.037 A 
HETATM   31  C   UNL     1     -39.777  51.176 -52.793  1.00  0.00     0.068 A 
HETATM   32  C   UNL     1     -40.286  52.114 -53.692  1.00  0.00     0.037 A 
HETATM   33  C   UNL     1     -40.684  53.380 -53.250  1.00  0.00     0.016 A 
BRANCH  31  34
HETATM   34  O   UNL     1     -39.458  49.964 -53.340  1.00  0.00    -0.356 OA
HETATM   35  C   UNL     1     -39.788  49.796 -54.714  1.00  0.00     0.210 C 
ENDBRANCH  31  34
ENDBRANCH  26  28
ENDBRANCH   1  22
TORSDOF 8
ENDMDL
MODEL 7
REMARK VINA RESULT:      -8.2     10.095     12.827
REMARK  8 active torsions:
REMARK  status: ('A' for Active; 'I' for Inactive)
REMARK    1  A    between atoms: O_2  and  C_3 
REMARK    2  A    between atoms: C_6  and  C_7 
REMARK    3  A    between atoms: C_11  and  C_12 
REMARK       I    between atoms: C_12  and  N_13 
REMARK    4  A    between atoms: N_13  and  N_14 
REMARK       I    between atoms: N_14  and  C_15 
REMARK    5  A    between atoms: C_15  and  C_16 
REMARK    6  A    between atoms: C_16  and  C_17 
REMARK    7  A    between atoms: C_17  and  C_18 
REMARK    8  A    between atoms: N_20  and  C_21 
ROOT
HETATM    1  C   UNL     1     -43.285  56.358 -56.514  1.00  0.00     0.288 C 
HETATM    2  N   UNL     1     -43.587  55.866 -57.765  1.00  0.00    -0.262 N 
HETATM    3  O   UNL     1     -43.859  57.339 -56.044  1.00  0.00    -0.264 OA
HETATM    4  H   UNL     1     -43.109  55.081 -58.201  1.00  0.00     0.190 HD
ENDROOT
BRANCH   2   5
HETATM    5  N   UNL     1     -44.627  56.444 -58.502  1.00  0.00    -0.267 N 
HETATM    6  C   UNL     1     -44.366  56.765 -59.814  1.00  0.00     0.236 C 
HETATM    7  O   UNL     1     -43.308  56.440 -60.358  1.00  0.00    -0.272 OA
HETATM    8  H   UNL     1     -45.377  56.861 -57.956  1.00  0.00     0.190 HD
BRANCH   6   9
HETATM    9  C   UNL     1     -45.490  57.408 -60.603  1.00  0.00     0.109 C 
BRANCH   9  10
HETATM   10  C   UNL     1     -45.879  58.833 -60.223  1.00  0.00     0.051 C 
BRANCH  10  11
HETATM   11  C   UNL     1     -44.731  59.692 -59.823  1.00  0.00    -0.021 A 
HETATM   12  C   UNL     1     -43.783  60.277 -60.636  1.00  0.00     0.127 A 
HETATM   13  N   UNL     1     -42.891  60.951 -59.824  1.00  0.00    -0.245 N 
HETATM   14  N   UNL     1     -43.247  60.833 -58.518  1.00  0.00    -0.180 NA
HETATM   15  C   UNL     1     -44.339  60.074 -58.525  1.00  0.00     0.147 A 
BRANCH  13  16
HETATM   16  C   UNL     1     -41.729  61.679 -60.206  1.00  0.00     0.058 A 
HETATM   17  C   UNL     1     -41.420  61.903 -61.555  1.00  0.00     0.031 A 
HETATM   18  C   UNL     1     -40.263  62.607 -61.900  1.00  0.00     0.002 A 
HETATM   19  C   UNL     1     -39.413  63.091 -60.908  1.00  0.00     0.000 A 
HETATM   20  C   UNL     1     -39.715  62.876 -59.566  1.00  0.00     0.002 A 
HETATM   21  C   UNL     1     -40.869  62.173 -59.213  1.00  0.00     0.031 A 
ENDBRANCH  13  16
ENDBRANCH  10  11
ENDBRANCH   9  10
ENDBRANCH   6   9
ENDBRANCH   2   5
BRANCH   1  22
HETATM   22  C   UNL     1     -42.279  55.621 -55.798  1.00  0.00     0.121 A 
HETATM   23  N   UNL     1     -41.121  56.202 -55.362  1.00  0.00    -0.272 N 
HETATM   24  N   UNL     1     -40.341  55.392 -54.628  1.00  0.00    -0.174 NA
HETATM   25  H   UNL     1     -40.828  57.164 -55.507  1.00  0.00     0.189 HD
HETATM   26  C   UNL     1     -40.987  54.216 -54.623  1.00  0.00     0.089 A 
HETATM   27  C   UNL     1     -42.197  54.313 -55.364  1.00  0.00     0.071 A 
BRANCH  26  28
HETATM   28  C   UNL     1     -40.490  53.054 -53.887  1.00  0.00    -0.005 A 
HETATM   29  C   UNL     1     -40.331  53.112 -52.496  1.00  0.00     0.016 A 
HETATM   30  C   UNL     1     -39.941  51.980 -51.770  1.00  0.00     0.037 A 
HETATM   31  C   UNL     1     -39.700  50.776 -52.431  1.00  0.00     0.068 A 
HETATM   32  C   UNL     1     -39.808  50.724 -53.821  1.00  0.00     0.037 A 
HETATM   33  C   UNL     1     -40.208  51.851 -54.546  1.00  0.00     0.016 A 
BRANCH  31  34
HETATM   34  O   UNL     1     -39.337  49.600 -51.834  1.00  0.00    -0.356 OA
HETATM   35  C   UNL     1     -39.522  49.535 -50.425  1.00  0.00     0.210 C 
ENDBRANCH  31  34
ENDBRANCH  26  28
ENDBRANCH   1  22
TORSDOF 8
ENDMDL
MODEL 8
REMARK VINA RESULT:      -8.1      7.336     11.551
REMARK  8 active torsions:
REMARK  status: ('A' for Active; 'I' for Inactive)
REMARK    1  A    between atoms: O_2  and  C_3 
REMARK    2  A    between atoms: C_6  and  C_7 
REMARK    3  A    between atoms: C_11  and  C_12 
REMARK       I    between atoms: C_12  and  N_13 
REMARK    4  A    between atoms: N_13  and  N_14 
REMARK       I    between atoms: N_14  and  C_15 
REMARK    5  A    between atoms: C_15  and  C_16 
REMARK    6  A    between atoms: C_16  and  C_17 
REMARK    7  A    between atoms: C_17  and  C_18 
REMARK    8  A    between atoms: N_20  and  C_21 
ROOT
HETATM    1  C   UNL     1     -42.824  56.715 -55.816  1.00  0.00     0.288 C 
HETATM    2  N   UNL     1     -42.506  57.356 -54.639  1.00  0.00    -0.262 N 
HETATM    3  O   UNL     1     -43.166  55.534 -55.843  1.00  0.00    -0.264 OA
HETATM    4  H   UNL     1     -42.184  58.319 -54.581  1.00  0.00     0.190 HD
ENDROOT
BRANCH   2   5
HETATM    5  N   UNL     1     -42.644  56.675 -53.423  1.00  0.00    -0.267 N 
HETATM    6  C   UNL     1     -42.454  57.402 -52.270  1.00  0.00     0.236 C 
HETATM    7  O   UNL     1     -42.299  58.625 -52.298  1.00  0.00    -0.272 OA
HETATM    8  H   UNL     1     -42.568  55.663 -53.473  1.00  0.00     0.190 HD
BRANCH   6   9
HETATM    9  C   UNL     1     -42.586  56.656 -50.957  1.00  0.00     0.109 C 
BRANCH   9  10
HETATM   10  C   UNL     1     -41.296  56.311 -50.221  1.00  0.00     0.051 C 
BRANCH  10  11
HETATM   11  C   UNL     1     -40.851  54.902 -50.399  1.00  0.00    -0.021 A 
HETATM   12  C   UNL     1     -40.707  54.198 -51.577  1.00  0.00     0.127 A 
HETATM   13  N   UNL     1     -40.309  52.915 -51.254  1.00  0.00    -0.245 N 
HETATM   14  N   UNL     1     -40.173  52.778 -49.909  1.00  0.00    -0.180 NA
HETATM   15  C   UNL     1     -40.506  53.964 -49.407  1.00  0.00     0.147 A 
BRANCH  13  16
HETATM   16  C   UNL     1     -40.065  51.822 -52.132  1.00  0.00     0.058 A 
HETATM   17  C   UNL     1     -39.677  50.567 -51.643  1.00  0.00     0.031 A 
HETATM   18  C   UNL     1     -39.429  49.516 -52.531  1.00  0.00     0.002 A 
HETATM   19  C   UNL     1     -39.567  49.708 -53.904  1.00  0.00     0.000 A 
HETATM   20  C   UNL     1     -39.957  50.951 -54.397  1.00  0.00     0.002 A 
HETATM   21  C   UNL     1     -40.206  52.006 -53.516  1.00  0.00     0.031 A 
ENDBRANCH  13  16
ENDBRANCH  10  11
ENDBRANCH   9  10
ENDBRANCH   6   9
ENDBRANCH   2   5
BRANCH   1  22
HETATM   22  C   UNL     1     -42.756  57.538 -56.993  1.00  0.00     0.121 A 
HETATM   23  N   UNL     1     -43.606  57.371 -58.050  1.00  0.00    -0.272 N 
HETATM   24  N   UNL     1     -43.464  58.287 -59.021  1.00  0.00    -0.174 NA
HETATM   25  H   UNL     1     -44.332  56.666 -58.145  1.00  0.00     0.189 HD
HETATM   26  C   UNL     1     -42.445  59.058 -58.611  1.00  0.00     0.089 A 
HETATM   27  C   UNL     1     -41.960  58.608 -57.352  1.00  0.00     0.071 A 
BRANCH  26  28
HETATM   28  C   UNL     1     -41.989  60.221 -59.371  1.00  0.00    -0.005 A 
HETATM   29  C   UNL     1     -41.471  61.342 -58.707  1.00  0.00     0.016 A 
HETATM   30  C   UNL     1     -40.950  62.425 -59.427  1.00  0.00     0.037 A 
HETATM   31  C   UNL     1     -40.947  62.400 -60.821  1.00  0.00     0.068 A 
HETATM   32  C   UNL     1     -41.506  61.309 -61.487  1.00  0.00     0.037 A 
HETATM   33  C   UNL     1     -42.017  60.223 -60.771  1.00  0.00     0.016 A 
BRANCH  31  34
HETATM   34  O   UNL     1     -40.448  63.381 -61.632  1.00  0.00    -0.356 OA
HETATM   35  C   UNL     1     -39.386  62.993 -62.496  1.00  0.00     0.210 C 
ENDBRANCH  31  34
ENDBRANCH  26  28
ENDBRANCH   1  22
TORSDOF 8
ENDMDL
MODEL 9
REMARK VINA RESULT:      -8.1      3.089     11.858
REMARK  8 active torsions:
REMARK  status: ('A' for Active; 'I' for Inactive)
REMARK    1  A    between atoms: O_2  and  C_3 
REMARK    2  A    between atoms: C_6  and  C_7 
REMARK    3  A    between atoms: C_11  and  C_12 
REMARK       I    between atoms: C_12  and  N_13 
REMARK    4  A    between atoms: N_13  and  N_14 
REMARK       I    between atoms: N_14  and  C_15 
REMARK    5  A    between atoms: C_15  and  C_16 
REMARK    6  A    between atoms: C_16  and  C_17 
REMARK    7  A    between atoms: C_17  and  C_18 
REMARK    8  A    between atoms: N_20  and  C_21 
ROOT
HETATM    1  C   UNL     1     -44.880  57.981 -51.574  1.00  0.00     0.288 C 
HETATM    2  N   UNL     1     -44.697  59.215 -52.160  1.00  0.00    -0.262 N 
HETATM    3  O   UNL     1     -45.584  57.832 -50.577  1.00  0.00    -0.264 OA
HETATM    4  H   UNL     1     -44.093  59.383 -52.961  1.00  0.00     0.190 HD
ENDROOT
BRANCH   2   5
HETATM    5  N   UNL     1     -45.386  60.326 -51.660  1.00  0.00    -0.267 N 
HETATM    6  C   UNL     1     -46.000  61.149 -52.575  1.00  0.00     0.236 C 
HETATM    7  O   UNL     1     -46.056  60.856 -53.771  1.00  0.00    -0.272 OA
HETATM    8  H   UNL     1     -45.134  60.615 -50.718  1.00  0.00     0.190 HD
BRANCH   6   9
HETATM    9  C   UNL     1     -46.730  62.362 -52.029  1.00  0.00     0.109 C 
BRANCH   9  10
HETATM   10  C   UNL     1     -45.925  63.326 -51.164  1.00  0.00     0.051 C 
BRANCH  10  11
HETATM   11  C   UNL     1     -46.123  63.142 -49.701  1.00  0.00    -0.021 A 
HETATM   12  C   UNL     1     -45.162  62.945 -48.731  1.00  0.00     0.127 A 
HETATM   13  N   UNL     1     -45.812  62.788 -47.522  1.00  0.00    -0.245 N 
HETATM   14  N   UNL     1     -47.157  62.897 -47.681  1.00  0.00    -0.180 NA
HETATM   15  C   UNL     1     -47.334  63.100 -48.983  1.00  0.00     0.147 A 
BRANCH  13  16
HETATM   16  C   UNL     1     -45.242  62.530 -46.243  1.00  0.00     0.058 A 
HETATM   17  C   UNL     1     -44.807  61.246 -45.885  1.00  0.00     0.031 A 
HETATM   18  C   UNL     1     -44.265  61.020 -44.616  1.00  0.00     0.002 A 
HETATM   19  C   UNL     1     -44.154  62.066 -43.702  1.00  0.00     0.000 A 
HETATM   20  C   UNL     1     -44.580  63.345 -44.053  1.00  0.00     0.002 A 
HETATM   21  C   UNL     1     -45.123  63.579 -45.318  1.00  0.00     0.031 A 
ENDBRANCH  13  16
ENDBRANCH  10  11
ENDBRANCH   9  10
ENDBRANCH   6   9
ENDBRANCH   2   5
BRANCH   1  22
HETATM   22  C   UNL     1     -44.215  56.891 -52.234  1.00  0.00     0.121 A 
HETATM   23  N   UNL     1     -44.444  56.583 -53.546  1.00  0.00    -0.272 N 
HETATM   24  N   UNL     1     -43.667  55.598 -54.025  1.00  0.00    -0.174 NA
HETATM   25  H   UNL     1     -45.098  57.040 -54.175  1.00  0.00     0.189 HD
HETATM   26  C   UNL     1     -42.932  55.207 -52.973  1.00  0.00     0.089 A 
HETATM   27  C   UNL     1     -43.261  55.981 -51.825  1.00  0.00     0.071 A 
BRANCH  26  28
HETATM   28  C   UNL     1     -41.909  54.167 -53.076  1.00  0.00    -0.005 A 
HETATM   29  C   UNL     1     -41.134  53.823 -51.960  1.00  0.00     0.016 A 
HETATM   30  C   UNL     1     -40.214  52.769 -52.024  1.00  0.00     0.037 A 
HETATM   31  C   UNL     1     -40.054  52.052 -53.208  1.00  0.00     0.068 A 
HETATM   32  C   UNL     1     -40.786  52.422 -54.337  1.00  0.00     0.037 A 
HETATM   33  C   UNL     1     -41.713  53.466 -54.272  1.00  0.00     0.016 A 
BRANCH  31  34
HETATM   34  O   UNL     1     -39.208  50.993 -53.389  1.00  0.00    -0.356 OA
HETATM   35  C   UNL     1     -39.638  50.006 -54.320  1.00  0.00     0.210 C 
ENDBRANCH  31  34
ENDBRANCH  26  28
ENDBRANCH   1  22
TORSDOF 8
ENDMDL
MODEL 10
REMARK VINA RESULT:      -7.9      4.667     12.149
REMARK  8 active torsions:
REMARK  status: ('A' for Active; 'I' for Inactive)
REMARK    1  A    between atoms: O_2  and  C_3 
REMARK    2  A    between atoms: C_6  and  C_7 
REMARK    3  A    between atoms: C_11  and  C_12 
REMARK       I    between atoms: C_12  and  N_13 
REMARK    4  A    between atoms: N_13  and  N_14 
REMARK       I    between atoms: N_14  and  C_15 
REMARK    5  A    between atoms: C_15  and  C_16 
REMARK    6  A    between atoms: C_16  and  C_17 
REMARK    7  A    between atoms: C_17  and  C_18 
REMARK    8  A    between atoms: N_20  and  C_21 
ROOT
HETATM    1  C   UNL     1     -45.158  58.619 -50.741  1.00  0.00     0.288 C 
HETATM    2  N   UNL     1     -44.292  59.550 -50.212  1.00  0.00    -0.262 N 
HETATM    3  O   UNL     1     -46.368  58.655 -50.520  1.00  0.00    -0.264 OA
HETATM    4  H   UNL     1     -43.284  59.531 -50.342  1.00  0.00     0.190 HD
ENDROOT
BRANCH   2   5
HETATM    5  N   UNL     1     -44.799  60.616 -49.459  1.00  0.00    -0.267 N 
HETATM    6  C   UNL     1     -44.680  61.878 -49.996  1.00  0.00     0.236 C 
HETATM    7  O   UNL     1     -44.266  62.053 -51.144  1.00  0.00    -0.272 OA
HETATM    8  H   UNL     1     -44.933  60.433 -48.468  1.00  0.00     0.190 HD
BRANCH   6   9
HETATM    9  C   UNL     1     -45.214  63.031 -49.168  1.00  0.00     0.109 C 
BRANCH   9  10
HETATM   10  C   UNL     1     -45.916  64.157 -49.918  1.00  0.00     0.051 C 
BRANCH  10  11
HETATM   11  C   UNL     1     -47.393  63.997 -50.017  1.00  0.00    -0.021 A 
HETATM   12  C   UNL     1     -48.131  63.557 -51.097  1.00  0.00     0.127 A 
HETATM   13  N   UNL     1     -49.465  63.608 -50.743  1.00  0.00    -0.245 N 
HETATM   14  N   UNL     1     -49.607  64.048 -49.465  1.00  0.00    -0.180 NA
HETATM   15  C   UNL     1     -48.368  64.285 -49.042  1.00  0.00     0.147 A 
BRANCH  13  16
HETATM   16  C   UNL     1     -50.599  63.283 -51.538  1.00  0.00     0.058 A 
HETATM   17  C   UNL     1     -51.892  63.279 -50.996  1.00  0.00     0.031 A 
HETATM   18  C   UNL     1     -52.986  62.940 -51.798  1.00  0.00     0.002 A 
HETATM   19  C   UNL     1     -52.799  62.606 -53.138  1.00  0.00     0.000 A 
HETATM   20  C   UNL     1     -51.518  62.611 -53.684  1.00  0.00     0.002 A 
HETATM   21  C   UNL     1     -50.420  62.949 -52.889  1.00  0.00     0.031 A 
ENDBRANCH  13  16
ENDBRANCH  10  11
ENDBRANCH   9  10
ENDBRANCH   6   9
ENDBRANCH   2   5
BRANCH   1  22
HETATM   22  C   UNL     1     -44.546  57.633 -51.590  1.00  0.00     0.121 A 
HETATM   23  N   UNL     1     -44.710  57.635 -52.947  1.00  0.00    -0.272 N 
HETATM   24  N   UNL     1     -43.990  56.702 -53.590  1.00  0.00    -0.174 NA
HETATM   25  H   UNL     1     -45.277  58.278 -53.492  1.00  0.00     0.189 HD
HETATM   26  C   UNL     1     -43.366  56.026 -52.613  1.00  0.00     0.089 A 
HETATM   27  C   UNL     1     -43.705  56.567 -51.342  1.00  0.00     0.071 A 
BRANCH  26  28
HETATM   28  C   UNL     1     -42.432  54.935 -52.891  1.00  0.00    -0.005 A 
HETATM   29  C   UNL     1     -41.520  54.518 -51.912  1.00  0.00     0.016 A 
HETATM   30  C   UNL     1     -40.682  53.418 -52.134  1.00  0.00     0.037 A 
HETATM   31  C   UNL     1     -40.743  52.726 -53.344  1.00  0.00     0.068 A 
HETATM   32  C   UNL     1     -41.613  53.167 -54.341  1.00  0.00     0.037 A 
HETATM   33  C   UNL     1     -42.459  54.258 -54.116  1.00  0.00     0.016 A 
BRANCH  31  34
HETATM   34  O   UNL     1     -39.996  51.629 -53.671  1.00  0.00    -0.356 OA
HETATM   35  C   UNL     1     -39.483  50.877 -52.577  1.00  0.00     0.210 C 
ENDBRANCH  31  34
ENDBRANCH  26  28
ENDBRANCH   1  22
TORSDOF 8
ENDMDL
