MODEL 1
REMARK VINA RESULT:      -8.8      0.000      0.000
REMARK  8 active torsions:
REMARK  status: ('A' for Active; 'I' for Inactive)
REMARK    1  A    between atoms: C_7  and  C_8 
REMARK    2  A    between atoms: C_10  and  O_11 
REMARK    3  A    between atoms: C_13  and  O_14 
REMARK    4  A    between atoms: O_14  and  C_15 
REMARK    5  A    between atoms: C_15  and  C_16 
REMARK       I    between atoms: C_16  and  N_17 
REMARK    6  A    between atoms: C_21  and  C_22 
REMARK       I    between atoms: C_22  and  N_23 
REMARK    7  A    between atoms: N_23  and  C_24 
REMARK    8  A    between atoms: C_24  and  C_25 
ROOT
HETATM    1  C   UNL     1     -40.970  57.443 -50.236  1.00  0.00     0.069 C 
HETATM    2  C   UNL     1     -42.130  56.984 -51.071  1.00  0.00     0.024 C 
HETATM    3  N   UNL     1     -43.294  57.701 -50.900  1.00  0.00    -0.312 N 
HETATM    4  C   UNL     1     -44.515  57.347 -51.392  1.00  0.00     0.321 C 
HETATM    5  O   UNL     1     -45.520  58.009 -51.162  1.00  0.00    -0.247 OA
HETATM    6  N   UNL     1     -44.562  56.209 -52.126  1.00  0.00    -0.330 N 
HETATM    7  C   UNL     1     -43.397  55.506 -52.633  1.00  0.00     0.160 C 
HETATM    8  C   UNL     1     -42.149  55.929 -51.907  1.00  0.00     0.059 C 
HETATM    9  H   UNL     1     -43.312  58.506 -50.286  1.00  0.00     0.170 HD
HETATM   10  H   UNL     1     -45.470  55.978 -52.503  1.00  0.00     0.165 HD
ENDROOT
BRANCH   7  11
HETATM   11  C   UNL     1     -43.307  55.708 -54.141  1.00  0.00    -0.028 A 
HETATM   12  C   UNL     1     -43.396  56.991 -54.713  1.00  0.00     0.049 A 
HETATM   13  C   UNL     1     -43.359  57.187 -56.103  1.00  0.00     0.102 A 
HETATM   14  C   UNL     1     -43.188  56.072 -56.940  1.00  0.00     0.102 A 
HETATM   15  C   UNL     1     -43.095  54.793 -56.372  1.00  0.00     0.040 A 
HETATM   16  C   UNL     1     -43.150  54.609 -54.989  1.00  0.00     0.012 A 
BRANCH  13  17
HETATM   17  O   UNL     1     -43.475  58.424 -56.677  1.00  0.00    -0.353 OA
HETATM   18  C   UNL     1     -42.280  59.163 -56.907  1.00  0.00     0.210 C 
ENDBRANCH  13  17
BRANCH  14  19
HETATM   19  O   UNL     1     -43.132  56.039 -58.310  1.00  0.00    -0.339 OA
BRANCH  19  20
HETATM   20  C   UNL     1     -44.343  56.221 -59.039  1.00  0.00     0.278 C 
BRANCH  20  21
HETATM   21  C   UNL     1     -44.537  55.066 -60.021  1.00  0.00     0.239 C 
HETATM   22  N   UNL     1     -44.886  53.868 -59.465  1.00  0.00    -0.368 N 
HETATM   23  H   UNL     1     -44.790  53.734 -58.465  1.00  0.00     0.159 HD
HETATM   24  H   UNL     1     -44.960  53.064 -60.072  1.00  0.00     0.159 HD
HETATM   25  O   UNL     1     -44.446  55.192 -61.238  1.00  0.00    -0.271 OA
ENDBRANCH  20  21
ENDBRANCH  19  20
ENDBRANCH  14  19
ENDBRANCH   7  11
BRANCH   8  26
HETATM   26  C   UNL     1     -40.984  55.032 -52.116  1.00  0.00     0.252 C 
HETATM   27  N   UNL     1     -40.843  54.036 -51.184  1.00  0.00    -0.353 N 
HETATM   28  H   UNL     1     -41.373  54.085 -50.324  1.00  0.00     0.163 HD
HETATM   29  O   UNL     1     -40.194  55.240 -53.030  1.00  0.00    -0.268 OA
BRANCH  27  30
HETATM   30  C   UNL     1     -39.705  53.144 -51.233  1.00  0.00     0.161 C 
BRANCH  30  31
HETATM   31  C   UNL     1     -39.872  51.992 -52.195  1.00  0.00    -0.041 A 
HETATM   32  C   UNL     1     -40.235  52.173 -53.538  1.00  0.00     0.009 A 
HETATM   33  C   UNL     1     -40.323  51.083 -54.408  1.00  0.00     0.001 A 
HETATM   34  C   UNL     1     -40.025  49.801 -53.955  1.00  0.00     0.000 A 
HETATM   35  C   UNL     1     -39.641  49.606 -52.632  1.00  0.00     0.001 A 
HETATM   36  C   UNL     1     -39.562  50.694 -51.759  1.00  0.00     0.009 A 
ENDBRANCH  30  31
ENDBRANCH  27  30
ENDBRANCH   8  26
TORSDOF 8
ENDMDL
MODEL 2
REMARK VINA RESULT:      -8.4      1.898      2.244
REMARK  8 active torsions:
REMARK  status: ('A' for Active; 'I' for Inactive)
REMARK    1  A    between atoms: C_7  and  C_8 
REMARK    2  A    between atoms: C_10  and  O_11 
REMARK    3  A    between atoms: C_13  and  O_14 
REMARK    4  A    between atoms: O_14  and  C_15 
REMARK    5  A    between atoms: C_15  and  C_16 
REMARK       I    between atoms: C_16  and  N_17 
REMARK    6  A    between atoms: C_21  and  C_22 
REMARK       I    between atoms: C_22  and  N_23 
REMARK    7  A    between atoms: N_23  and  C_24 
REMARK    8  A    between atoms: C_24  and  C_25 
ROOT
HETATM    1  C   UNL     1     -40.673  58.813 -50.158  1.00  0.00     0.069 C 
HETATM    2  C   UNL     1     -41.746  58.872 -51.206  1.00  0.00     0.024 C 
HETATM    3  N   UNL     1     -41.978  60.123 -51.736  1.00  0.00    -0.312 N 
HETATM    4  C   UNL     1     -43.025  60.453 -52.543  1.00  0.00     0.321 C 
HETATM    5  O   UNL     1     -43.196  61.599 -52.943  1.00  0.00    -0.247 OA
HETATM    6  N   UNL     1     -43.883  59.452 -52.858  1.00  0.00    -0.330 N 
HETATM    7  C   UNL     1     -43.626  58.042 -52.623  1.00  0.00     0.160 C 
HETATM    8  C   UNL     1     -42.519  57.851 -51.623  1.00  0.00     0.059 C 
HETATM    9  H   UNL     1     -41.409  60.910 -51.452  1.00  0.00     0.170 HD
HETATM   10  H   UNL     1     -44.637  59.712 -53.478  1.00  0.00     0.165 HD
ENDROOT
BRANCH   7  11
HETATM   11  C   UNL     1     -43.352  57.354 -53.954  1.00  0.00    -0.028 A 
HETATM   12  C   UNL     1     -42.708  58.030 -55.008  1.00  0.00     0.049 A 
HETATM   13  C   UNL     1     -42.488  57.422 -56.255  1.00  0.00     0.102 A 
HETATM   14  C   UNL     1     -42.890  56.088 -56.438  1.00  0.00     0.102 A 
HETATM   15  C   UNL     1     -43.529  55.412 -55.389  1.00  0.00     0.040 A 
HETATM   16  C   UNL     1     -43.756  56.032 -54.159  1.00  0.00     0.012 A 
BRANCH  13  17
HETATM   17  O   UNL     1     -41.892  58.075 -57.299  1.00  0.00    -0.353 OA
HETATM   18  C   UNL     1     -42.203  59.452 -57.484  1.00  0.00     0.210 C 
ENDBRANCH  13  17
BRANCH  14  19
HETATM   19  O   UNL     1     -42.778  55.316 -57.566  1.00  0.00    -0.339 OA
BRANCH  19  20
HETATM   20  C   UNL     1     -43.777  55.444 -58.573  1.00  0.00     0.278 C 
BRANCH  20  21
HETATM   21  C   UNL     1     -43.160  56.018 -59.848  1.00  0.00     0.239 C 
HETATM   22  N   UNL     1     -41.826  56.304 -59.783  1.00  0.00    -0.368 N 
HETATM   23  H   UNL     1     -41.364  56.337 -58.882  1.00  0.00     0.159 HD
HETATM   24  H   UNL     1     -41.393  56.745 -60.582  1.00  0.00     0.159 HD
HETATM   25  O   UNL     1     -43.786  56.172 -60.892  1.00  0.00    -0.271 OA
ENDBRANCH  20  21
ENDBRANCH  19  20
ENDBRANCH  14  19
ENDBRANCH   7  11
BRANCH   8  26
HETATM   26  C   UNL     1     -42.420  56.476 -51.072  1.00  0.00     0.252 C 
HETATM   27  N   UNL     1     -41.218  55.851 -51.280  1.00  0.00    -0.353 N 
HETATM   28  H   UNL     1     -40.568  56.240 -51.951  1.00  0.00     0.163 HD
HETATM   29  O   UNL     1     -43.387  55.951 -50.532  1.00  0.00    -0.268 OA
BRANCH  27  30
HETATM   30  C   UNL     1     -41.022  54.481 -50.859  1.00  0.00     0.161 C 
BRANCH  30  31
HETATM   31  C   UNL     1     -40.666  53.540 -51.984  1.00  0.00    -0.041 A 
HETATM   32  C   UNL     1     -40.935  53.832 -53.330  1.00  0.00     0.009 A 
HETATM   33  C   UNL     1     -40.537  52.957 -54.345  1.00  0.00     0.001 A 
HETATM   34  C   UNL     1     -39.843  51.793 -54.032  1.00  0.00     0.000 A 
HETATM   35  C   UNL     1     -39.545  51.499 -52.704  1.00  0.00     0.001 A 
HETATM   36  C   UNL     1     -39.952  52.367 -51.688  1.00  0.00     0.009 A 
ENDBRANCH  30  31
ENDBRANCH  27  30
ENDBRANCH   8  26
TORSDOF 8
ENDMDL
MODEL 3
REMARK VINA RESULT:      -8.4      2.479      3.598
REMARK  8 active torsions:
REMARK  status: ('A' for Active; 'I' for Inactive)
REMARK    1  A    between atoms: C_7  and  C_8 
REMARK    2  A    between atoms: C_10  and  O_11 
REMARK    3  A    between atoms: C_13  and  O_14 
REMARK    4  A    between atoms: O_14  and  C_15 
REMARK    5  A    between atoms: C_15  and  C_16 
REMARK       I    between atoms: C_16  and  N_17 
REMARK    6  A    between atoms: C_21  and  C_22 
REMARK       I    between atoms: C_22  and  N_23 
REMARK    7  A    between atoms: N_23  and  C_24 
REMARK    8  A    between atoms: C_24  and  C_25 
ROOT
HETATM    1  C   UNL     1     -41.045  56.236 -50.527  1.00  0.00     0.069 C 
HETATM    2  C   UNL     1     -42.257  56.551 -51.354  1.00  0.00     0.024 C 
HETATM    3  N   UNL     1     -43.302  57.128 -50.666  1.00  0.00    -0.312 N 
HETATM    4  C   UNL     1     -44.560  57.314 -51.156  1.00  0.00     0.321 C 
HETATM    5  O   UNL     1     -45.456  57.793 -50.471  1.00  0.00    -0.247 OA
HETATM    6  N   UNL     1     -44.774  56.914 -52.433  1.00  0.00    -0.330 N 
HETATM    7  C   UNL     1     -43.725  56.561 -53.373  1.00  0.00     0.160 C 
HETATM    8  C   UNL     1     -42.431  56.276 -52.661  1.00  0.00     0.059 C 
HETATM    9  H   UNL     1     -43.201  57.356 -49.684  1.00  0.00     0.170 HD
HETATM   10  H   UNL     1     -45.705  57.084 -52.786  1.00  0.00     0.165 HD
ENDROOT
BRANCH   7  11
HETATM   11  C   UNL     1     -43.599  57.660 -54.421  1.00  0.00    -0.028 A 
HETATM   12  C   UNL     1     -43.217  58.968 -54.067  1.00  0.00     0.049 A 
HETATM   13  C   UNL     1     -43.140  60.000 -55.015  1.00  0.00     0.102 A 
HETATM   14  C   UNL     1     -43.415  59.705 -56.361  1.00  0.00     0.102 A 
HETATM   15  C   UNL     1     -43.793  58.403 -56.717  1.00  0.00     0.040 A 
HETATM   16  C   UNL     1     -43.882  57.388 -55.763  1.00  0.00     0.012 A 
BRANCH  13  17
HETATM   17  O   UNL     1     -42.801  61.283 -54.683  1.00  0.00    -0.353 OA
HETATM   18  C   UNL     1     -43.835  62.142 -54.213  1.00  0.00     0.210 C 
ENDBRANCH  13  17
BRANCH  14  19
HETATM   19  O   UNL     1     -43.406  60.558 -57.435  1.00  0.00    -0.339 OA
BRANCH  19  20
HETATM   20  C   UNL     1     -42.273  60.545 -58.299  1.00  0.00     0.278 C 
BRANCH  20  21
HETATM   21  C   UNL     1     -41.370  61.739 -57.990  1.00  0.00     0.239 C 
HETATM   22  N   UNL     1     -41.960  62.770 -57.315  1.00  0.00    -0.368 N 
HETATM   23  H   UNL     1     -42.971  62.806 -57.242  1.00  0.00     0.159 HD
HETATM   24  H   UNL     1     -41.417  63.604 -57.148  1.00  0.00     0.159 HD
HETATM   25  O   UNL     1     -40.176  61.773 -58.270  1.00  0.00    -0.271 OA
ENDBRANCH  20  21
ENDBRANCH  19  20
ENDBRANCH  14  19
ENDBRANCH   7  11
BRANCH   8  26
HETATM   26  C   UNL     1     -41.412  55.586 -53.492  1.00  0.00     0.252 C 
HETATM   27  N   UNL     1     -41.551  54.224 -53.568  1.00  0.00    -0.353 N 
HETATM   28  H   UNL     1     -42.167  53.752 -52.918  1.00  0.00     0.163 HD
HETATM   29  O   UNL     1     -40.494  56.215 -54.003  1.00  0.00    -0.268 OA
BRANCH  27  30
HETATM   30  C   UNL     1     -40.578  53.428 -54.283  1.00  0.00     0.161 C 
BRANCH  30  31
HETATM   31  C   UNL     1     -40.149  52.180 -53.549  1.00  0.00    -0.041 A 
HETATM   32  C   UNL     1     -39.886  52.165 -52.171  1.00  0.00     0.009 A 
HETATM   33  C   UNL     1     -39.547  50.976 -51.520  1.00  0.00     0.001 A 
HETATM   34  C   UNL     1     -39.491  49.781 -52.232  1.00  0.00     0.000 A 
HETATM   35  C   UNL     1     -39.773  49.773 -53.595  1.00  0.00     0.001 A 
HETATM   36  C   UNL     1     -40.102  50.963 -54.248  1.00  0.00     0.009 A 
ENDBRANCH  30  31
ENDBRANCH  27  30
ENDBRANCH   8  26
TORSDOF 8
ENDMDL
MODEL 4
REMARK VINA RESULT:      -8.4      2.190      3.573
REMARK  8 active torsions:
REMARK  status: ('A' for Active; 'I' for Inactive)
REMARK    1  A    between atoms: C_7  and  C_8 
REMARK    2  A    between atoms: C_10  and  O_11 
REMARK    3  A    between atoms: C_13  and  O_14 
REMARK    4  A    between atoms: O_14  and  C_15 
REMARK    5  A    between atoms: C_15  and  C_16 
REMARK       I    between atoms: C_16  and  N_17 
REMARK    6  A    between atoms: C_21  and  C_22 
REMARK       I    between atoms: C_22  and  N_23 
REMARK    7  A    between atoms: N_23  and  C_24 
REMARK    8  A    between atoms: C_24  and  C_25 
ROOT
HETATM    1  C   UNL     1     -41.010  56.341 -50.655  1.00  0.00     0.069 C 
HETATM    2  C   UNL     1     -42.243  56.604 -51.471  1.00  0.00     0.024 C 
HETATM    3  N   UNL     1     -43.273  57.219 -50.793  1.00  0.00    -0.312 N 
HETATM    4  C   UNL     1     -44.543  57.373 -51.264  1.00  0.00     0.321 C 
HETATM    5  O   UNL     1     -45.424  57.891 -50.587  1.00  0.00    -0.247 OA
HETATM    6  N   UNL     1     -44.785  56.898 -52.510  1.00  0.00    -0.330 N 
HETATM    7  C   UNL     1     -43.758  56.491 -53.452  1.00  0.00     0.160 C 
HETATM    8  C   UNL     1     -42.446  56.252 -52.755  1.00  0.00     0.059 C 
HETATM    9  H   UNL     1     -43.150  57.505 -49.830  1.00  0.00     0.170 HD
HETATM   10  H   UNL     1     -45.725  57.046 -52.850  1.00  0.00     0.165 HD
ENDROOT
BRANCH   7  11
HETATM   11  C   UNL     1     -43.660  57.527 -54.565  1.00  0.00    -0.028 A 
HETATM   12  C   UNL     1     -44.197  57.279 -55.843  1.00  0.00     0.049 A 
HETATM   13  C   UNL     1     -44.075  58.206 -56.891  1.00  0.00     0.102 A 
HETATM   14  C   UNL     1     -43.433  59.430 -56.641  1.00  0.00     0.102 A 
HETATM   15  C   UNL     1     -42.901  59.680 -55.368  1.00  0.00     0.040 A 
HETATM   16  C   UNL     1     -43.013  58.745 -54.339  1.00  0.00     0.012 A 
BRANCH  13  17
HETATM   17  O   UNL     1     -44.564  57.968 -58.146  1.00  0.00    -0.353 OA
HETATM   18  C   UNL     1     -43.744  57.232 -59.049  1.00  0.00     0.210 C 
ENDBRANCH  13  17
BRANCH  14  19
HETATM   19  O   UNL     1     -43.202  60.461 -57.515  1.00  0.00    -0.339 OA
BRANCH  19  20
HETATM   20  C   UNL     1     -41.994  60.448 -58.271  1.00  0.00     0.278 C 
BRANCH  20  21
HETATM   21  C   UNL     1     -41.219  61.744 -58.035  1.00  0.00     0.239 C 
HETATM   22  N   UNL     1     -41.869  62.699 -57.305  1.00  0.00    -0.368 N 
HETATM   23  H   UNL     1     -42.866  62.613 -57.144  1.00  0.00     0.159 HD
HETATM   24  H   UNL     1     -41.418  63.594 -57.181  1.00  0.00     0.159 HD
HETATM   25  O   UNL     1     -40.067  61.921 -58.419  1.00  0.00    -0.271 OA
ENDBRANCH  20  21
ENDBRANCH  19  20
ENDBRANCH  14  19
ENDBRANCH   7  11
BRANCH   8  26
HETATM   26  C   UNL     1     -41.445  55.515 -53.567  1.00  0.00     0.252 C 
HETATM   27  N   UNL     1     -41.692  54.175 -53.717  1.00  0.00    -0.353 N 
HETATM   28  H   UNL     1     -42.378  53.729 -53.122  1.00  0.00     0.163 HD
HETATM   29  O   UNL     1     -40.452  56.087 -54.001  1.00  0.00    -0.268 OA
BRANCH  27  30
HETATM   30  C   UNL     1     -40.751  53.332 -54.421  1.00  0.00     0.161 C 
BRANCH  30  31
HETATM   31  C   UNL     1     -40.259  52.156 -53.613  1.00  0.00    -0.041 A 
HETATM   32  C   UNL     1     -40.000  52.239 -52.236  1.00  0.00     0.009 A 
HETATM   33  C   UNL     1     -39.599  51.111 -51.514  1.00  0.00     0.001 A 
HETATM   34  C   UNL     1     -39.476  49.880 -52.152  1.00  0.00     0.000 A 
HETATM   35  C   UNL     1     -39.752  49.774 -53.513  1.00  0.00     0.001 A 
HETATM   36  C   UNL     1     -40.143  50.903 -54.237  1.00  0.00     0.009 A 
ENDBRANCH  30  31
ENDBRANCH  27  30
ENDBRANCH   8  26
TORSDOF 8
ENDMDL
MODEL 5
REMARK VINA RESULT:      -8.3      2.847      6.851
REMARK  8 active torsions:
REMARK  status: ('A' for Active; 'I' for Inactive)
REMARK    1  A    between atoms: C_7  and  C_8 
REMARK    2  A    between atoms: C_10  and  O_11 
REMARK    3  A    between atoms: C_13  and  O_14 
REMARK    4  A    between atoms: O_14  and  C_15 
REMARK    5  A    between atoms: C_15  and  C_16 
REMARK       I    between atoms: C_16  and  N_17 
REMARK    6  A    between atoms: C_21  and  C_22 
REMARK       I    between atoms: C_22  and  N_23 
REMARK    7  A    between atoms: N_23  and  C_24 
REMARK    8  A    between atoms: C_24  and  C_25 
ROOT
HETATM    1  C   UNL     1     -44.232  59.737 -52.289  1.00  0.00     0.069 C 
HETATM    2  C   UNL     1     -42.942  59.057 -52.646  1.00  0.00     0.024 C 
HETATM    3  N   UNL     1     -41.860  59.407 -51.868  1.00  0.00    -0.312 N 
HETATM    4  C   UNL     1     -40.564  59.077 -52.129  1.00  0.00     0.321 C 
HETATM    5  O   UNL     1     -39.643  59.463 -51.417  1.00  0.00    -0.247 OA
HETATM    6  N   UNL     1     -40.345  58.323 -53.233  1.00  0.00    -0.330 N 
HETATM    7  C   UNL     1     -41.383  57.640 -53.985  1.00  0.00     0.160 C 
HETATM    8  C   UNL     1     -42.742  58.199 -53.665  1.00  0.00     0.059 C 
HETATM    9  H   UNL     1     -41.978  60.041 -51.088  1.00  0.00     0.170 HD
HETATM   10  H   UNL     1     -39.381  58.067 -53.394  1.00  0.00     0.165 HD
ENDROOT
BRANCH   7  11
HETATM   11  C   UNL     1     -41.281  56.141 -53.731  1.00  0.00    -0.028 A 
HETATM   12  C   UNL     1     -41.648  55.582 -52.491  1.00  0.00     0.049 A 
HETATM   13  C   UNL     1     -41.518  54.209 -52.229  1.00  0.00     0.102 A 
HETATM   14  C   UNL     1     -41.045  53.367 -53.249  1.00  0.00     0.102 A 
HETATM   15  C   UNL     1     -40.681  53.920 -54.485  1.00  0.00     0.040 A 
HETATM   16  C   UNL     1     -40.800  55.289 -54.729  1.00  0.00     0.012 A 
BRANCH  13  17
HETATM   17  O   UNL     1     -41.841  53.655 -51.020  1.00  0.00    -0.353 OA
HETATM   18  C   UNL     1     -41.730  54.478 -49.863  1.00  0.00     0.210 C 
ENDBRANCH  13  17
BRANCH  14  19
HETATM   19  O   UNL     1     -40.836  52.012 -53.202  1.00  0.00    -0.339 OA
BRANCH  19  20
HETATM   20  C   UNL     1     -39.570  51.509 -53.618  1.00  0.00     0.278 C 
BRANCH  20  21
HETATM   21  C   UNL     1     -39.620  49.984 -53.707  1.00  0.00     0.239 C 
HETATM   22  N   UNL     1     -39.583  49.319 -52.514  1.00  0.00    -0.368 N 
HETATM   23  H   UNL     1     -39.313  49.816 -51.673  1.00  0.00     0.159 HD
HETATM   24  H   UNL     1     -39.549  48.310 -52.531  1.00  0.00     0.159 HD
HETATM   25  O   UNL     1     -39.741  49.372 -54.764  1.00  0.00    -0.271 OA
ENDBRANCH  20  21
ENDBRANCH  19  20
ENDBRANCH  14  19
ENDBRANCH   7  11
BRANCH   8  26
HETATM   26  C   UNL     1     -43.808  57.806 -54.621  1.00  0.00     0.252 C 
HETATM   27  N   UNL     1     -43.833  58.521 -55.790  1.00  0.00    -0.353 N 
HETATM   28  H   UNL     1     -43.301  59.380 -55.856  1.00  0.00     0.163 HD
HETATM   29  O   UNL     1     -44.625  56.943 -54.322  1.00  0.00    -0.268 OA
BRANCH  27  30
HETATM   30  C   UNL     1     -44.870  58.286 -56.770  1.00  0.00     0.161 C 
BRANCH  30  31
HETATM   31  C   UNL     1     -44.442  57.396 -57.913  1.00  0.00    -0.041 A 
HETATM   32  C   UNL     1     -43.254  56.650 -57.887  1.00  0.00     0.009 A 
HETATM   33  C   UNL     1     -42.924  55.794 -58.942  1.00  0.00     0.001 A 
HETATM   34  C   UNL     1     -43.787  55.654 -60.024  1.00  0.00     0.000 A 
HETATM   35  C   UNL     1     -44.982  56.368 -60.055  1.00  0.00     0.001 A 
HETATM   36  C   UNL     1     -45.308  57.231 -59.006  1.00  0.00     0.009 A 
ENDBRANCH  30  31
ENDBRANCH  27  30
ENDBRANCH   8  26
TORSDOF 8
ENDMDL
MODEL 6
REMARK VINA RESULT:      -8.2      2.365      5.750
REMARK  8 active torsions:
REMARK  status: ('A' for Active; 'I' for Inactive)
REMARK    1  A    between atoms: C_7  and  C_8 
REMARK    2  A    between atoms: C_10  and  O_11 
REMARK    3  A    between atoms: C_13  and  O_14 
REMARK    4  A    between atoms: O_14  and  C_15 
REMARK    5  A    between atoms: C_15  and  C_16 
REMARK       I    between atoms: C_16  and  N_17 
REMARK    6  A    between atoms: C_21  and  C_22 
REMARK       I    between atoms: C_22  and  N_23 
REMARK    7  A    between atoms: N_23  and  C_24 
REMARK    8  A    between atoms: C_24  and  C_25 
ROOT
HETATM    1  C   UNL     1     -43.616  53.377 -55.820  1.00  0.00     0.069 C 
HETATM    2  C   UNL     1     -43.117  54.783 -55.980  1.00  0.00     0.024 C 
HETATM    3  N   UNL     1     -43.388  55.366 -57.199  1.00  0.00    -0.312 N 
HETATM    4  C   UNL     1     -42.865  56.545 -57.641  1.00  0.00     0.321 C 
HETATM    5  O   UNL     1     -43.114  56.983 -58.759  1.00  0.00    -0.247 OA
HETATM    6  N   UNL     1     -42.034  57.192 -56.789  1.00  0.00    -0.330 N 
HETATM    7  C   UNL     1     -41.876  56.865 -55.383  1.00  0.00     0.160 C 
HETATM    8  C   UNL     1     -42.400  55.487 -55.083  1.00  0.00     0.059 C 
HETATM    9  H   UNL     1     -43.933  54.868 -57.892  1.00  0.00     0.170 HD
HETATM   10  H   UNL     1     -41.678  58.076 -57.125  1.00  0.00     0.165 HD
ENDROOT
BRANCH   7  11
HETATM   11  C   UNL     1     -42.536  57.949 -54.539  1.00  0.00    -0.028 A 
HETATM   12  C   UNL     1     -41.783  58.749 -53.658  1.00  0.00     0.049 A 
HETATM   13  C   UNL     1     -42.385  59.721 -52.842  1.00  0.00     0.102 A 
HETATM   14  C   UNL     1     -43.771  59.925 -52.941  1.00  0.00     0.102 A 
HETATM   15  C   UNL     1     -44.522  59.132 -53.821  1.00  0.00     0.040 A 
HETATM   16  C   UNL     1     -43.916  58.157 -54.615  1.00  0.00     0.012 A 
BRANCH  13  17
HETATM   17  O   UNL     1     -41.673  60.484 -51.958  1.00  0.00    -0.353 OA
HETATM   18  C   UNL     1     -41.415  59.939 -50.668  1.00  0.00     0.210 C 
ENDBRANCH  13  17
BRANCH  14  19
HETATM   19  O   UNL     1     -44.551  60.807 -52.239  1.00  0.00    -0.339 OA
BRANCH  19  20
HETATM   20  C   UNL     1     -45.791  60.342 -51.712  1.00  0.00     0.278 C 
BRANCH  20  21
HETATM   21  C   UNL     1     -45.580  59.774 -50.309  1.00  0.00     0.239 C 
HETATM   22  N   UNL     1     -44.766  60.505 -49.490  1.00  0.00    -0.368 N 
HETATM   23  H   UNL     1     -44.184  61.234 -49.886  1.00  0.00     0.159 HD
HETATM   24  H   UNL     1     -44.548  60.132 -48.578  1.00  0.00     0.159 HD
HETATM   25  O   UNL     1     -46.136  58.760 -49.900  1.00  0.00    -0.271 OA
ENDBRANCH  20  21
ENDBRANCH  19  20
ENDBRANCH  14  19
ENDBRANCH   7  11
BRANCH   8  26
HETATM   26  C   UNL     1     -41.976  54.942 -53.769  1.00  0.00     0.252 C 
HETATM   27  N   UNL     1     -40.741  54.347 -53.758  1.00  0.00    -0.353 N 
HETATM   28  H   UNL     1     -40.293  54.120 -54.636  1.00  0.00     0.163 HD
HETATM   29  O   UNL     1     -42.731  54.985 -52.805  1.00  0.00    -0.268 OA
BRANCH  27  30
HETATM   30  C   UNL     1     -40.247  53.710 -52.557  1.00  0.00     0.161 C 
BRANCH  30  31
HETATM   31  C   UNL     1     -40.070  52.216 -52.685  1.00  0.00    -0.041 A 
HETATM   32  C   UNL     1     -40.148  51.547 -53.917  1.00  0.00     0.009 A 
HETATM   33  C   UNL     1     -39.922  50.170 -53.999  1.00  0.00     0.001 A 
HETATM   34  C   UNL     1     -39.589  49.448 -52.857  1.00  0.00     0.000 A 
HETATM   35  C   UNL     1     -39.484  50.098 -51.631  1.00  0.00     0.001 A 
HETATM   36  C   UNL     1     -39.720  51.473 -51.546  1.00  0.00     0.009 A 
ENDBRANCH  30  31
ENDBRANCH  27  30
ENDBRANCH   8  26
TORSDOF 8
ENDMDL
MODEL 7
REMARK VINA RESULT:      -8.1      2.477      6.372
REMARK  8 active torsions:
REMARK  status: ('A' for Active; 'I' for Inactive)
REMARK    1  A    between atoms: C_7  and  C_8 
REMARK    2  A    between atoms: C_10  and  O_11 
REMARK    3  A    between atoms: C_13  and  O_14 
REMARK    4  A    between atoms: O_14  and  C_15 
REMARK    5  A    between atoms: C_15  and  C_16 
REMARK       I    between atoms: C_16  and  N_17 
REMARK    6  A    between atoms: C_21  and  C_22 
REMARK       I    between atoms: C_22  and  N_23 
REMARK    7  A    between atoms: N_23  and  C_24 
REMARK    8  A    between atoms: C_24  and  C_25 
ROOT
HETATM    1  C   UNL     1     -43.730  55.410 -58.653  1.00  0.00     0.069 C 
HETATM    2  C   UNL     1     -43.235  56.498 -57.744  1.00  0.00     0.024 C 
HETATM    3  N   UNL     1     -43.397  57.780 -58.223  1.00  0.00    -0.312 N 
HETATM    4  C   UNL     1     -42.850  58.900 -57.673  1.00  0.00     0.321 C 
HETATM    5  O   UNL     1     -42.997  60.006 -58.179  1.00  0.00    -0.247 OA
HETATM    6  N   UNL     1     -42.111  58.721 -56.551  1.00  0.00    -0.330 N 
HETATM    7  C   UNL     1     -42.082  57.497 -55.769  1.00  0.00     0.160 C 
HETATM    8  C   UNL     1     -42.615  56.334 -56.560  1.00  0.00     0.059 C 
HETATM    9  H   UNL     1     -43.868  57.938 -59.105  1.00  0.00     0.170 HD
HETATM   10  H   UNL     1     -41.736  59.566 -56.144  1.00  0.00     0.165 HD
ENDROOT
BRANCH   7  11
HETATM   11  C   UNL     1     -42.832  57.721 -54.461  1.00  0.00    -0.028 A 
HETATM   12  C   UNL     1     -42.146  57.870 -53.241  1.00  0.00     0.049 A 
HETATM   13  C   UNL     1     -42.825  58.032 -52.023  1.00  0.00     0.102 A 
HETATM   14  C   UNL     1     -44.229  58.086 -52.033  1.00  0.00     0.102 A 
HETATM   15  C   UNL     1     -44.914  57.941 -53.247  1.00  0.00     0.040 A 
HETATM   16  C   UNL     1     -44.229  57.764 -54.450  1.00  0.00     0.012 A 
BRANCH  13  17
HETATM   17  O   UNL     1     -42.174  58.147 -50.825  1.00  0.00    -0.353 OA
HETATM   18  C   UNL     1     -40.752  58.222 -50.848  1.00  0.00     0.210 C 
ENDBRANCH  13  17
BRANCH  14  19
HETATM   19  O   UNL     1     -45.080  58.229 -50.967  1.00  0.00    -0.339 OA
BRANCH  19  20
HETATM   20  C   UNL     1     -45.880  59.406 -50.895  1.00  0.00     0.278 C 
BRANCH  20  21
HETATM   21  C   UNL     1     -45.416  60.281 -49.731  1.00  0.00     0.239 C 
HETATM   22  N   UNL     1     -44.063  60.406 -49.587  1.00  0.00    -0.368 N 
HETATM   23  H   UNL     1     -43.447  59.774 -50.085  1.00  0.00     0.159 HD
HETATM   24  H   UNL     1     -43.713  60.922 -48.793  1.00  0.00     0.159 HD
HETATM   25  O   UNL     1     -46.185  60.888 -48.993  1.00  0.00    -0.271 OA
ENDBRANCH  20  21
ENDBRANCH  19  20
ENDBRANCH  14  19
ENDBRANCH   7  11
BRANCH   8  26
HETATM   26  C   UNL     1     -42.311  55.004 -55.976  1.00  0.00     0.252 C 
HETATM   27  N   UNL     1     -40.989  54.785 -55.685  1.00  0.00    -0.353 N 
HETATM   28  H   UNL     1     -40.289  55.411 -56.062  1.00  0.00     0.163 HD
HETATM   29  O   UNL     1     -43.195  54.167 -55.838  1.00  0.00    -0.268 OA
BRANCH  27  30
HETATM   30  C   UNL     1     -40.552  53.501 -55.183  1.00  0.00     0.161 C 
BRANCH  30  31
HETATM   31  C   UNL     1     -40.441  53.437 -53.679  1.00  0.00    -0.041 A 
HETATM   32  C   UNL     1     -40.887  54.472 -52.842  1.00  0.00     0.009 A 
HETATM   33  C   UNL     1     -40.817  54.349 -51.452  1.00  0.00     0.001 A 
HETATM   34  C   UNL     1     -40.325  53.180 -50.878  1.00  0.00     0.000 A 
HETATM   35  C   UNL     1     -39.901  52.134 -51.692  1.00  0.00     0.001 A 
HETATM   36  C   UNL     1     -39.961  52.261 -53.082  1.00  0.00     0.009 A 
ENDBRANCH  30  31
ENDBRANCH  27  30
ENDBRANCH   8  26
TORSDOF 8
ENDMDL
MODEL 8
REMARK VINA RESULT:      -8.0      3.120      6.894
REMARK  8 active torsions:
REMARK  status: ('A' for Active; 'I' for Inactive)
REMARK    1  A    between atoms: C_7  and  C_8 
REMARK    2  A    between atoms: C_10  and  O_11 
REMARK    3  A    between atoms: C_13  and  O_14 
REMARK    4  A    between atoms: O_14  and  C_15 
REMARK    5  A    between atoms: C_15  and  C_16 
REMARK       I    between atoms: C_16  and  N_17 
REMARK    6  A    between atoms: C_21  and  C_22 
REMARK       I    between atoms: C_22  and  N_23 
REMARK    7  A    between atoms: N_23  and  C_24 
REMARK    8  A    between atoms: C_24  and  C_25 
ROOT
HETATM    1  C   UNL     1     -43.071  55.958 -55.604  1.00  0.00     0.069 C 
HETATM    2  C   UNL     1     -42.654  57.248 -54.959  1.00  0.00     0.024 C 
HETATM    3  N   UNL     1     -42.527  58.318 -55.818  1.00  0.00    -0.312 N 
HETATM    4  C   UNL     1     -41.973  59.521 -55.499  1.00  0.00     0.321 C 
HETATM    5  O   UNL     1     -41.850  60.416 -56.328  1.00  0.00    -0.247 OA
HETATM    6  N   UNL     1     -41.541  59.666 -54.222  1.00  0.00    -0.330 N 
HETATM    7  C   UNL     1     -41.858  58.756 -53.136  1.00  0.00     0.160 C 
HETATM    8  C   UNL     1     -42.349  57.434 -53.661  1.00  0.00     0.059 C 
HETATM    9  H   UNL     1     -42.758  58.214 -56.798  1.00  0.00     0.170 HD
HETATM   10  H   UNL     1     -41.158  60.574 -53.999  1.00  0.00     0.165 HD
ENDROOT
BRANCH   7  11
HETATM   11  C   UNL     1     -42.849  59.427 -52.193  1.00  0.00    -0.028 A 
HETATM   12  C   UNL     1     -44.230  59.439 -52.471  1.00  0.00     0.049 A 
HETATM   13  C   UNL     1     -45.148  60.092 -51.633  1.00  0.00     0.102 A 
HETATM   14  C   UNL     1     -44.677  60.715 -50.466  1.00  0.00     0.102 A 
HETATM   15  C   UNL     1     -43.303  60.702 -50.186  1.00  0.00     0.040 A 
HETATM   16  C   UNL     1     -42.397  60.064 -51.035  1.00  0.00     0.012 A 
BRANCH  13  17
HETATM   17  O   UNL     1     -46.489  60.139 -51.905  1.00  0.00    -0.353 OA
HETATM   18  C   UNL     1     -46.991  61.295 -52.568  1.00  0.00     0.210 C 
ENDBRANCH  13  17
BRANCH  14  19
HETATM   19  O   UNL     1     -45.395  61.408 -49.525  1.00  0.00    -0.339 OA
BRANCH  19  20
HETATM   20  C   UNL     1     -44.750  61.750 -48.301  1.00  0.00     0.278 C 
BRANCH  20  21
HETATM   21  C   UNL     1     -45.383  60.976 -47.145  1.00  0.00     0.239 C 
HETATM   22  N   UNL     1     -44.532  60.609 -46.142  1.00  0.00    -0.368 N 
HETATM   23  H   UNL     1     -43.531  60.661 -46.291  1.00  0.00     0.159 HD
HETATM   24  H   UNL     1     -44.896  60.041 -45.391  1.00  0.00     0.159 HD
HETATM   25  O   UNL     1     -46.584  60.734 -47.071  1.00  0.00    -0.271 OA
ENDBRANCH  20  21
ENDBRANCH  19  20
ENDBRANCH  14  19
ENDBRANCH   7  11
BRANCH   8  26
HETATM   26  C   UNL     1     -42.370  56.344 -52.653  1.00  0.00     0.252 C 
HETATM   27  N   UNL     1     -41.190  55.658 -52.515  1.00  0.00    -0.353 N 
HETATM   28  H   UNL     1     -40.469  55.768 -53.215  1.00  0.00     0.163 HD
HETATM   29  O   UNL     1     -43.403  56.067 -52.057  1.00  0.00    -0.268 OA
BRANCH  27  30
HETATM   30  C   UNL     1     -41.104  54.524 -51.621  1.00  0.00     0.161 C 
BRANCH  30  31
HETATM   31  C   UNL     1     -40.656  53.248 -52.293  1.00  0.00    -0.041 A 
HETATM   32  C   UNL     1     -40.862  52.999 -53.659  1.00  0.00     0.009 A 
HETATM   33  C   UNL     1     -40.381  51.829 -54.253  1.00  0.00     0.001 A 
HETATM   34  C   UNL     1     -39.665  50.905 -53.497  1.00  0.00     0.000 A 
HETATM   35  C   UNL     1     -39.430  51.147 -52.146  1.00  0.00     0.001 A 
HETATM   36  C   UNL     1     -39.920  52.312 -51.550  1.00  0.00     0.009 A 
ENDBRANCH  30  31
ENDBRANCH  27  30
ENDBRANCH   8  26
TORSDOF 8
ENDMDL
MODEL 9
REMARK VINA RESULT:      -7.7      2.043      2.681
REMARK  8 active torsions:
REMARK  status: ('A' for Active; 'I' for Inactive)
REMARK    1  A    between atoms: C_7  and  C_8 
REMARK    2  A    between atoms: C_10  and  O_11 
REMARK    3  A    between atoms: C_13  and  O_14 
REMARK    4  A    between atoms: O_14  and  C_15 
REMARK    5  A    between atoms: C_15  and  C_16 
REMARK       I    between atoms: C_16  and  N_17 
REMARK    6  A    between atoms: C_21  and  C_22 
REMARK       I    between atoms: C_22  and  N_23 
REMARK    7  A    between atoms: N_23  and  C_24 
REMARK    8  A    between atoms: C_24  and  C_25 
ROOT
HETATM    1  C   UNL     1     -40.926  57.071 -50.761  1.00  0.00     0.069 C 
HETATM    2  C   UNL     1     -41.901  57.848 -51.598  1.00  0.00     0.024 C 
HETATM    3  N   UNL     1     -41.921  59.206 -51.365  1.00  0.00    -0.312 N 
HETATM    4  C   UNL     1     -42.852  60.074 -51.852  1.00  0.00     0.321 C 
HETATM    5  O   UNL     1     -42.835  61.266 -51.566  1.00  0.00    -0.247 OA
HETATM    6  N   UNL     1     -43.812  59.544 -52.648  1.00  0.00    -0.330 N 
HETATM    7  C   UNL     1     -43.767  58.208 -53.216  1.00  0.00     0.160 C 
HETATM    8  C   UNL     1     -42.772  57.343 -52.492  1.00  0.00     0.059 C 
HETATM    9  H   UNL     1     -41.272  59.619 -50.706  1.00  0.00     0.170 HD
HETATM   10  H   UNL     1     -44.476  60.208 -53.020  1.00  0.00     0.165 HD
ENDROOT
BRANCH   7  11
HETATM   11  C   UNL     1     -43.492  58.308 -54.711  1.00  0.00    -0.028 A 
HETATM   12  C   UNL     1     -42.517  59.188 -55.218  1.00  0.00     0.049 A 
HETATM   13  C   UNL     1     -42.284  59.322 -56.596  1.00  0.00     0.102 A 
HETATM   14  C   UNL     1     -43.020  58.525 -57.488  1.00  0.00     0.102 A 
HETATM   15  C   UNL     1     -43.990  57.646 -56.986  1.00  0.00     0.040 A 
HETATM   16  C   UNL     1     -44.224  57.533 -55.615  1.00  0.00     0.012 A 
BRANCH  13  17
HETATM   17  O   UNL     1     -41.362  60.195 -57.107  1.00  0.00    -0.353 OA
HETATM   18  C   UNL     1     -41.826  61.465 -57.552  1.00  0.00     0.210 C 
ENDBRANCH  13  17
BRANCH  14  19
HETATM   19  O   UNL     1     -42.956  58.504 -58.858  1.00  0.00    -0.339 OA
BRANCH  19  20
HETATM   20  C   UNL     1     -42.648  57.270 -59.501  1.00  0.00     0.278 C 
BRANCH  20  21
HETATM   21  C   UNL     1     -43.836  56.814 -60.347  1.00  0.00     0.239 C 
HETATM   22  N   UNL     1     -44.716  57.794 -60.711  1.00  0.00    -0.368 N 
HETATM   23  H   UNL     1     -44.679  58.695 -60.250  1.00  0.00     0.159 HD
HETATM   24  H   UNL     1     -45.548  57.524 -61.216  1.00  0.00     0.159 HD
HETATM   25  O   UNL     1     -43.985  55.659 -60.735  1.00  0.00    -0.271 OA
ENDBRANCH  20  21
ENDBRANCH  19  20
ENDBRANCH  14  19
ENDBRANCH   7  11
BRANCH   8  26
HETATM   26  C   UNL     1     -42.903  55.891 -52.773  1.00  0.00     0.252 C 
HETATM   27  N   UNL     1     -42.034  55.401 -53.714  1.00  0.00    -0.353 N 
HETATM   28  H   UNL     1     -41.525  56.048 -54.302  1.00  0.00     0.163 HD
HETATM   29  O   UNL     1     -43.777  55.227 -52.229  1.00  0.00    -0.268 OA
BRANCH  27  30
HETATM   30  C   UNL     1     -42.112  54.018 -54.132  1.00  0.00     0.161 C 
BRANCH  30  31
HETATM   31  C   UNL     1     -41.122  53.113 -53.439  1.00  0.00    -0.041 A 
HETATM   32  C   UNL     1     -40.431  52.092 -54.109  1.00  0.00     0.009 A 
HETATM   33  C   UNL     1     -39.481  51.313 -53.443  1.00  0.00     0.001 A 
HETATM   34  C   UNL     1     -39.190  51.561 -52.104  1.00  0.00     0.000 A 
HETATM   35  C   UNL     1     -39.849  52.585 -51.429  1.00  0.00     0.001 A 
HETATM   36  C   UNL     1     -40.805  53.357 -52.093  1.00  0.00     0.009 A 
ENDBRANCH  30  31
ENDBRANCH  27  30
ENDBRANCH   8  26
TORSDOF 8
ENDMDL
MODEL 10
REMARK VINA RESULT:      -7.7      2.326      3.036
REMARK  8 active torsions:
REMARK  status: ('A' for Active; 'I' for Inactive)
REMARK    1  A    between atoms: C_7  and  C_8 
REMARK    2  A    between atoms: C_10  and  O_11 
REMARK    3  A    between atoms: C_13  and  O_14 
REMARK    4  A    between atoms: O_14  and  C_15 
REMARK    5  A    between atoms: C_15  and  C_16 
REMARK       I    between atoms: C_16  and  N_17 
REMARK    6  A    between atoms: C_21  and  C_22 
REMARK       I    between atoms: C_22  and  N_23 
REMARK    7  A    between atoms: N_23  and  C_24 
REMARK    8  A    between atoms: C_24  and  C_25 
ROOT
HETATM    1  C   UNL     1     -41.002  57.420 -50.815  1.00  0.00     0.069 C 
HETATM    2  C   UNL     1     -42.349  57.395 -51.477  1.00  0.00     0.024 C 
HETATM    3  N   UNL     1     -43.371  57.962 -50.747  1.00  0.00    -0.312 N 
HETATM    4  C   UNL     1     -44.697  57.875 -51.051  1.00  0.00     0.321 C 
HETATM    5  O   UNL     1     -45.558  58.367 -50.330  1.00  0.00    -0.247 OA
HETATM    6  N   UNL     1     -45.014  57.194 -52.179  1.00  0.00    -0.330 N 
HETATM    7  C   UNL     1     -44.057  56.792 -53.195  1.00  0.00     0.160 C 
HETATM    8  C   UNL     1     -42.651  56.833 -52.664  1.00  0.00     0.059 C 
HETATM    9  H   UNL     1     -43.178  58.401 -49.855  1.00  0.00     0.170 HD
HETATM   10  H   UNL     1     -45.999  57.164 -52.400  1.00  0.00     0.165 HD
ENDROOT
BRANCH   7  11
HETATM   11  C   UNL     1     -44.251  57.655 -54.435  1.00  0.00    -0.028 A 
HETATM   12  C   UNL     1     -44.132  57.112 -55.729  1.00  0.00     0.049 A 
HETATM   13  C   UNL     1     -44.264  57.906 -56.880  1.00  0.00     0.102 A 
HETATM   14  C   UNL     1     -44.564  59.270 -56.732  1.00  0.00     0.102 A 
HETATM   15  C   UNL     1     -44.686  59.811 -55.445  1.00  0.00     0.040 A 
HETATM   16  C   UNL     1     -44.536  59.017 -54.307  1.00  0.00     0.012 A 
BRANCH  13  17
HETATM   17  O   UNL     1     -44.120  57.401 -58.144  1.00  0.00    -0.353 OA
HETATM   18  C   UNL     1     -42.806  57.067 -58.579  1.00  0.00     0.210 C 
ENDBRANCH  13  17
BRANCH  14  19
HETATM   19  O   UNL     1     -44.726  60.215 -57.713  1.00  0.00    -0.339 OA
BRANCH  19  20
HETATM   20  C   UNL     1     -46.002  60.832 -57.852  1.00  0.00     0.278 C 
BRANCH  20  21
HETATM   21  C   UNL     1     -46.999  59.838 -58.448  1.00  0.00     0.239 C 
HETATM   22  N   UNL     1     -47.967  59.387 -57.596  1.00  0.00    -0.368 N 
HETATM   23  H   UNL     1     -47.867  59.541 -56.599  1.00  0.00     0.159 HD
HETATM   24  H   UNL     1     -48.606  58.681 -57.930  1.00  0.00     0.159 HD
HETATM   25  O   UNL     1     -46.987  59.492 -59.625  1.00  0.00    -0.271 OA
ENDBRANCH  20  21
ENDBRANCH  19  20
ENDBRANCH  14  19
ENDBRANCH   7  11
BRANCH   8  26
HETATM   26  C   UNL     1     -41.655  56.123 -53.506  1.00  0.00     0.252 C 
HETATM   27  N   UNL     1     -41.920  54.796 -53.723  1.00  0.00    -0.353 N 
HETATM   28  H   UNL     1     -42.616  54.331 -53.156  1.00  0.00     0.163 HD
HETATM   29  O   UNL     1     -40.651  56.701 -53.905  1.00  0.00    -0.268 OA
BRANCH  27  30
HETATM   30  C   UNL     1     -40.987  53.975 -54.464  1.00  0.00     0.161 C 
BRANCH  30  31
HETATM   31  C   UNL     1     -40.513  52.756 -53.710  1.00  0.00    -0.041 A 
HETATM   32  C   UNL     1     -40.236  51.534 -54.344  1.00  0.00     0.009 A 
HETATM   33  C   UNL     1     -39.745  50.446 -53.617  1.00  0.00     0.001 A 
HETATM   34  C   UNL     1     -39.499  50.572 -52.253  1.00  0.00     0.000 A 
HETATM   35  C   UNL     1     -39.745  51.783 -51.612  1.00  0.00     0.001 A 
HETATM   36  C   UNL     1     -40.246  52.868 -52.336  1.00  0.00     0.009 A 
ENDBRANCH  30  31
ENDBRANCH  27  30
ENDBRANCH   8  26
TORSDOF 8
ENDMDL
