MODEL 1
REMARK VINA RESULT:      -8.6      0.000      0.000
REMARK  8 active torsions:
REMARK  status: ('A' for Active; 'I' for Inactive)
REMARK    1  A    between atoms: C_4  and  S_5 
REMARK    2  A    between atoms: S_5  and  C_6 
REMARK    3  A    between atoms: C_6  and  C_7 
REMARK       I    between atoms: C_7  and  N_8 
REMARK    4  A    between atoms: N_8  and  C_9 
REMARK    5  A    between atoms: C_10  and  O_11 
REMARK    6  A    between atoms: C_22  and  C_23 
REMARK    7  A    between atoms: C_29  and  C_30 
REMARK       I    between atoms: C_30  and  N_31 
REMARK    8  A    between atoms: N_31  and  C_32 
ROOT
HETATM    1  C   UNL     1     -43.027  55.298 -56.595  1.00  0.00     0.069 C 
HETATM    2  C   UNL     1     -43.181  56.526 -55.727  1.00  0.00     0.019 A 
HETATM    3  N   UNL     1     -43.487  57.693 -56.406  1.00  0.00    -0.353 N 
HETATM    4  C   UNL     1     -43.761  58.915 -55.822  1.00  0.00     0.088 A 
HETATM    5  C   UNL     1     -43.689  59.036 -54.475  1.00  0.00     0.069 A 
HETATM    6  C   UNL     1     -44.050  60.239 -53.791  1.00  0.00     0.099 C 
HETATM    7  N   UNL     1     -44.355  61.184 -53.190  1.00  0.00    -0.192 NA
HETATM    8  C   UNL     1     -43.295  57.837 -53.603  1.00  0.00     0.106 A 
HETATM    9  C   UNL     1     -43.070  56.535 -54.376  1.00  0.00     0.046 A 
HETATM   10  H   UNL     1     -43.854  57.587 -57.354  1.00  0.00     0.166 HD
ENDROOT
BRANCH   4  11
HETATM   11  S   UNL     1     -44.274  60.273 -56.812  1.00  0.00    -0.102 SA
BRANCH  11  12
HETATM   12  C   UNL     1     -45.858  59.661 -57.469  1.00  0.00     0.184 C 
BRANCH  12  13
HETATM   13  C   UNL     1     -46.013  59.952 -58.955  1.00  0.00     0.231 C 
HETATM   14  N   UNL     1     -45.128  59.454 -59.864  1.00  0.00    -0.324 N 
HETATM   15  H   UNL     1     -45.097  60.002 -60.721  1.00  0.00     0.169 HD
HETATM   16  O   UNL     1     -46.871  60.734 -59.380  1.00  0.00    -0.272 OA
BRANCH  14  17
HETATM   17  C   UNL     1     -44.286  58.328 -59.878  1.00  0.00     0.070 A 
HETATM   18  C   UNL     1     -42.903  58.570 -60.046  1.00  0.00     0.095 A 
HETATM   19  C   UNL     1     -42.010  57.498 -60.120  1.00  0.00     0.041 A 
HETATM   20  C   UNL     1     -42.488  56.188 -60.048  1.00  0.00     0.026 A 
HETATM   21  C   UNL     1     -43.854  55.953 -59.921  1.00  0.00     0.036 A 
HETATM   22 CL   UNL     1     -44.438  54.335 -59.885  1.00  0.00    -0.084 Cl
HETATM   23  C   UNL     1     -44.757  57.014 -59.847  1.00  0.00     0.056 A 
BRANCH  18  24
HETATM   24  O   UNL     1     -42.544  59.896 -60.125  1.00  0.00    -0.354 OA
HETATM   25  C   UNL     1     -41.899  60.327 -61.318  1.00  0.00     0.210 C 
ENDBRANCH  18  24
ENDBRANCH  14  17
ENDBRANCH  12  13
ENDBRANCH  11  12
ENDBRANCH   4  11
BRANCH   8  26
HETATM   26  C   UNL     1     -42.122  58.188 -52.686  1.00  0.00    -0.044 A 
HETATM   27  C   UNL     1     -40.893  58.584 -53.244  1.00  0.00     0.008 A 
HETATM   28  C   UNL     1     -39.803  58.884 -52.426  1.00  0.00     0.001 A 
HETATM   29  C   UNL     1     -39.925  58.791 -51.042  1.00  0.00     0.000 A 
HETATM   30  C   UNL     1     -41.133  58.391 -50.475  1.00  0.00     0.001 A 
HETATM   31  C   UNL     1     -42.225  58.087 -51.291  1.00  0.00     0.008 A 
ENDBRANCH   8  26
BRANCH   9  32
HETATM   32  C   UNL     1     -42.694  55.274 -53.640  1.00  0.00     0.255 C 
HETATM   33  N   UNL     1     -41.382  54.877 -53.795  1.00  0.00    -0.323 N 
HETATM   34  H   UNL     1     -40.806  55.364 -54.463  1.00  0.00     0.169 HD
HETATM   35  O   UNL     1     -43.540  54.671 -52.986  1.00  0.00    -0.268 OA
BRANCH  33  36
HETATM   36  C   UNL     1     -40.729  53.803 -53.148  1.00  0.00     0.035 A 
HETATM   37  C   UNL     1     -40.437  53.771 -51.783  1.00  0.00     0.029 A 
HETATM   38  C   UNL     1     -39.754  52.684 -51.228  1.00  0.00     0.002 A 
HETATM   39  C   UNL     1     -39.363  51.615 -52.032  1.00  0.00     0.000 A 
HETATM   40  C   UNL     1     -39.651  51.635 -53.393  1.00  0.00     0.002 A 
HETATM   41  C   UNL     1     -40.326  52.725 -53.948  1.00  0.00     0.029 A 
ENDBRANCH  33  36
ENDBRANCH   9  32
TORSDOF 8
ENDMDL
MODEL 2
REMARK VINA RESULT:      -8.3      1.398      1.826
REMARK  8 active torsions:
REMARK  status: ('A' for Active; 'I' for Inactive)
REMARK    1  A    between atoms: C_4  and  S_5 
REMARK    2  A    between atoms: S_5  and  C_6 
REMARK    3  A    between atoms: C_6  and  C_7 
REMARK       I    between atoms: C_7  and  N_8 
REMARK    4  A    between atoms: N_8  and  C_9 
REMARK    5  A    between atoms: C_10  and  O_11 
REMARK    6  A    between atoms: C_22  and  C_23 
REMARK    7  A    between atoms: C_29  and  C_30 
REMARK       I    between atoms: C_30  and  N_31 
REMARK    8  A    between atoms: N_31  and  C_32 
ROOT
HETATM    1  C   UNL     1     -42.462  55.207 -57.149  1.00  0.00     0.069 C 
HETATM    2  C   UNL     1     -42.887  56.039 -55.961  1.00  0.00     0.019 A 
HETATM    3  N   UNL     1     -43.865  56.983 -56.221  1.00  0.00    -0.353 N 
HETATM    4  C   UNL     1     -44.472  57.793 -55.280  1.00  0.00     0.088 A 
HETATM    5  C   UNL     1     -44.070  57.723 -53.988  1.00  0.00     0.069 A 
HETATM    6  C   UNL     1     -44.711  58.458 -52.943  1.00  0.00     0.099 C 
HETATM    7  N   UNL     1     -45.215  59.014 -52.057  1.00  0.00    -0.192 NA
HETATM    8  C   UNL     1     -42.946  56.766 -53.571  1.00  0.00     0.106 A 
HETATM    9  C   UNL     1     -42.401  55.893 -54.704  1.00  0.00     0.046 A 
HETATM   10  H   UNL     1     -44.407  56.854 -57.078  1.00  0.00     0.166 HD
ENDROOT
BRANCH   4  11
HETATM   11  S   UNL     1     -45.802  58.843 -55.743  1.00  0.00    -0.102 SA
BRANCH  11  12
HETATM   12  C   UNL     1     -44.914  60.219 -56.539  1.00  0.00     0.184 C 
BRANCH  12  13
HETATM   13  C   UNL     1     -45.533  60.603 -57.876  1.00  0.00     0.231 C 
HETATM   14  N   UNL     1     -44.977  60.193 -59.050  1.00  0.00    -0.324 N 
HETATM   15  H   UNL     1     -45.223  60.797 -59.831  1.00  0.00     0.169 HD
HETATM   16  O   UNL     1     -46.488  61.385 -57.951  1.00  0.00    -0.272 OA
BRANCH  14  17
HETATM   17  C   UNL     1     -44.174  59.096 -59.410  1.00  0.00     0.070 A 
HETATM   18  C   UNL     1     -42.786  59.337 -59.532  1.00  0.00     0.095 A 
HETATM   19  C   UNL     1     -41.932  58.308 -59.935  1.00  0.00     0.041 A 
HETATM   20  C   UNL     1     -42.452  57.048 -60.235  1.00  0.00     0.026 A 
HETATM   21  C   UNL     1     -43.824  56.825 -60.151  1.00  0.00     0.036 A 
HETATM   22 CL   UNL     1     -44.462  55.284 -60.572  1.00  0.00    -0.084 Cl
HETATM   23  C   UNL     1     -44.689  57.844 -59.750  1.00  0.00     0.056 A 
BRANCH  18  24
HETATM   24  O   UNL     1     -42.383  60.618 -59.232  1.00  0.00    -0.354 OA
HETATM   25  C   UNL     1     -41.469  60.778 -58.153  1.00  0.00     0.210 C 
ENDBRANCH  18  24
ENDBRANCH  14  17
ENDBRANCH  12  13
ENDBRANCH  11  12
ENDBRANCH   4  11
BRANCH   8  26
HETATM   26  C   UNL     1     -41.841  57.513 -52.819  1.00  0.00    -0.044 A 
HETATM   27  C   UNL     1     -41.711  57.349 -51.428  1.00  0.00     0.008 A 
HETATM   28  C   UNL     1     -40.726  58.041 -50.720  1.00  0.00     0.001 A 
HETATM   29  C   UNL     1     -39.864  58.904 -51.390  1.00  0.00     0.000 A 
HETATM   30  C   UNL     1     -39.988  59.083 -52.765  1.00  0.00     0.001 A 
HETATM   31  C   UNL     1     -40.973  58.396 -53.477  1.00  0.00     0.008 A 
ENDBRANCH   8  26
BRANCH   9  32
HETATM   32  C   UNL     1     -41.303  54.895 -54.429  1.00  0.00     0.255 C 
HETATM   33  N   UNL     1     -41.707  53.749 -53.775  1.00  0.00    -0.323 N 
HETATM   34  H   UNL     1     -42.649  53.700 -53.424  1.00  0.00     0.169 HD
HETATM   35  O   UNL     1     -40.149  55.148 -54.761  1.00  0.00    -0.268 OA
BRANCH  33  36
HETATM   36  C   UNL     1     -40.923  52.609 -53.481  1.00  0.00     0.035 A 
HETATM   37  C   UNL     1     -40.747  51.534 -54.354  1.00  0.00     0.029 A 
HETATM   38  C   UNL     1     -39.984  50.426 -53.970  1.00  0.00     0.002 A 
HETATM   39  C   UNL     1     -39.386  50.387 -52.712  1.00  0.00     0.000 A 
HETATM   40  C   UNL     1     -39.553  51.454 -51.835  1.00  0.00     0.002 A 
HETATM   41  C   UNL     1     -40.322  52.557 -52.216  1.00  0.00     0.029 A 
ENDBRANCH  33  36
ENDBRANCH   9  32
TORSDOF 8
ENDMDL
MODEL 3
REMARK VINA RESULT:      -8.3      0.978      1.928
REMARK  8 active torsions:
REMARK  status: ('A' for Active; 'I' for Inactive)
REMARK    1  A    between atoms: C_4  and  S_5 
REMARK    2  A    between atoms: S_5  and  C_6 
REMARK    3  A    between atoms: C_6  and  C_7 
REMARK       I    between atoms: C_7  and  N_8 
REMARK    4  A    between atoms: N_8  and  C_9 
REMARK    5  A    between atoms: C_10  and  O_11 
REMARK    6  A    between atoms: C_22  and  C_23 
REMARK    7  A    between atoms: C_29  and  C_30 
REMARK       I    between atoms: C_30  and  N_31 
REMARK    8  A    between atoms: N_31  and  C_32 
ROOT
HETATM    1  C   UNL     1     -42.864  55.031 -56.740  1.00  0.00     0.069 C 
HETATM    2  C   UNL     1     -43.078  56.279 -55.915  1.00  0.00     0.019 A 
HETATM    3  N   UNL     1     -43.344  57.427 -56.641  1.00  0.00    -0.353 N 
HETATM    4  C   UNL     1     -43.660  58.662 -56.107  1.00  0.00     0.088 A 
HETATM    5  C   UNL     1     -43.675  58.817 -54.762  1.00  0.00     0.069 A 
HETATM    6  C   UNL     1     -44.083  60.034 -54.132  1.00  0.00     0.099 C 
HETATM    7  N   UNL     1     -44.430  60.992 -53.576  1.00  0.00    -0.192 NA
HETATM    8  C   UNL     1     -43.333  57.642 -53.836  1.00  0.00     0.106 A 
HETATM    9  C   UNL     1     -43.054  56.323 -54.560  1.00  0.00     0.046 A 
HETATM   10  H   UNL     1     -43.651  57.295 -57.607  1.00  0.00     0.166 HD
ENDROOT
BRANCH   4  11
HETATM   11  S   UNL     1     -44.114  59.992 -57.161  1.00  0.00    -0.102 SA
BRANCH  11  12
HETATM   12  C   UNL     1     -42.828  59.888 -58.445  1.00  0.00     0.184 C 
BRANCH  12  13
HETATM   13  C   UNL     1     -43.326  60.379 -59.797  1.00  0.00     0.231 C 
HETATM   14  N   UNL     1     -43.984  59.543 -60.649  1.00  0.00    -0.324 N 
HETATM   15  H   UNL     1     -43.922  59.844 -61.619  1.00  0.00     0.169 HD
HETATM   16  O   UNL     1     -43.060  61.511 -60.218  1.00  0.00    -0.272 OA
BRANCH  14  17
HETATM   17  C   UNL     1     -44.756  58.382 -60.462  1.00  0.00     0.070 A 
HETATM   18  C   UNL     1     -46.150  58.563 -60.316  1.00  0.00     0.095 A 
HETATM   19  C   UNL     1     -46.975  57.461 -60.077  1.00  0.00     0.041 A 
HETATM   20  C   UNL     1     -46.419  56.186 -59.963  1.00  0.00     0.026 A 
HETATM   21  C   UNL     1     -45.041  56.017 -60.069  1.00  0.00     0.036 A 
HETATM   22 CL   UNL     1     -44.359  54.449 -59.875  1.00  0.00    -0.084 Cl
HETATM   23  C   UNL     1     -44.205  57.109 -60.307  1.00  0.00     0.056 A 
BRANCH  18  24
HETATM   24  O   UNL     1     -46.590  59.861 -60.426  1.00  0.00    -0.354 OA
HETATM   25  C   UNL     1     -47.298  60.407 -59.319  1.00  0.00     0.210 C 
ENDBRANCH  18  24
ENDBRANCH  14  17
ENDBRANCH  12  13
ENDBRANCH  11  12
ENDBRANCH   4  11
BRANCH   8  26
HETATM   26  C   UNL     1     -42.222  58.023 -52.855  1.00  0.00    -0.044 A 
HETATM   27  C   UNL     1     -40.976  58.456 -53.345  1.00  0.00     0.008 A 
HETATM   28  C   UNL     1     -39.942  58.783 -52.467  1.00  0.00     0.001 A 
HETATM   29  C   UNL     1     -40.136  58.680 -51.093  1.00  0.00     0.000 A 
HETATM   30  C   UNL     1     -41.361  58.244 -50.593  1.00  0.00     0.001 A 
HETATM   31  C   UNL     1     -42.397  57.912 -51.468  1.00  0.00     0.008 A 
ENDBRANCH   8  26
BRANCH   9  32
HETATM   32  C   UNL     1     -42.720  55.082 -53.770  1.00  0.00     0.255 C 
HETATM   33  N   UNL     1     -41.393  54.706 -53.806  1.00  0.00    -0.323 N 
HETATM   34  H   UNL     1     -40.771  55.191 -54.432  1.00  0.00     0.169 HD
HETATM   35  O   UNL     1     -43.609  54.476 -53.178  1.00  0.00    -0.268 OA
BRANCH  33  36
HETATM   36  C   UNL     1     -40.780  53.656 -53.084  1.00  0.00     0.035 A 
HETATM   37  C   UNL     1     -40.557  53.678 -51.707  1.00  0.00     0.029 A 
HETATM   38  C   UNL     1     -39.910  52.611 -51.075  1.00  0.00     0.002 A 
HETATM   39  C   UNL     1     -39.484  51.510 -51.815  1.00  0.00     0.000 A 
HETATM   40  C   UNL     1     -39.704  51.477 -53.189  1.00  0.00     0.002 A 
HETATM   41  C   UNL     1     -40.344  52.546 -53.820  1.00  0.00     0.029 A 
ENDBRANCH  33  36
ENDBRANCH   9  32
TORSDOF 8
ENDMDL
MODEL 4
REMARK VINA RESULT:      -8.1      2.237      3.177
REMARK  8 active torsions:
REMARK  status: ('A' for Active; 'I' for Inactive)
REMARK    1  A    between atoms: C_4  and  S_5 
REMARK    2  A    between atoms: S_5  and  C_6 
REMARK    3  A    between atoms: C_6  and  C_7 
REMARK       I    between atoms: C_7  and  N_8 
REMARK    4  A    between atoms: N_8  and  C_9 
REMARK    5  A    between atoms: C_10  and  O_11 
REMARK    6  A    between atoms: C_22  and  C_23 
REMARK    7  A    between atoms: C_29  and  C_30 
REMARK       I    between atoms: C_30  and  N_31 
REMARK    8  A    between atoms: N_31  and  C_32 
ROOT
HETATM    1  C   UNL     1     -42.870  55.491 -57.363  1.00  0.00     0.069 C 
HETATM    2  C   UNL     1     -43.307  56.419 -56.254  1.00  0.00     0.019 A 
HETATM    3  N   UNL     1     -43.729  57.672 -56.665  1.00  0.00    -0.353 N 
HETATM    4  C   UNL     1     -44.255  58.652 -55.845  1.00  0.00     0.088 A 
HETATM    5  C   UNL     1     -44.339  58.426 -54.512  1.00  0.00     0.069 A 
HETATM    6  C   UNL     1     -44.957  59.350 -53.613  1.00  0.00     0.099 C 
HETATM    7  N   UNL     1     -45.470  60.058 -52.848  1.00  0.00    -0.192 NA
HETATM    8  C   UNL     1     -43.845  57.104 -53.911  1.00  0.00     0.106 A 
HETATM    9  C   UNL     1     -43.335  56.090 -54.939  1.00  0.00     0.046 A 
HETATM   10  H   UNL     1     -43.978  57.768 -57.651  1.00  0.00     0.166 HD
ENDROOT
BRANCH   4  11
HETATM   11  S   UNL     1     -44.880  60.141 -56.537  1.00  0.00    -0.102 SA
BRANCH  11  12
HETATM   12  C   UNL     1     -43.411  61.214 -56.469  1.00  0.00     0.184 C 
BRANCH  12  13
HETATM   13  C   UNL     1     -42.117  60.423 -56.607  1.00  0.00     0.231 C 
HETATM   14  N   UNL     1     -41.662  60.030 -57.831  1.00  0.00    -0.324 N 
HETATM   15  H   UNL     1     -41.046  59.222 -57.777  1.00  0.00     0.169 HD
HETATM   16  O   UNL     1     -41.495  60.015 -55.620  1.00  0.00    -0.272 OA
BRANCH  14  17
HETATM   17  C   UNL     1     -41.834  60.530 -59.134  1.00  0.00     0.070 A 
HETATM   18  C   UNL     1     -42.655  59.774 -60.001  1.00  0.00     0.095 A 
HETATM   19  C   UNL     1     -42.833  60.182 -61.326  1.00  0.00     0.041 A 
HETATM   20  C   UNL     1     -42.182  61.324 -61.796  1.00  0.00     0.026 A 
HETATM   21  C   UNL     1     -41.343  62.044 -60.949  1.00  0.00     0.036 A 
HETATM   22 CL   UNL     1     -40.506  63.420 -61.553  1.00  0.00    -0.084 Cl
HETATM   23  C   UNL     1     -41.157  61.648 -59.624  1.00  0.00     0.056 A 
BRANCH  18  24
HETATM   24  O   UNL     1     -43.231  58.658 -59.441  1.00  0.00    -0.354 OA
HETATM   25  C   UNL     1     -43.787  57.695 -60.329  1.00  0.00     0.210 C 
ENDBRANCH  18  24
ENDBRANCH  14  17
ENDBRANCH  12  13
ENDBRANCH  11  12
ENDBRANCH   4  11
BRANCH   8  26
HETATM   26  C   UNL     1     -42.841  57.356 -52.783  1.00  0.00    -0.044 A 
HETATM   27  C   UNL     1     -41.711  58.158 -53.021  1.00  0.00     0.008 A 
HETATM   28  C   UNL     1     -40.771  58.378 -52.013  1.00  0.00     0.001 A 
HETATM   29  C   UNL     1     -40.946  57.801 -50.759  1.00  0.00     0.000 A 
HETATM   30  C   UNL     1     -42.056  56.996 -50.512  1.00  0.00     0.001 A 
HETATM   31  C   UNL     1     -42.997  56.770 -51.519  1.00  0.00     0.008 A 
ENDBRANCH   8  26
BRANCH   9  32
HETATM   32  C   UNL     1     -42.834  54.741 -54.486  1.00  0.00     0.255 C 
HETATM   33  N   UNL     1     -41.496  54.697 -54.152  1.00  0.00    -0.323 N 
HETATM   34  H   UNL     1     -40.925  55.506 -54.340  1.00  0.00     0.169 HD
HETATM   35  O   UNL     1     -43.599  53.782 -54.460  1.00  0.00    -0.268 OA
BRANCH  33  36
HETATM   36  C   UNL     1     -40.785  53.605 -53.604  1.00  0.00     0.035 A 
HETATM   37  C   UNL     1     -40.337  52.511 -54.345  1.00  0.00     0.029 A 
HETATM   38  C   UNL     1     -39.671  51.453 -53.717  1.00  0.00     0.002 A 
HETATM   39  C   UNL     1     -39.444  51.482 -52.343  1.00  0.00     0.000 A 
HETATM   40  C   UNL     1     -39.884  52.570 -51.595  1.00  0.00     0.002 A 
HETATM   41  C   UNL     1     -40.555  53.623 -52.221  1.00  0.00     0.029 A 
ENDBRANCH  33  36
ENDBRANCH   9  32
TORSDOF 8
ENDMDL
MODEL 5
REMARK VINA RESULT:      -8.1      1.754      2.372
REMARK  8 active torsions:
REMARK  status: ('A' for Active; 'I' for Inactive)
REMARK    1  A    between atoms: C_4  and  S_5 
REMARK    2  A    between atoms: S_5  and  C_6 
REMARK    3  A    between atoms: C_6  and  C_7 
REMARK       I    between atoms: C_7  and  N_8 
REMARK    4  A    between atoms: N_8  and  C_9 
REMARK    5  A    between atoms: C_10  and  O_11 
REMARK    6  A    between atoms: C_22  and  C_23 
REMARK    7  A    between atoms: C_29  and  C_30 
REMARK       I    between atoms: C_30  and  N_31 
REMARK    8  A    between atoms: N_31  and  C_32 
ROOT
HETATM    1  C   UNL     1     -42.583  55.335 -57.058  1.00  0.00     0.069 C 
HETATM    2  C   UNL     1     -42.973  56.159 -55.853  1.00  0.00     0.019 A 
HETATM    3  N   UNL     1     -43.949  57.114 -56.082  1.00  0.00    -0.353 N 
HETATM    4  C   UNL     1     -44.527  57.920 -55.119  1.00  0.00     0.088 A 
HETATM    5  C   UNL     1     -44.097  57.834 -53.838  1.00  0.00     0.069 A 
HETATM    6  C   UNL     1     -44.707  58.564 -52.772  1.00  0.00     0.099 C 
HETATM    7  N   UNL     1     -45.186  59.117 -51.870  1.00  0.00    -0.192 NA
HETATM    8  C   UNL     1     -42.972  56.864 -53.455  1.00  0.00     0.106 A 
HETATM    9  C   UNL     1     -42.460  55.996 -54.608  1.00  0.00     0.046 A 
HETATM   10  H   UNL     1     -44.511  56.998 -56.928  1.00  0.00     0.166 HD
ENDROOT
BRANCH   4  11
HETATM   11  S   UNL     1     -45.858  58.985 -55.542  1.00  0.00    -0.102 SA
BRANCH  11  12
HETATM   12  C   UNL     1     -45.281  59.670 -57.128  1.00  0.00     0.184 C 
BRANCH  12  13
HETATM   13  C   UNL     1     -46.366  59.636 -58.196  1.00  0.00     0.231 C 
HETATM   14  N   UNL     1     -46.144  59.041 -59.402  1.00  0.00    -0.324 N 
HETATM   15  H   UNL     1     -46.752  59.403 -60.134  1.00  0.00     0.169 HD
HETATM   16  O   UNL     1     -47.437  60.236 -58.055  1.00  0.00    -0.272 OA
BRANCH  14  17
HETATM   17  C   UNL     1     -45.284  58.015 -59.832  1.00  0.00     0.070 A 
HETATM   18  C   UNL     1     -45.890  56.796 -60.212  1.00  0.00     0.095 A 
HETATM   19  C   UNL     1     -45.097  55.714 -60.603  1.00  0.00     0.041 A 
HETATM   20  C   UNL     1     -43.706  55.832 -60.597  1.00  0.00     0.026 A 
HETATM   21  C   UNL     1     -43.112  57.022 -60.185  1.00  0.00     0.036 A 
HETATM   22 CL   UNL     1     -41.396  57.142 -60.133  1.00  0.00    -0.084 Cl
HETATM   23  C   UNL     1     -43.892  58.111 -59.792  1.00  0.00     0.056 A 
BRANCH  18  24
HETATM   24  O   UNL     1     -47.265  56.782 -60.162  1.00  0.00    -0.354 OA
HETATM   25  C   UNL     1     -47.962  56.669 -61.398  1.00  0.00     0.210 C 
ENDBRANCH  18  24
ENDBRANCH  14  17
ENDBRANCH  12  13
ENDBRANCH  11  12
ENDBRANCH   4  11
BRANCH   8  26
HETATM   26  C   UNL     1     -41.844  57.594 -52.722  1.00  0.00    -0.044 A 
HETATM   27  C   UNL     1     -41.705  57.442 -51.330  1.00  0.00     0.008 A 
HETATM   28  C   UNL     1     -40.699  58.120 -50.639  1.00  0.00     0.001 A 
HETATM   29  C   UNL     1     -39.823  58.956 -51.326  1.00  0.00     0.000 A 
HETATM   30  C   UNL     1     -39.955  59.123 -52.702  1.00  0.00     0.001 A 
HETATM   31  C   UNL     1     -40.962  58.450 -53.397  1.00  0.00     0.008 A 
ENDBRANCH   8  26
BRANCH   9  32
HETATM   32  C   UNL     1     -41.365  54.987 -54.367  1.00  0.00     0.255 C 
HETATM   33  N   UNL     1     -41.759  53.850 -53.692  1.00  0.00    -0.323 N 
HETATM   34  H   UNL     1     -42.688  53.816 -53.305  1.00  0.00     0.169 HD
HETATM   35  O   UNL     1     -40.222  55.223 -54.744  1.00  0.00    -0.268 OA
BRANCH  33  36
HETATM   36  C   UNL     1     -40.979  52.703 -53.419  1.00  0.00     0.035 A 
HETATM   37  C   UNL     1     -40.238  52.518 -52.251  1.00  0.00     0.029 A 
HETATM   38  C   UNL     1     -39.462  51.367 -52.076  1.00  0.00     0.002 A 
HETATM   39  C   UNL     1     -39.425  50.388 -53.067  1.00  0.00     0.000 A 
HETATM   40  C   UNL     1     -40.162  50.560 -54.235  1.00  0.00     0.002 A 
HETATM   41  C   UNL     1     -40.930  51.714 -54.412  1.00  0.00     0.029 A 
ENDBRANCH  33  36
ENDBRANCH   9  32
TORSDOF 8
ENDMDL
MODEL 6
REMARK VINA RESULT:      -8.0      2.157      2.856
REMARK  8 active torsions:
REMARK  status: ('A' for Active; 'I' for Inactive)
REMARK    1  A    between atoms: C_4  and  S_5 
REMARK    2  A    between atoms: S_5  and  C_6 
REMARK    3  A    between atoms: C_6  and  C_7 
REMARK       I    between atoms: C_7  and  N_8 
REMARK    4  A    between atoms: N_8  and  C_9 
REMARK    5  A    between atoms: C_10  and  O_11 
REMARK    6  A    between atoms: C_22  and  C_23 
REMARK    7  A    between atoms: C_29  and  C_30 
REMARK       I    between atoms: C_30  and  N_31 
REMARK    8  A    between atoms: N_31  and  C_32 
ROOT
HETATM    1  C   UNL     1     -42.248  55.830 -57.060  1.00  0.00     0.069 C 
HETATM    2  C   UNL     1     -42.691  56.566 -55.816  1.00  0.00     0.019 A 
HETATM    3  N   UNL     1     -43.614  57.576 -56.026  1.00  0.00    -0.353 N 
HETATM    4  C   UNL     1     -44.228  58.322 -55.038  1.00  0.00     0.088 A 
HETATM    5  C   UNL     1     -43.890  58.113 -53.743  1.00  0.00     0.069 A 
HETATM    6  C   UNL     1     -44.546  58.776 -52.660  1.00  0.00     0.099 C 
HETATM    7  N   UNL     1     -45.065  59.271 -51.747  1.00  0.00    -0.192 NA
HETATM    8  C   UNL     1     -42.829  57.069 -53.373  1.00  0.00     0.106 A 
HETATM    9  C   UNL     1     -42.270  56.280 -54.560  1.00  0.00     0.046 A 
HETATM   10  H   UNL     1     -44.120  57.554 -56.914  1.00  0.00     0.166 HD
ENDROOT
BRANCH   4  11
HETATM   11  S   UNL     1     -45.488  59.473 -55.454  1.00  0.00    -0.102 SA
BRANCH  11  12
HETATM   12  C   UNL     1     -45.994  58.874 -57.097  1.00  0.00     0.184 C 
BRANCH  12  13
HETATM   13  C   UNL     1     -45.077  59.384 -58.200  1.00  0.00     0.231 C 
HETATM   14  N   UNL     1     -45.127  58.853 -59.455  1.00  0.00    -0.324 N 
HETATM   15  H   UNL     1     -44.257  58.981 -59.968  1.00  0.00     0.169 HD
HETATM   16  O   UNL     1     -44.186  60.211 -57.977  1.00  0.00    -0.272 OA
BRANCH  14  17
HETATM   17  C   UNL     1     -46.133  58.206 -60.193  1.00  0.00     0.070 A 
HETATM   18  C   UNL     1     -46.035  56.800 -60.306  1.00  0.00     0.095 A 
HETATM   19  C   UNL     1     -46.971  56.093 -61.066  1.00  0.00     0.041 A 
HETATM   20  C   UNL     1     -47.990  56.779 -61.729  1.00  0.00     0.026 A 
HETATM   21  C   UNL     1     -48.061  58.168 -61.646  1.00  0.00     0.036 A 
HETATM   22 CL   UNL     1     -49.290  59.008 -62.508  1.00  0.00    -0.084 Cl
HETATM   23  C   UNL     1     -47.133  58.886 -60.891  1.00  0.00     0.056 A 
BRANCH  18  24
HETATM   24  O   UNL     1     -44.982  56.228 -59.630  1.00  0.00    -0.354 OA
HETATM   25  C   UNL     1     -44.727  54.848 -59.867  1.00  0.00     0.210 C 
ENDBRANCH  18  24
ENDBRANCH  14  17
ENDBRANCH  12  13
ENDBRANCH  11  12
ENDBRANCH   4  11
BRANCH   8  26
HETATM   26  C   UNL     1     -41.729  57.688 -52.507  1.00  0.00    -0.044 A 
HETATM   27  C   UNL     1     -41.637  57.346 -51.146  1.00  0.00     0.008 A 
HETATM   28  C   UNL     1     -40.657  57.919 -50.333  1.00  0.00     0.001 A 
HETATM   29  C   UNL     1     -39.761  58.840 -50.868  1.00  0.00     0.000 A 
HETATM   30  C   UNL     1     -39.846  59.195 -52.212  1.00  0.00     0.001 A 
HETATM   31  C   UNL     1     -40.827  58.627 -53.027  1.00  0.00     0.008 A 
ENDBRANCH   8  26
BRANCH   9  32
HETATM   32  C   UNL     1     -41.231  55.210 -54.335  1.00  0.00     0.255 C 
HETATM   33  N   UNL     1     -41.680  54.092 -53.662  1.00  0.00    -0.323 N 
HETATM   34  H   UNL     1     -42.606  54.107 -53.267  1.00  0.00     0.169 HD
HETATM   35  O   UNL     1     -40.080  55.385 -54.722  1.00  0.00    -0.268 OA
BRANCH  33  36
HETATM   36  C   UNL     1     -40.963  52.901 -53.405  1.00  0.00     0.035 A 
HETATM   37  C   UNL     1     -40.282  52.640 -52.215  1.00  0.00     0.029 A 
HETATM   38  C   UNL     1     -39.564  51.449 -52.055  1.00  0.00     0.002 A 
HETATM   39  C   UNL     1     -39.526  50.508 -53.081  1.00  0.00     0.000 A 
HETATM   40  C   UNL     1     -40.204  50.758 -54.270  1.00  0.00     0.002 A 
HETATM   41  C   UNL     1     -40.914  51.950 -54.433  1.00  0.00     0.029 A 
ENDBRANCH  33  36
ENDBRANCH   9  32
TORSDOF 8
ENDMDL
MODEL 7
REMARK VINA RESULT:      -7.9      2.421      2.871
REMARK  8 active torsions:
REMARK  status: ('A' for Active; 'I' for Inactive)
REMARK    1  A    between atoms: C_4  and  S_5 
REMARK    2  A    between atoms: S_5  and  C_6 
REMARK    3  A    between atoms: C_6  and  C_7 
REMARK       I    between atoms: C_7  and  N_8 
REMARK    4  A    between atoms: N_8  and  C_9 
REMARK    5  A    between atoms: C_10  and  O_11 
REMARK    6  A    between atoms: C_22  and  C_23 
REMARK    7  A    between atoms: C_29  and  C_30 
REMARK       I    between atoms: C_30  and  N_31 
REMARK    8  A    between atoms: N_31  and  C_32 
ROOT
HETATM    1  C   UNL     1     -44.851  56.073 -54.328  1.00  0.00     0.069 C 
HETATM    2  C   UNL     1     -44.441  57.289 -53.529  1.00  0.00     0.019 A 
HETATM    3  N   UNL     1     -44.994  58.485 -53.952  1.00  0.00    -0.353 N 
HETATM    4  C   UNL     1     -44.838  59.708 -53.327  1.00  0.00     0.088 A 
HETATM    5  C   UNL     1     -44.047  59.796 -52.232  1.00  0.00     0.069 A 
HETATM    6  C   UNL     1     -43.911  61.002 -51.476  1.00  0.00     0.099 C 
HETATM    7  N   UNL     1     -43.788  61.950 -50.817  1.00  0.00    -0.192 NA
HETATM    8  C   UNL     1     -43.318  58.558 -51.693  1.00  0.00     0.106 A 
HETATM    9  C   UNL     1     -43.622  57.262 -52.450  1.00  0.00     0.046 A 
HETATM   10  H   UNL     1     -45.819  58.420 -54.552  1.00  0.00     0.166 HD
ENDROOT
BRANCH   4  11
HETATM   11  S   UNL     1     -45.720  61.114 -53.903  1.00  0.00    -0.102 SA
BRANCH  11  12
HETATM   12  C   UNL     1     -44.780  61.539 -55.403  1.00  0.00     0.184 C 
BRANCH  12  13
HETATM   13  C   UNL     1     -43.325  61.862 -55.095  1.00  0.00     0.231 C 
HETATM   14  N   UNL     1     -42.323  61.019 -55.473  1.00  0.00    -0.324 N 
HETATM   15  H   UNL     1     -41.486  61.126 -54.905  1.00  0.00     0.169 HD
HETATM   16  O   UNL     1     -43.006  62.834 -54.401  1.00  0.00    -0.272 OA
BRANCH  14  17
HETATM   17  C   UNL     1     -42.195  60.068 -56.501  1.00  0.00     0.070 A 
HETATM   18  C   UNL     1     -41.847  60.557 -57.781  1.00  0.00     0.095 A 
HETATM   19  C   UNL     1     -41.750  59.678 -58.862  1.00  0.00     0.041 A 
HETATM   20  C   UNL     1     -42.019  58.320 -58.681  1.00  0.00     0.026 A 
HETATM   21  C   UNL     1     -42.399  57.848 -57.428  1.00  0.00     0.036 A 
HETATM   22 CL   UNL     1     -42.777  56.181 -57.227  1.00  0.00    -0.084 Cl
HETATM   23  C   UNL     1     -42.500  58.715 -56.339  1.00  0.00     0.056 A 
BRANCH  18  24
HETATM   24  O   UNL     1     -41.624  61.913 -57.851  1.00  0.00    -0.354 OA
HETATM   25  C   UNL     1     -40.466  62.348 -58.554  1.00  0.00     0.210 C 
ENDBRANCH  18  24
ENDBRANCH  14  17
ENDBRANCH  12  13
ENDBRANCH  11  12
ENDBRANCH   4  11
BRANCH   8  26
HETATM   26  C   UNL     1     -41.817  58.822 -51.555  1.00  0.00    -0.044 A 
HETATM   27  C   UNL     1     -40.996  58.798 -52.696  1.00  0.00     0.008 A 
HETATM   28  C   UNL     1     -39.621  59.011 -52.588  1.00  0.00     0.001 A 
HETATM   29  C   UNL     1     -39.050  59.248 -51.341  1.00  0.00     0.000 A 
HETATM   30  C   UNL     1     -39.849  59.266 -50.201  1.00  0.00     0.001 A 
HETATM   31  C   UNL     1     -41.224  59.049 -50.304  1.00  0.00     0.008 A 
ENDBRANCH   8  26
BRANCH   9  32
HETATM   32  C   UNL     1     -42.985  55.966 -52.015  1.00  0.00     0.255 C 
HETATM   33  N   UNL     1     -42.130  55.398 -52.938  1.00  0.00    -0.323 N 
HETATM   34  H   UNL     1     -42.079  55.800 -53.859  1.00  0.00     0.169 HD
HETATM   35  O   UNL     1     -43.262  55.485 -50.921  1.00  0.00    -0.268 OA
BRANCH  33  36
HETATM   36  C   UNL     1     -41.324  54.250 -52.765  1.00  0.00     0.035 A 
HETATM   37  C   UNL     1     -40.590  53.975 -51.609  1.00  0.00     0.029 A 
HETATM   38  C   UNL     1     -39.786  52.832 -51.534  1.00  0.00     0.002 A 
HETATM   39  C   UNL     1     -39.713  51.952 -52.611  1.00  0.00     0.000 A 
HETATM   40  C   UNL     1     -40.442  52.215 -53.767  1.00  0.00     0.002 A 
HETATM   41  C   UNL     1     -41.239  53.360 -53.844  1.00  0.00     0.029 A 
ENDBRANCH  33  36
ENDBRANCH   9  32
TORSDOF 8
ENDMDL
MODEL 8
REMARK VINA RESULT:      -7.9      1.873      2.269
REMARK  8 active torsions:
REMARK  status: ('A' for Active; 'I' for Inactive)
REMARK    1  A    between atoms: C_4  and  S_5 
REMARK    2  A    between atoms: S_5  and  C_6 
REMARK    3  A    between atoms: C_6  and  C_7 
REMARK       I    between atoms: C_7  and  N_8 
REMARK    4  A    between atoms: N_8  and  C_9 
REMARK    5  A    between atoms: C_10  and  O_11 
REMARK    6  A    between atoms: C_22  and  C_23 
REMARK    7  A    between atoms: C_29  and  C_30 
REMARK       I    between atoms: C_30  and  N_31 
REMARK    8  A    between atoms: N_31  and  C_32 
ROOT
HETATM    1  C   UNL     1     -42.373  56.097 -56.601  1.00  0.00     0.069 C 
HETATM    2  C   UNL     1     -42.956  56.488 -55.263  1.00  0.00     0.019 A 
HETATM    3  N   UNL     1     -43.407  57.794 -55.175  1.00  0.00    -0.353 N 
HETATM    4  C   UNL     1     -44.055  58.350 -54.088  1.00  0.00     0.088 A 
HETATM    5  C   UNL     1     -44.243  57.601 -52.976  1.00  0.00     0.069 A 
HETATM    6  C   UNL     1     -44.986  58.071 -51.848  1.00  0.00     0.099 C 
HETATM    7  N   UNL     1     -45.602  58.400 -50.921  1.00  0.00    -0.192 NA
HETATM    8  C   UNL     1     -43.733  56.156 -52.911  1.00  0.00     0.106 A 
HETATM    9  C   UNL     1     -43.081  55.653 -54.202  1.00  0.00     0.046 A 
HETATM   10  H   UNL     1     -43.573  58.280 -56.059  1.00  0.00     0.166 HD
ENDROOT
BRANCH   4  11
HETATM   11  S   UNL     1     -44.697  59.982 -54.181  1.00  0.00    -0.102 SA
BRANCH  11  12
HETATM   12  C   UNL     1     -43.870  60.608 -55.678  1.00  0.00     0.184 C 
BRANCH  12  13
HETATM   13  C   UNL     1     -44.866  61.068 -56.734  1.00  0.00     0.231 C 
HETATM   14  N   UNL     1     -44.701  60.735 -58.045  1.00  0.00    -0.324 N 
HETATM   15  H   UNL     1     -45.169  61.384 -58.675  1.00  0.00     0.169 HD
HETATM   16  O   UNL     1     -45.790  61.843 -56.464  1.00  0.00    -0.272 OA
BRANCH  14  17
HETATM   17  C   UNL     1     -44.058  59.670 -58.700  1.00  0.00     0.070 A 
HETATM   18  C   UNL     1     -42.808  59.954 -59.298  1.00  0.00     0.095 A 
HETATM   19  C   UNL     1     -42.133  58.959 -60.009  1.00  0.00     0.041 A 
HETATM   20  C   UNL     1     -42.703  57.692 -60.146  1.00  0.00     0.026 A 
HETATM   21  C   UNL     1     -43.951  57.428 -59.589  1.00  0.00     0.036 A 
HETATM   22 CL   UNL     1     -44.669  55.880 -59.807  1.00  0.00    -0.084 Cl
HETATM   23  C   UNL     1     -44.637  58.413 -58.876  1.00  0.00     0.056 A 
BRANCH  18  24
HETATM   24  O   UNL     1     -42.348  61.238 -59.118  1.00  0.00    -0.354 OA
HETATM   25  C   UNL     1     -41.200  61.411 -58.295  1.00  0.00     0.210 C 
ENDBRANCH  18  24
ENDBRANCH  14  17
ENDBRANCH  12  13
ENDBRANCH  11  12
ENDBRANCH   4  11
BRANCH   8  26
HETATM   26  C   UNL     1     -42.847  55.941 -51.681  1.00  0.00    -0.044 A 
HETATM   27  C   UNL     1     -41.753  56.795 -51.452  1.00  0.00     0.008 A 
HETATM   28  C   UNL     1     -40.919  56.600 -50.350  1.00  0.00     0.001 A 
HETATM   29  C   UNL     1     -41.164  55.552 -49.467  1.00  0.00     0.000 A 
HETATM   30  C   UNL     1     -42.238  54.693 -49.687  1.00  0.00     0.001 A 
HETATM   31  C   UNL     1     -43.073  54.882 -50.790  1.00  0.00     0.008 A 
ENDBRANCH   8  26
BRANCH   9  32
HETATM   32  C   UNL     1     -42.549  54.244 -54.282  1.00  0.00     0.255 C 
HETATM   33  N   UNL     1     -41.388  54.017 -53.573  1.00  0.00    -0.323 N 
HETATM   34  H   UNL     1     -40.913  54.803 -53.160  1.00  0.00     0.169 HD
HETATM   35  O   UNL     1     -43.134  53.408 -54.964  1.00  0.00    -0.268 OA
BRANCH  33  36
HETATM   36  C   UNL     1     -40.726  52.782 -53.385  1.00  0.00     0.035 A 
HETATM   37  C   UNL     1     -40.089  52.406 -52.201  1.00  0.00     0.029 A 
HETATM   38  C   UNL     1     -39.425  51.178 -52.111  1.00  0.00     0.002 A 
HETATM   39  C   UNL     1     -39.397  50.313 -53.202  1.00  0.00     0.000 A 
HETATM   40  C   UNL     1     -40.031  50.675 -54.386  1.00  0.00     0.002 A 
HETATM   41  C   UNL     1     -40.688  51.905 -54.478  1.00  0.00     0.029 A 
ENDBRANCH  33  36
ENDBRANCH   9  32
TORSDOF 8
ENDMDL
MODEL 9
REMARK VINA RESULT:      -7.8      2.804      8.554
REMARK  8 active torsions:
REMARK  status: ('A' for Active; 'I' for Inactive)
REMARK    1  A    between atoms: C_4  and  S_5 
REMARK    2  A    between atoms: S_5  and  C_6 
REMARK    3  A    between atoms: C_6  and  C_7 
REMARK       I    between atoms: C_7  and  N_8 
REMARK    4  A    between atoms: N_8  and  C_9 
REMARK    5  A    between atoms: C_10  and  O_11 
REMARK    6  A    between atoms: C_22  and  C_23 
REMARK    7  A    between atoms: C_29  and  C_30 
REMARK       I    between atoms: C_30  and  N_31 
REMARK    8  A    between atoms: N_31  and  C_32 
ROOT
HETATM    1  C   UNL     1     -45.156  60.476 -54.668  1.00  0.00     0.069 C 
HETATM    2  C   UNL     1     -44.225  59.320 -54.951  1.00  0.00     0.019 A 
HETATM    3  N   UNL     1     -43.075  59.287 -54.181  1.00  0.00    -0.353 N 
HETATM    4  C   UNL     1     -42.125  58.283 -54.197  1.00  0.00     0.088 A 
HETATM    5  C   UNL     1     -42.269  57.249 -55.060  1.00  0.00     0.069 A 
HETATM    6  C   UNL     1     -41.382  56.128 -55.072  1.00  0.00     0.099 C 
HETATM    7  N   UNL     1     -40.704  55.186 -55.102  1.00  0.00    -0.192 NA
HETATM    8  C   UNL     1     -43.465  57.193 -56.020  1.00  0.00     0.106 A 
HETATM    9  C   UNL     1     -44.464  58.341 -55.858  1.00  0.00     0.046 A 
HETATM   10  H   UNL     1     -43.082  59.847 -53.326  1.00  0.00     0.166 HD
ENDROOT
BRANCH   4  11
HETATM   11  S   UNL     1     -40.790  58.311 -53.057  1.00  0.00    -0.102 SA
BRANCH  11  12
HETATM   12  C   UNL     1     -41.536  59.198 -51.652  1.00  0.00     0.184 C 
BRANCH  12  13
HETATM   13  C   UNL     1     -41.164  58.571 -50.316  1.00  0.00     0.231 C 
HETATM   14  N   UNL     1     -41.546  57.299 -50.008  1.00  0.00    -0.324 N 
HETATM   15  H   UNL     1     -41.587  57.136 -49.004  1.00  0.00     0.169 HD
HETATM   16  O   UNL     1     -40.606  59.220 -49.424  1.00  0.00    -0.272 OA
BRANCH  14  17
HETATM   17  C   UNL     1     -41.852  56.166 -50.782  1.00  0.00     0.070 A 
HETATM   18  C   UNL     1     -43.214  55.969 -51.109  1.00  0.00     0.095 A 
HETATM   19  C   UNL     1     -43.601  54.839 -51.833  1.00  0.00     0.041 A 
HETATM   20  C   UNL     1     -42.646  53.896 -52.215  1.00  0.00     0.026 A 
HETATM   21  C   UNL     1     -41.312  54.074 -51.858  1.00  0.00     0.036 A 
HETATM   22 CL   UNL     1     -40.150  52.880 -52.289  1.00  0.00    -0.084 Cl
HETATM   23  C   UNL     1     -40.911  55.198 -51.134  1.00  0.00     0.056 A 
BRANCH  18  24
HETATM   24  O   UNL     1     -44.072  56.949 -50.666  1.00  0.00    -0.354 OA
HETATM   25  C   UNL     1     -44.848  57.628 -51.647  1.00  0.00     0.210 C 
ENDBRANCH  18  24
ENDBRANCH  14  17
ENDBRANCH  12  13
ENDBRANCH  11  12
ENDBRANCH   4  11
BRANCH   8  26
HETATM   26  C   UNL     1     -42.998  57.018 -57.467  1.00  0.00    -0.044 A 
HETATM   27  C   UNL     1     -42.245  58.032 -58.085  1.00  0.00     0.008 A 
HETATM   28  C   UNL     1     -41.832  57.902 -59.412  1.00  0.00     0.001 A 
HETATM   29  C   UNL     1     -42.166  56.762 -60.137  1.00  0.00     0.000 A 
HETATM   30  C   UNL     1     -42.920  55.754 -59.541  1.00  0.00     0.001 A 
HETATM   31  C   UNL     1     -43.338  55.881 -58.215  1.00  0.00     0.008 A 
ENDBRANCH   8  26
BRANCH   9  32
HETATM   32  C   UNL     1     -45.695  58.401 -56.728  1.00  0.00     0.255 C 
HETATM   33  N   UNL     1     -45.586  59.211 -57.840  1.00  0.00    -0.323 N 
HETATM   34  H   UNL     1     -44.767  59.789 -57.936  1.00  0.00     0.169 HD
HETATM   35  O   UNL     1     -46.701  57.774 -56.409  1.00  0.00    -0.268 OA
BRANCH  33  36
HETATM   36  C   UNL     1     -46.533  59.376 -58.876  1.00  0.00     0.035 A 
HETATM   37  C   UNL     1     -47.536  60.348 -58.872  1.00  0.00     0.029 A 
HETATM   38  C   UNL     1     -48.458  60.420 -59.922  1.00  0.00     0.002 A 
HETATM   39  C   UNL     1     -48.381  59.525 -60.987  1.00  0.00     0.000 A 
HETATM   40  C   UNL     1     -47.385  58.554 -61.002  1.00  0.00     0.002 A 
HETATM   41  C   UNL     1     -46.469  58.478 -59.949  1.00  0.00     0.029 A 
ENDBRANCH  33  36
ENDBRANCH   9  32
TORSDOF 8
ENDMDL
MODEL 10
REMARK VINA RESULT:      -7.7      2.390      3.221
REMARK  8 active torsions:
REMARK  status: ('A' for Active; 'I' for Inactive)
REMARK    1  A    between atoms: C_4  and  S_5 
REMARK    2  A    between atoms: S_5  and  C_6 
REMARK    3  A    between atoms: C_6  and  C_7 
REMARK       I    between atoms: C_7  and  N_8 
REMARK    4  A    between atoms: N_8  and  C_9 
REMARK    5  A    between atoms: C_10  and  O_11 
REMARK    6  A    between atoms: C_22  and  C_23 
REMARK    7  A    between atoms: C_29  and  C_30 
REMARK       I    between atoms: C_30  and  N_31 
REMARK    8  A    between atoms: N_31  and  C_32 
ROOT
HETATM    1  C   UNL     1     -42.486  56.667 -56.547  1.00  0.00     0.069 C 
HETATM    2  C   UNL     1     -43.053  56.953 -55.176  1.00  0.00     0.019 A 
HETATM    3  N   UNL     1     -43.515  58.244 -54.986  1.00  0.00    -0.353 N 
HETATM    4  C   UNL     1     -44.153  58.712 -53.853  1.00  0.00     0.088 A 
HETATM    5  C   UNL     1     -44.318  57.882 -52.796  1.00  0.00     0.069 A 
HETATM    6  C   UNL     1     -45.049  58.260 -51.627  1.00  0.00     0.099 C 
HETATM    7  N   UNL     1     -45.655  58.514 -50.669  1.00  0.00    -0.192 NA
HETATM    8  C   UNL     1     -43.793  56.441 -52.845  1.00  0.00     0.106 A 
HETATM    9  C   UNL     1     -43.155  56.041 -54.177  1.00  0.00     0.046 A 
HETATM   10  H   UNL     1     -43.698  58.791 -55.830  1.00  0.00     0.166 HD
ENDROOT
BRANCH   4  11
HETATM   11  S   UNL     1     -44.811  60.340 -53.817  1.00  0.00    -0.102 SA
BRANCH  11  12
HETATM   12  C   UNL     1     -44.275  60.980 -55.436  1.00  0.00     0.184 C 
BRANCH  12  13
HETATM   13  C   UNL     1     -45.421  61.039 -56.437  1.00  0.00     0.231 C 
HETATM   14  N   UNL     1     -45.180  61.121 -57.776  1.00  0.00    -0.324 N 
HETATM   15  H   UNL     1     -45.957  61.531 -58.289  1.00  0.00     0.169 HD
HETATM   16  O   UNL     1     -46.600  61.127 -56.073  1.00  0.00    -0.272 OA
BRANCH  14  17
HETATM   17  C   UNL     1     -44.106  60.724 -58.591  1.00  0.00     0.070 A 
HETATM   18  C   UNL     1     -44.062  59.361 -58.967  1.00  0.00     0.095 A 
HETATM   19  C   UNL     1     -42.997  58.883 -59.735  1.00  0.00     0.041 A 
HETATM   20  C   UNL     1     -41.968  59.747 -60.114  1.00  0.00     0.026 A 
HETATM   21  C   UNL     1     -41.995  61.079 -59.709  1.00  0.00     0.036 A 
HETATM   22 CL   UNL     1     -40.697  62.124 -60.138  1.00  0.00    -0.084 Cl
HETATM   23  C   UNL     1     -43.052  61.570 -58.941  1.00  0.00     0.056 A 
BRANCH  18  24
HETATM   24  O   UNL     1     -45.115  58.595 -58.524  1.00  0.00    -0.354 OA
HETATM   25  C   UNL     1     -45.223  57.274 -59.040  1.00  0.00     0.210 C 
ENDBRANCH  18  24
ENDBRANCH  14  17
ENDBRANCH  12  13
ENDBRANCH  11  12
ENDBRANCH   4  11
BRANCH   8  26
HETATM   26  C   UNL     1     -42.888  56.146 -51.646  1.00  0.00    -0.044 A 
HETATM   27  C   UNL     1     -43.175  55.054 -50.807  1.00  0.00     0.008 A 
HETATM   28  C   UNL     1     -42.377  54.784 -49.694  1.00  0.00     0.001 A 
HETATM   29  C   UNL     1     -41.287  55.599 -49.405  1.00  0.00     0.000 A 
HETATM   30  C   UNL     1     -40.996  56.689 -50.221  1.00  0.00     0.001 A 
HETATM   31  C   UNL     1     -41.794  56.965 -51.333  1.00  0.00     0.008 A 
ENDBRANCH   8  26
BRANCH   9  32
HETATM   32  C   UNL     1     -42.612  54.647 -54.368  1.00  0.00     0.255 C 
HETATM   33  N   UNL     1     -41.460  54.367 -53.661  1.00  0.00    -0.323 N 
HETATM   34  H   UNL     1     -40.999  55.119 -53.174  1.00  0.00     0.169 HD
HETATM   35  O   UNL     1     -43.178  53.868 -55.129  1.00  0.00    -0.268 OA
BRANCH  33  36
HETATM   36  C   UNL     1     -40.793  53.125 -53.567  1.00  0.00     0.035 A 
HETATM   37  C   UNL     1     -40.663  52.224 -54.625  1.00  0.00     0.029 A 
HETATM   38  C   UNL     1     -40.018  50.996 -54.437  1.00  0.00     0.002 A 
HETATM   39  C   UNL     1     -39.492  50.663 -53.192  1.00  0.00     0.000 A 
HETATM   40  C   UNL     1     -39.613  51.554 -52.131  1.00  0.00     0.002 A 
HETATM   41  C   UNL     1     -40.264  52.776 -52.316  1.00  0.00     0.029 A 
ENDBRANCH  33  36
ENDBRANCH   9  32
TORSDOF 8
ENDMDL
