MODEL 1
REMARK VINA RESULT:      -7.8      0.000      0.000
REMARK  7 active torsions:
REMARK  status: ('A' for Active; 'I' for Inactive)
REMARK    1  A    between atoms: O_2  and  C_3 
REMARK    2  A    between atoms: C_4  and  O_5 
REMARK    3  A    between atoms: C_7  and  C_8 
REMARK       I    between atoms: C_8  and  N_9 
REMARK    4  A    between atoms: N_9  and  C_10 
REMARK    5  A    between atoms: C_10  and  C_11 
REMARK    6  A    between atoms: C_11  and  N_12 
REMARK    7  A    between atoms: C_11  and  C_18 
ROOT
HETATM    1  C   UNL     1     -41.342  55.783 -52.675  1.00  0.00     0.239 C 
ENDROOT
BRANCH   1   2
HETATM    2  C   UNL     1     -40.993  56.975 -53.631  1.00  0.00     0.161 C 
BRANCH   2   3
HETATM    3  N   UNL     1     -39.936  57.886 -53.218  1.00  0.00    -0.354 N 
HETATM    4  C   UNL     1     -40.012  59.020 -52.441  1.00  0.00     0.254 C 
HETATM    5  O   UNL     1     -38.979  59.522 -52.018  1.00  0.00    -0.268 OA
HETATM    6  H   UNL     1     -38.981  57.535 -53.221  1.00  0.00     0.162 HD
BRANCH   4   7
HETATM    7  C   UNL     1     -41.320  59.642 -52.147  1.00  0.00     0.068 A 
HETATM    8  C   UNL     1     -42.012  60.329 -53.169  1.00  0.00     0.117 A 
HETATM    9  C   UNL     1     -43.198  61.000 -52.827  1.00  0.00     0.102 A 
HETATM   10  C   UNL     1     -43.718  60.880 -51.528  1.00  0.00     0.040 A 
HETATM   11  C   UNL     1     -43.035  60.172 -50.540  1.00  0.00     0.004 A 
HETATM   12  C   UNL     1     -41.816  59.576 -50.840  1.00  0.00     0.020 A 
BRANCH   8  13
HETATM   13  O   UNL     1     -41.449  60.219 -54.414  1.00  0.00    -0.352 OA
HETATM   14  C   UNL     1     -42.203  59.679 -55.488  1.00  0.00     0.210 C 
ENDBRANCH   8  13
BRANCH   9  15
HETATM   15  O   UNL     1     -43.883  61.714 -53.775  1.00  0.00    -0.353 OA
HETATM   16  C   UNL     1     -43.495  63.089 -53.864  1.00  0.00     0.210 C 
ENDBRANCH   9  15
ENDBRANCH   4   7
ENDBRANCH   2   3
ENDBRANCH   1   2
BRANCH   1  17
HETATM   17  N   UNL     1     -42.819  55.699 -52.290  1.00  0.00    -0.061 N 
HETATM   18  H   UNL     1     -43.021  54.690 -52.310  1.00  0.00     0.280 HD
HETATM   19  C   UNL     1     -43.835  56.322 -53.221  1.00  0.00     0.236 C 
HETATM   20  C   UNL     1     -44.539  57.361 -52.371  1.00  0.00     0.029 C 
HETATM   21  C   UNL     1     -44.552  56.729 -50.995  1.00  0.00     0.029 C 
HETATM   22  C   UNL     1     -43.157  56.142 -50.880  1.00  0.00     0.236 C 
ENDBRANCH   1  17
BRANCH   1  23
HETATM   23  C   UNL     1     -40.858  54.427 -53.202  1.00  0.00    -0.015 A 
HETATM   24  C   UNL     1     -40.571  53.344 -52.310  1.00  0.00    -0.018 A 
HETATM   25  C   UNL     1     -40.141  52.106 -52.863  1.00  0.00    -0.025 A 
HETATM   26  C   UNL     1     -40.678  53.405 -50.896  1.00  0.00     0.013 A 
HETATM   27  C   UNL     1     -39.843  51.016 -52.032  1.00  0.00     0.012 A 
HETATM   28  C   UNL     1     -40.007  51.957 -54.248  1.00  0.00     0.012 A 
HETATM   29  C   UNL     1     -39.963  51.115 -50.649  1.00  0.00     0.001 A 
HETATM   30  C   UNL     1     -40.380  52.309 -50.081  1.00  0.00     0.001 A 
HETATM   31  C   UNL     1     -40.298  53.005 -55.107  1.00  0.00     0.002 A 
HETATM   32  C   UNL     1     -40.728  54.223 -54.593  1.00  0.00     0.010 A 
ENDBRANCH   1  23
TORSDOF 7
ENDMDL
MODEL 2
REMARK VINA RESULT:      -7.7      1.904      3.882
REMARK  7 active torsions:
REMARK  status: ('A' for Active; 'I' for Inactive)
REMARK    1  A    between atoms: O_2  and  C_3 
REMARK    2  A    between atoms: C_4  and  O_5 
REMARK    3  A    between atoms: C_7  and  C_8 
REMARK       I    between atoms: C_8  and  N_9 
REMARK    4  A    between atoms: N_9  and  C_10 
REMARK    5  A    between atoms: C_10  and  C_11 
REMARK    6  A    between atoms: C_11  and  N_12 
REMARK    7  A    between atoms: C_11  and  C_18 
ROOT
HETATM    1  C   UNL     1     -42.031  56.732 -51.328  1.00  0.00     0.239 C 
ENDROOT
BRANCH   1   2
HETATM    2  C   UNL     1     -43.587  56.709 -51.146  1.00  0.00     0.161 C 
BRANCH   2   3
HETATM    3  N   UNL     1     -44.405  56.539 -52.338  1.00  0.00    -0.354 N 
HETATM    4  C   UNL     1     -44.442  57.291 -53.489  1.00  0.00     0.254 C 
HETATM    5  O   UNL     1     -45.033  56.854 -54.468  1.00  0.00    -0.268 OA
HETATM    6  H   UNL     1     -44.789  55.615 -52.519  1.00  0.00     0.162 HD
BRANCH   4   7
HETATM    7  C   UNL     1     -43.804  58.623 -53.536  1.00  0.00     0.068 A 
HETATM    8  C   UNL     1     -44.482  59.741 -53.003  1.00  0.00     0.117 A 
HETATM    9  C   UNL     1     -43.895  61.008 -53.162  1.00  0.00     0.102 A 
HETATM   10  C   UNL     1     -42.618  61.118 -53.736  1.00  0.00     0.040 A 
HETATM   11  C   UNL     1     -41.951  59.998 -54.230  1.00  0.00     0.004 A 
HETATM   12  C   UNL     1     -42.557  58.749 -54.159  1.00  0.00     0.020 A 
BRANCH   8  13
HETATM   13  O   UNL     1     -45.644  59.442 -52.339  1.00  0.00    -0.352 OA
HETATM   14  C   UNL     1     -45.736  59.657 -50.939  1.00  0.00     0.210 C 
ENDBRANCH   8  13
BRANCH   9  15
HETATM   15  O   UNL     1     -44.535  62.127 -52.697  1.00  0.00    -0.353 OA
HETATM   16  C   UNL     1     -43.780  62.878 -51.740  1.00  0.00     0.210 C 
ENDBRANCH   9  15
ENDBRANCH   4   7
ENDBRANCH   2   3
ENDBRANCH   1   2
BRANCH   1  17
HETATM   17  N   UNL     1     -41.311  57.761 -50.456  1.00  0.00    -0.061 N 
HETATM   18  H   UNL     1     -41.112  57.249 -49.586  1.00  0.00     0.280 HD
HETATM   19  C   UNL     1     -42.079  58.990 -50.024  1.00  0.00     0.236 C 
HETATM   20  C   UNL     1     -41.282  60.150 -50.584  1.00  0.00     0.029 C 
HETATM   21  C   UNL     1     -39.852  59.660 -50.494  1.00  0.00     0.029 C 
HETATM   22  C   UNL     1     -39.958  58.221 -50.963  1.00  0.00     0.236 C 
ENDBRANCH   1  17
BRANCH   1  23
HETATM   23  C   UNL     1     -41.385  55.352 -51.155  1.00  0.00    -0.015 A 
HETATM   24  C   UNL     1     -41.038  54.548 -52.289  1.00  0.00    -0.018 A 
HETATM   25  C   UNL     1     -40.426  53.284 -52.061  1.00  0.00    -0.025 A 
HETATM   26  C   UNL     1     -41.261  54.912 -53.643  1.00  0.00     0.013 A 
HETATM   27  C   UNL     1     -40.071  52.458 -53.137  1.00  0.00     0.012 A 
HETATM   28  C   UNL     1     -40.170  52.845 -50.758  1.00  0.00     0.012 A 
HETATM   29  C   UNL     1     -40.303  52.851 -54.451  1.00  0.00     0.001 A 
HETATM   30  C   UNL     1     -40.898  54.078 -54.704  1.00  0.00     0.001 A 
HETATM   31  C   UNL     1     -40.497  53.633 -49.665  1.00  0.00     0.002 A 
HETATM   32  C   UNL     1     -41.088  54.876 -49.860  1.00  0.00     0.010 A 
ENDBRANCH   1  23
TORSDOF 7
ENDMDL
MODEL 3
REMARK VINA RESULT:      -7.5      2.133      5.029
REMARK  7 active torsions:
REMARK  status: ('A' for Active; 'I' for Inactive)
REMARK    1  A    between atoms: O_2  and  C_3 
REMARK    2  A    between atoms: C_4  and  O_5 
REMARK    3  A    between atoms: C_7  and  C_8 
REMARK       I    between atoms: C_8  and  N_9 
REMARK    4  A    between atoms: N_9  and  C_10 
REMARK    5  A    between atoms: C_10  and  C_11 
REMARK    6  A    between atoms: C_11  and  N_12 
REMARK    7  A    between atoms: C_11  and  C_18 
ROOT
HETATM    1  C   UNL     1     -41.508  54.439 -54.168  1.00  0.00     0.239 C 
ENDROOT
BRANCH   1   2
HETATM    2  C   UNL     1     -41.210  55.361 -55.400  1.00  0.00     0.161 C 
BRANCH   2   3
HETATM    3  N   UNL     1     -42.165  55.351 -56.499  1.00  0.00    -0.354 N 
HETATM    4  C   UNL     1     -43.127  56.277 -56.831  1.00  0.00     0.254 C 
HETATM    5  O   UNL     1     -43.678  56.199 -57.922  1.00  0.00    -0.268 OA
HETATM    6  H   UNL     1     -41.947  54.776 -57.309  1.00  0.00     0.162 HD
BRANCH   4   7
HETATM    7  C   UNL     1     -43.513  57.334 -55.874  1.00  0.00     0.068 A 
HETATM    8  C   UNL     1     -42.833  58.572 -55.889  1.00  0.00     0.117 A 
HETATM    9  C   UNL     1     -43.152  59.513 -54.895  1.00  0.00     0.102 A 
HETATM   10  C   UNL     1     -44.198  59.251 -53.996  1.00  0.00     0.040 A 
HETATM   11  C   UNL     1     -44.878  58.034 -54.016  1.00  0.00     0.004 A 
HETATM   12  C   UNL     1     -44.516  57.058 -54.937  1.00  0.00     0.020 A 
BRANCH   8  13
HETATM   13  O   UNL     1     -41.949  58.727 -56.926  1.00  0.00    -0.352 OA
HETATM   14  C   UNL     1     -42.285  59.559 -58.025  1.00  0.00     0.210 C 
ENDBRANCH   8  13
BRANCH   9  15
HETATM   15  O   UNL     1     -42.490  60.712 -54.844  1.00  0.00    -0.353 OA
HETATM   16  C   UNL     1     -42.894  61.557 -53.762  1.00  0.00     0.210 C 
ENDBRANCH   9  15
ENDBRANCH   4   7
ENDBRANCH   2   3
ENDBRANCH   1   2
BRANCH   1  17
HETATM   17  N   UNL     1     -40.311  53.614 -53.697  1.00  0.00    -0.061 N 
HETATM   18  H   UNL     1     -39.512  54.255 -53.809  1.00  0.00     0.280 HD
HETATM   19  C   UNL     1     -39.940  52.381 -54.488  1.00  0.00     0.236 C 
HETATM   20  C   UNL     1     -40.046  51.245 -53.490  1.00  0.00     0.029 C 
HETATM   21  C   UNL     1     -39.611  51.889 -52.190  1.00  0.00     0.029 C 
HETATM   22  C   UNL     1     -40.310  53.235 -52.229  1.00  0.00     0.236 C 
ENDBRANCH   1  17
BRANCH   1  23
HETATM   23  C   UNL     1     -42.124  55.197 -52.986  1.00  0.00    -0.015 A 
HETATM   24  C   UNL     1     -41.682  56.514 -52.638  1.00  0.00    -0.018 A 
HETATM   25  C   UNL     1     -42.306  57.170 -51.540  1.00  0.00    -0.025 A 
HETATM   26  C   UNL     1     -40.655  57.230 -53.306  1.00  0.00     0.013 A 
HETATM   27  C   UNL     1     -41.906  58.459 -51.157  1.00  0.00     0.012 A 
HETATM   28  C   UNL     1     -43.327  56.537 -50.824  1.00  0.00     0.012 A 
HETATM   29  C   UNL     1     -40.896  59.130 -51.839  1.00  0.00     0.001 A 
HETATM   30  C   UNL     1     -40.271  58.516 -52.913  1.00  0.00     0.001 A 
HETATM   31  C   UNL     1     -43.759  55.267 -51.173  1.00  0.00     0.002 A 
HETATM   32  C   UNL     1     -43.173  54.607 -52.247  1.00  0.00     0.010 A 
ENDBRANCH   1  23
TORSDOF 7
ENDMDL
MODEL 4
REMARK VINA RESULT:      -7.5      1.619      2.325
REMARK  7 active torsions:
REMARK  status: ('A' for Active; 'I' for Inactive)
REMARK    1  A    between atoms: O_2  and  C_3 
REMARK    2  A    between atoms: C_4  and  O_5 
REMARK    3  A    between atoms: C_7  and  C_8 
REMARK       I    between atoms: C_8  and  N_9 
REMARK    4  A    between atoms: N_9  and  C_10 
REMARK    5  A    between atoms: C_10  and  C_11 
REMARK    6  A    between atoms: C_11  and  N_12 
REMARK    7  A    between atoms: C_11  and  C_18 
ROOT
HETATM    1  C   UNL     1     -41.954  56.540 -53.661  1.00  0.00     0.239 C 
ENDROOT
BRANCH   1   2
HETATM    2  C   UNL     1     -40.954  57.744 -53.581  1.00  0.00     0.161 C 
BRANCH   2   3
HETATM    3  N   UNL     1     -40.596  58.239 -52.260  1.00  0.00    -0.354 N 
HETATM    4  C   UNL     1     -41.405  58.530 -51.185  1.00  0.00     0.254 C 
HETATM    5  O   UNL     1     -40.894  58.719 -50.089  1.00  0.00    -0.268 OA
HETATM    6  H   UNL     1     -39.642  58.087 -51.940  1.00  0.00     0.162 HD
BRANCH   4   7
HETATM    7  C   UNL     1     -42.868  58.645 -51.357  1.00  0.00     0.068 A 
HETATM    8  C   UNL     1     -43.417  59.833 -51.887  1.00  0.00     0.117 A 
HETATM    9  C   UNL     1     -44.817  59.950 -51.935  1.00  0.00     0.102 A 
HETATM   10  C   UNL     1     -45.621  58.860 -51.566  1.00  0.00     0.040 A 
HETATM   11  C   UNL     1     -45.059  57.684 -51.072  1.00  0.00     0.004 A 
HETATM   12  C   UNL     1     -43.679  57.585 -50.937  1.00  0.00     0.020 A 
BRANCH   8  13
HETATM   13  O   UNL     1     -42.492  60.737 -52.343  1.00  0.00    -0.352 OA
HETATM   14  C   UNL     1     -42.466  61.092 -53.717  1.00  0.00     0.210 C 
ENDBRANCH   8  13
BRANCH   9  15
HETATM   15  O   UNL     1     -45.396  61.100 -52.403  1.00  0.00    -0.353 OA
HETATM   16  C   UNL     1     -46.781  61.236 -52.068  1.00  0.00     0.210 C 
ENDBRANCH   9  15
ENDBRANCH   4   7
ENDBRANCH   2   3
ENDBRANCH   1   2
BRANCH   1  17
HETATM   17  N   UNL     1     -43.012  56.673 -54.756  1.00  0.00    -0.061 N 
HETATM   18  H   UNL     1     -42.863  55.841 -55.344  1.00  0.00     0.280 HD
HETATM   19  C   UNL     1     -42.911  57.847 -55.704  1.00  0.00     0.236 C 
HETATM   20  C   UNL     1     -44.217  58.593 -55.521  1.00  0.00     0.029 C 
HETATM   21  C   UNL     1     -45.211  57.485 -55.246  1.00  0.00     0.029 C 
HETATM   22  C   UNL     1     -44.452  56.579 -54.294  1.00  0.00     0.236 C 
ENDBRANCH   1  17
BRANCH   1  23
HETATM   23  C   UNL     1     -41.251  55.181 -53.770  1.00  0.00    -0.015 A 
HETATM   24  C   UNL     1     -40.974  54.394 -52.606  1.00  0.00    -0.018 A 
HETATM   25  C   UNL     1     -40.335  53.135 -52.776  1.00  0.00    -0.025 A 
HETATM   26  C   UNL     1     -41.286  54.773 -51.274  1.00  0.00     0.013 A 
HETATM   27  C   UNL     1     -40.037  52.328 -51.668  1.00  0.00     0.012 A 
HETATM   28  C   UNL     1     -39.990  52.682 -54.054  1.00  0.00     0.012 A 
HETATM   29  C   UNL     1     -40.362  52.734 -50.377  1.00  0.00     0.001 A 
HETATM   30  C   UNL     1     -40.986  53.956 -50.180  1.00  0.00     0.001 A 
HETATM   31  C   UNL     1     -40.272  53.442 -55.178  1.00  0.00     0.002 A 
HETATM   32  C   UNL     1     -40.904  54.673 -55.040  1.00  0.00     0.010 A 
ENDBRANCH   1  23
TORSDOF 7
ENDMDL
MODEL 5
REMARK VINA RESULT:      -7.4      2.073      3.965
REMARK  7 active torsions:
REMARK  status: ('A' for Active; 'I' for Inactive)
REMARK    1  A    between atoms: O_2  and  C_3 
REMARK    2  A    between atoms: C_4  and  O_5 
REMARK    3  A    between atoms: C_7  and  C_8 
REMARK       I    between atoms: C_8  and  N_9 
REMARK    4  A    between atoms: N_9  and  C_10 
REMARK    5  A    between atoms: C_10  and  C_11 
REMARK    6  A    between atoms: C_11  and  N_12 
REMARK    7  A    between atoms: C_11  and  C_18 
ROOT
HETATM    1  C   UNL     1     -42.461  56.494 -52.162  1.00  0.00     0.239 C 
ENDROOT
BRANCH   1   2
HETATM    2  C   UNL     1     -42.791  57.641 -51.147  1.00  0.00     0.161 C 
BRANCH   2   3
HETATM    3  N   UNL     1     -44.151  57.719 -50.634  1.00  0.00    -0.354 N 
HETATM    4  C   UNL     1     -45.182  58.550 -51.009  1.00  0.00     0.254 C 
HETATM    5  O   UNL     1     -46.316  58.307 -50.615  1.00  0.00    -0.268 OA
HETATM    6  H   UNL     1     -44.525  56.900 -50.160  1.00  0.00     0.162 HD
BRANCH   4   7
HETATM    7  C   UNL     1     -44.922  59.737 -51.849  1.00  0.00     0.068 A 
HETATM    8  C   UNL     1     -44.342  60.887 -51.270  1.00  0.00     0.117 A 
HETATM    9  C   UNL     1     -44.208  62.034 -52.072  1.00  0.00     0.102 A 
HETATM   10  C   UNL     1     -44.544  61.977 -53.434  1.00  0.00     0.040 A 
HETATM   11  C   UNL     1     -45.089  60.822 -53.994  1.00  0.00     0.004 A 
HETATM   12  C   UNL     1     -45.308  59.706 -53.194  1.00  0.00     0.020 A 
BRANCH   8  13
HETATM   13  O   UNL     1     -43.928  60.728 -49.973  1.00  0.00    -0.352 OA
HETATM   14  C   UNL     1     -44.670  61.315 -48.915  1.00  0.00     0.210 C 
ENDBRANCH   8  13
BRANCH   9  15
HETATM   15  O   UNL     1     -43.688  63.187 -51.543  1.00  0.00    -0.353 OA
HETATM   16  C   UNL     1     -44.653  64.225 -51.343  1.00  0.00     0.210 C 
ENDBRANCH   9  15
ENDBRANCH   4   7
ENDBRANCH   2   3
ENDBRANCH   1   2
BRANCH   1  17
HETATM   17  N   UNL     1     -41.932  56.982 -53.511  1.00  0.00    -0.061 N 
HETATM   18  H   UNL     1     -41.414  56.172 -53.880  1.00  0.00     0.280 HD
HETATM   19  C   UNL     1     -40.938  58.121 -53.517  1.00  0.00     0.236 C 
HETATM   20  C   UNL     1     -41.609  59.204 -54.337  1.00  0.00     0.029 C 
HETATM   21  C   UNL     1     -42.387  58.420 -55.372  1.00  0.00     0.029 C 
HETATM   22  C   UNL     1     -42.985  57.287 -54.558  1.00  0.00     0.236 C 
ENDBRANCH   1  17
BRANCH   1  23
HETATM   23  C   UNL     1     -41.521  55.431 -51.582  1.00  0.00    -0.015 A 
HETATM   24  C   UNL     1     -41.153  54.272 -52.341  1.00  0.00    -0.018 A 
HETATM   25  C   UNL     1     -40.263  53.331 -51.752  1.00  0.00    -0.025 A 
HETATM   26  C   UNL     1     -41.612  53.979 -53.651  1.00  0.00     0.013 A 
HETATM   27  C   UNL     1     -39.877  52.179 -52.451  1.00  0.00     0.012 A 
HETATM   28  C   UNL     1     -39.762  53.541 -50.462  1.00  0.00     0.012 A 
HETATM   29  C   UNL     1     -40.347  51.928 -53.736  1.00  0.00     0.001 A 
HETATM   30  C   UNL     1     -41.214  52.827 -54.336  1.00  0.00     0.001 A 
HETATM   31  C   UNL     1     -40.111  54.669 -49.738  1.00  0.00     0.002 A 
HETATM   32  C   UNL     1     -40.973  55.609 -50.293  1.00  0.00     0.010 A 
ENDBRANCH   1  23
TORSDOF 7
ENDMDL
MODEL 6
REMARK VINA RESULT:      -7.4      3.189      4.906
REMARK  7 active torsions:
REMARK  status: ('A' for Active; 'I' for Inactive)
REMARK    1  A    between atoms: O_2  and  C_3 
REMARK    2  A    between atoms: C_4  and  O_5 
REMARK    3  A    between atoms: C_7  and  C_8 
REMARK       I    between atoms: C_8  and  N_9 
REMARK    4  A    between atoms: N_9  and  C_10 
REMARK    5  A    between atoms: C_10  and  C_11 
REMARK    6  A    between atoms: C_11  and  N_12 
REMARK    7  A    between atoms: C_11  and  C_18 
ROOT
HETATM    1  C   UNL     1     -41.775  56.482 -53.780  1.00  0.00     0.239 C 
ENDROOT
BRANCH   1   2
HETATM    2  C   UNL     1     -41.802  56.966 -55.270  1.00  0.00     0.161 C 
BRANCH   2   3
HETATM    3  N   UNL     1     -42.015  58.385 -55.516  1.00  0.00    -0.354 N 
HETATM    4  C   UNL     1     -42.553  59.011 -56.617  1.00  0.00     0.254 C 
HETATM    5  O   UNL     1     -42.856  60.195 -56.540  1.00  0.00    -0.268 OA
HETATM    6  H   UNL     1     -42.069  59.002 -54.709  1.00  0.00     0.162 HD
BRANCH   4   7
HETATM    7  C   UNL     1     -42.735  58.275 -57.885  1.00  0.00     0.068 A 
HETATM    8  C   UNL     1     -43.909  57.517 -58.090  1.00  0.00     0.117 A 
HETATM    9  C   UNL     1     -44.000  56.744 -59.260  1.00  0.00     0.102 A 
HETATM   10  C   UNL     1     -42.990  56.829 -60.233  1.00  0.00     0.040 A 
HETATM   11  C   UNL     1     -41.852  57.606 -60.025  1.00  0.00     0.004 A 
HETATM   12  C   UNL     1     -41.707  58.309 -58.835  1.00  0.00     0.020 A 
BRANCH   8  13
HETATM   13  O   UNL     1     -44.863  57.666 -57.116  1.00  0.00    -0.352 OA
HETATM   14  C   UNL     1     -46.011  58.462 -57.363  1.00  0.00     0.210 C 
ENDBRANCH   8  13
BRANCH   9  15
HETATM   15  O   UNL     1     -45.101  55.961 -59.484  1.00  0.00    -0.353 OA
HETATM   16  C   UNL     1     -44.796  54.641 -59.947  1.00  0.00     0.210 C 
ENDBRANCH   9  15
ENDBRANCH   4   7
ENDBRANCH   2   3
ENDBRANCH   1   2
BRANCH   1  17
HETATM   17  N   UNL     1     -43.116  56.603 -53.056  1.00  0.00    -0.061 N 
HETATM   18  H   UNL     1     -43.147  55.768 -52.455  1.00  0.00     0.280 HD
HETATM   19  C   UNL     1     -44.380  56.541 -53.882  1.00  0.00     0.236 C 
HETATM   20  C   UNL     1     -45.071  57.864 -53.616  1.00  0.00     0.029 C 
HETATM   21  C   UNL     1     -44.714  58.153 -52.173  1.00  0.00     0.029 C 
HETATM   22  C   UNL     1     -43.245  57.778 -52.106  1.00  0.00     0.236 C 
ENDBRANCH   1  17
BRANCH   1  23
HETATM   23  C   UNL     1     -41.216  55.063 -53.619  1.00  0.00    -0.015 A 
HETATM   24  C   UNL     1     -40.885  54.538 -52.328  1.00  0.00    -0.018 A 
HETATM   25  C   UNL     1     -40.387  53.208 -52.245  1.00  0.00    -0.025 A 
HETATM   26  C   UNL     1     -41.012  55.247 -51.105  1.00  0.00     0.013 A 
HETATM   27  C   UNL     1     -40.044  52.650 -51.005  1.00  0.00     0.012 A 
HETATM   28  C   UNL     1     -40.229  52.437 -53.401  1.00  0.00     0.012 A 
HETATM   29  C   UNL     1     -40.186  53.376 -49.827  1.00  0.00     0.001 A 
HETATM   30  C   UNL     1     -40.669  54.675 -49.877  1.00  0.00     0.001 A 
HETATM   31  C   UNL     1     -40.562  52.945 -54.647  1.00  0.00     0.002 A 
HETATM   32  C   UNL     1     -41.059  54.239 -54.756  1.00  0.00     0.010 A 
ENDBRANCH   1  23
TORSDOF 7
ENDMDL
MODEL 7
REMARK VINA RESULT:      -7.3      2.585      5.678
REMARK  7 active torsions:
REMARK  status: ('A' for Active; 'I' for Inactive)
REMARK    1  A    between atoms: O_2  and  C_3 
REMARK    2  A    between atoms: C_4  and  O_5 
REMARK    3  A    between atoms: C_7  and  C_8 
REMARK       I    between atoms: C_8  and  N_9 
REMARK    4  A    between atoms: N_9  and  C_10 
REMARK    5  A    between atoms: C_10  and  C_11 
REMARK    6  A    between atoms: C_11  and  N_12 
REMARK    7  A    between atoms: C_11  and  C_18 
ROOT
HETATM    1  C   UNL     1     -42.820  55.765 -54.501  1.00  0.00     0.239 C 
ENDROOT
BRANCH   1   2
HETATM    2  C   UNL     1     -42.495  55.779 -56.034  1.00  0.00     0.161 C 
BRANCH   2   3
HETATM    3  N   UNL     1     -43.601  55.984 -56.958  1.00  0.00    -0.354 N 
HETATM    4  C   UNL     1     -44.041  57.145 -57.552  1.00  0.00     0.254 C 
HETATM    5  O   UNL     1     -44.844  57.075 -58.474  1.00  0.00    -0.268 OA
HETATM    6  H   UNL     1     -43.928  55.181 -57.490  1.00  0.00     0.162 HD
BRANCH   4   7
HETATM    7  C   UNL     1     -43.577  58.461 -57.063  1.00  0.00     0.068 A 
HETATM    8  C   UNL     1     -42.433  59.055 -57.640  1.00  0.00     0.117 A 
HETATM    9  C   UNL     1     -41.958  60.252 -57.079  1.00  0.00     0.102 A 
HETATM   10  C   UNL     1     -42.681  60.877 -56.050  1.00  0.00     0.040 A 
HETATM   11  C   UNL     1     -43.826  60.288 -55.514  1.00  0.00     0.004 A 
HETATM   12  C   UNL     1     -44.260  59.061 -55.999  1.00  0.00     0.020 A 
BRANCH   8  13
HETATM   13  O   UNL     1     -41.937  58.396 -58.735  1.00  0.00    -0.352 OA
HETATM   14  C   UNL     1     -42.192  58.895 -60.039  1.00  0.00     0.210 C 
ENDBRANCH   8  13
BRANCH   9  15
HETATM   15  O   UNL     1     -40.827  60.845 -57.577  1.00  0.00    -0.353 OA
HETATM   16  C   UNL     1     -41.076  62.037 -58.330  1.00  0.00     0.210 C 
ENDBRANCH   9  15
ENDBRANCH   4   7
ENDBRANCH   2   3
ENDBRANCH   1   2
BRANCH   1  17
HETATM   17  N   UNL     1     -42.395  54.486 -53.781  1.00  0.00    -0.061 N 
HETATM   18  H   UNL     1     -43.149  53.820 -53.998  1.00  0.00     0.280 HD
HETATM   19  C   UNL     1     -42.314  54.511 -52.271  1.00  0.00     0.236 C 
HETATM   20  C   UNL     1     -40.871  54.164 -51.964  1.00  0.00     0.029 C 
HETATM   21  C   UNL     1     -40.509  53.192 -53.067  1.00  0.00     0.029 C 
HETATM   22  C   UNL     1     -41.128  53.831 -54.296  1.00  0.00     0.236 C 
ENDBRANCH   1  17
BRANCH   1  23
HETATM   23  C   UNL     1     -42.277  56.992 -53.761  1.00  0.00    -0.015 A 
HETATM   24  C   UNL     1     -43.100  57.737 -52.855  1.00  0.00    -0.018 A 
HETATM   25  C   UNL     1     -42.531  58.856 -52.186  1.00  0.00    -0.025 A 
HETATM   26  C   UNL     1     -44.459  57.449 -52.567  1.00  0.00     0.013 A 
HETATM   27  C   UNL     1     -43.296  59.620 -51.293  1.00  0.00     0.012 A 
HETATM   28  C   UNL     1     -41.197  59.213 -52.411  1.00  0.00     0.012 A 
HETATM   29  C   UNL     1     -44.626  59.304 -51.035  1.00  0.00     0.001 A 
HETATM   30  C   UNL     1     -45.208  58.219 -51.672  1.00  0.00     0.001 A 
HETATM   31  C   UNL     1     -40.401  58.481 -53.279  1.00  0.00     0.002 A 
HETATM   32  C   UNL     1     -40.930  57.378 -53.939  1.00  0.00     0.010 A 
ENDBRANCH   1  23
TORSDOF 7
ENDMDL
MODEL 8
REMARK VINA RESULT:      -7.3      3.632      5.871
REMARK  7 active torsions:
REMARK  status: ('A' for Active; 'I' for Inactive)
REMARK    1  A    between atoms: O_2  and  C_3 
REMARK    2  A    between atoms: C_4  and  O_5 
REMARK    3  A    between atoms: C_7  and  C_8 
REMARK       I    between atoms: C_8  and  N_9 
REMARK    4  A    between atoms: N_9  and  C_10 
REMARK    5  A    between atoms: C_10  and  C_11 
REMARK    6  A    between atoms: C_11  and  N_12 
REMARK    7  A    between atoms: C_11  and  C_18 
ROOT
HETATM    1  C   UNL     1     -42.344  57.649 -54.462  1.00  0.00     0.239 C 
ENDROOT
BRANCH   1   2
HETATM    2  C   UNL     1     -43.695  58.013 -55.168  1.00  0.00     0.161 C 
BRANCH   2   3
HETATM    3  N   UNL     1     -43.772  59.290 -55.862  1.00  0.00    -0.354 N 
HETATM    4  C   UNL     1     -43.843  59.550 -57.212  1.00  0.00     0.254 C 
HETATM    5  O   UNL     1     -44.131  60.679 -57.587  1.00  0.00    -0.268 OA
HETATM    6  H   UNL     1     -44.116  60.092 -55.340  1.00  0.00     0.162 HD
BRANCH   4   7
HETATM    7  C   UNL     1     -43.546  58.489 -58.197  1.00  0.00     0.068 A 
HETATM    8  C   UNL     1     -44.538  57.536 -58.517  1.00  0.00     0.117 A 
HETATM    9  C   UNL     1     -44.186  56.479 -59.374  1.00  0.00     0.102 A 
HETATM   10  C   UNL     1     -42.915  56.457 -59.970  1.00  0.00     0.040 A 
HETATM   11  C   UNL     1     -41.958  57.425 -59.664  1.00  0.00     0.004 A 
HETATM   12  C   UNL     1     -42.262  58.428 -58.751  1.00  0.00     0.020 A 
BRANCH   8  13
HETATM   13  O   UNL     1     -45.771  57.788 -57.971  1.00  0.00    -0.352 OA
HETATM   14  C   UNL     1     -46.818  58.288 -58.788  1.00  0.00     0.210 C 
ENDBRANCH   8  13
BRANCH   9  15
HETATM   15  O   UNL     1     -45.103  55.508 -59.681  1.00  0.00    -0.353 OA
HETATM   16  C   UNL     1     -45.024  55.035 -61.030  1.00  0.00     0.210 C 
ENDBRANCH   9  15
ENDBRANCH   4   7
ENDBRANCH   2   3
ENDBRANCH   1   2
BRANCH   1  17
HETATM   17  N   UNL     1     -41.718  58.799 -53.673  1.00  0.00    -0.061 N 
HETATM   18  H   UNL     1     -41.621  59.551 -54.370  1.00  0.00     0.280 HD
HETATM   19  C   UNL     1     -40.329  58.604 -53.109  1.00  0.00     0.236 C 
HETATM   20  C   UNL     1     -40.500  58.784 -51.614  1.00  0.00     0.029 C 
HETATM   21  C   UNL     1     -41.589  59.832 -51.515  1.00  0.00     0.029 C 
HETATM   22  C   UNL     1     -42.581  59.388 -52.574  1.00  0.00     0.236 C 
ENDBRANCH   1  17
BRANCH   1  23
HETATM   23  C   UNL     1     -42.443  56.399 -53.581  1.00  0.00    -0.015 A 
HETATM   24  C   UNL     1     -41.660  55.231 -53.858  1.00  0.00    -0.018 A 
HETATM   25  C   UNL     1     -41.786  54.110 -52.993  1.00  0.00    -0.025 A 
HETATM   26  C   UNL     1     -40.756  55.098 -54.945  1.00  0.00     0.013 A 
HETATM   27  C   UNL     1     -41.044  52.942 -53.224  1.00  0.00     0.012 A 
HETATM   28  C   UNL     1     -42.655  54.154 -51.897  1.00  0.00     0.012 A 
HETATM   29  C   UNL     1     -40.166  52.850 -54.299  1.00  0.00     0.001 A 
HETATM   30  C   UNL     1     -40.022  53.928 -55.159  1.00  0.00     0.001 A 
HETATM   31  C   UNL     1     -43.401  55.290 -51.627  1.00  0.00     0.002 A 
HETATM   32  C   UNL     1     -43.290  56.404 -52.452  1.00  0.00     0.010 A 
ENDBRANCH   1  23
TORSDOF 7
ENDMDL
MODEL 9
REMARK VINA RESULT:      -7.3      3.823      6.851
REMARK  7 active torsions:
REMARK  status: ('A' for Active; 'I' for Inactive)
REMARK    1  A    between atoms: O_2  and  C_3 
REMARK    2  A    between atoms: C_4  and  O_5 
REMARK    3  A    between atoms: C_7  and  C_8 
REMARK       I    between atoms: C_8  and  N_9 
REMARK    4  A    between atoms: N_9  and  C_10 
REMARK    5  A    between atoms: C_10  and  C_11 
REMARK    6  A    between atoms: C_11  and  N_12 
REMARK    7  A    between atoms: C_11  and  C_18 
ROOT
HETATM    1  C   UNL     1     -43.084  56.089 -57.839  1.00  0.00     0.239 C 
ENDROOT
BRANCH   1   2
HETATM    2  C   UNL     1     -42.917  55.240 -56.532  1.00  0.00     0.161 C 
BRANCH   2   3
HETATM    3  N   UNL     1     -41.565  54.908 -56.110  1.00  0.00    -0.354 N 
HETATM    4  C   UNL     1     -40.908  55.230 -54.944  1.00  0.00     0.254 C 
HETATM    5  O   UNL     1     -39.854  54.667 -54.679  1.00  0.00    -0.268 OA
HETATM    6  H   UNL     1     -41.116  54.107 -56.546  1.00  0.00     0.162 HD
BRANCH   4   7
HETATM    7  C   UNL     1     -41.450  56.264 -54.038  1.00  0.00     0.068 A 
HETATM    8  C   UNL     1     -42.401  55.905 -53.058  1.00  0.00     0.117 A 
HETATM    9  C   UNL     1     -42.975  56.930 -52.287  1.00  0.00     0.102 A 
HETATM   10  C   UNL     1     -42.517  58.250 -52.430  1.00  0.00     0.040 A 
HETATM   11  C   UNL     1     -41.556  58.581 -53.384  1.00  0.00     0.004 A 
HETATM   12  C   UNL     1     -41.041  57.592 -54.213  1.00  0.00     0.020 A 
BRANCH   8  13
HETATM   13  O   UNL     1     -42.623  54.556 -52.944  1.00  0.00    -0.352 OA
HETATM   14  C   UNL     1     -42.073  53.837 -51.851  1.00  0.00     0.210 C 
ENDBRANCH   8  13
BRANCH   9  15
HETATM   15  O   UNL     1     -43.931  56.635 -51.352  1.00  0.00    -0.353 OA
HETATM   16  C   UNL     1     -44.953  57.629 -51.226  1.00  0.00     0.210 C 
ENDBRANCH   9  15
ENDBRANCH   4   7
ENDBRANCH   2   3
ENDBRANCH   1   2
BRANCH   1  17
HETATM   17  N   UNL     1     -44.391  55.834 -58.591  1.00  0.00    -0.061 N 
HETATM   18  H   UNL     1     -45.080  55.684 -57.841  1.00  0.00     0.280 HD
HETATM   19  C   UNL     1     -44.483  54.601 -59.461  1.00  0.00     0.236 C 
HETATM   20  C   UNL     1     -44.770  55.139 -60.849  1.00  0.00     0.029 C 
HETATM   21  C   UNL     1     -45.626  56.358 -60.574  1.00  0.00     0.029 C 
HETATM   22  C   UNL     1     -44.927  57.003 -59.393  1.00  0.00     0.236 C 
ENDBRANCH   1  17
BRANCH   1  23
HETATM   23  C   UNL     1     -42.894  57.592 -57.608  1.00  0.00    -0.015 A 
HETATM   24  C   UNL     1     -43.638  58.288 -56.601  1.00  0.00    -0.018 A 
HETATM   25  C   UNL     1     -43.404  59.680 -56.425  1.00  0.00    -0.025 A 
HETATM   26  C   UNL     1     -44.609  57.695 -55.752  1.00  0.00     0.013 A 
HETATM   27  C   UNL     1     -44.110  60.407 -55.456  1.00  0.00     0.012 A 
HETATM   28  C   UNL     1     -42.465  60.346 -57.220  1.00  0.00     0.012 A 
HETATM   29  C   UNL     1     -45.052  59.789 -54.640  1.00  0.00     0.001 A 
HETATM   30  C   UNL     1     -45.302  58.433 -54.788  1.00  0.00     0.001 A 
HETATM   31  C   UNL     1     -41.738  59.666 -58.185  1.00  0.00     0.002 A 
HETATM   32  C   UNL     1     -41.942  58.303 -58.372  1.00  0.00     0.010 A 
ENDBRANCH   1  23
TORSDOF 7
ENDMDL
MODEL 10
REMARK VINA RESULT:      -7.3      2.800      4.695
REMARK  7 active torsions:
REMARK  status: ('A' for Active; 'I' for Inactive)
REMARK    1  A    between atoms: O_2  and  C_3 
REMARK    2  A    between atoms: C_4  and  O_5 
REMARK    3  A    between atoms: C_7  and  C_8 
REMARK       I    between atoms: C_8  and  N_9 
REMARK    4  A    between atoms: N_9  and  C_10 
REMARK    5  A    between atoms: C_10  and  C_11 
REMARK    6  A    between atoms: C_11  and  N_12 
REMARK    7  A    between atoms: C_11  and  C_18 
ROOT
HETATM    1  C   UNL     1     -42.554  56.801 -53.933  1.00  0.00     0.239 C 
ENDROOT
BRANCH   1   2
HETATM    2  C   UNL     1     -43.851  56.464 -54.745  1.00  0.00     0.161 C 
BRANCH   2   3
HETATM    3  N   UNL     1     -43.688  55.907 -56.079  1.00  0.00    -0.354 N 
HETATM    4  C   UNL     1     -43.302  56.528 -57.246  1.00  0.00     0.254 C 
HETATM    5  O   UNL     1     -43.006  55.842 -58.215  1.00  0.00    -0.268 OA
HETATM    6  H   UNL     1     -43.537  54.904 -56.158  1.00  0.00     0.162 HD
BRANCH   4   7
HETATM    7  C   UNL     1     -43.277  58.002 -57.338  1.00  0.00     0.068 A 
HETATM    8  C   UNL     1     -44.484  58.711 -57.524  1.00  0.00     0.117 A 
HETATM    9  C   UNL     1     -44.411  60.101 -57.717  1.00  0.00     0.102 A 
HETATM   10  C   UNL     1     -43.174  60.756 -57.609  1.00  0.00     0.040 A 
HETATM   11  C   UNL     1     -41.996  60.042 -57.395  1.00  0.00     0.004 A 
HETATM   12  C   UNL     1     -42.041  58.657 -57.289  1.00  0.00     0.020 A 
BRANCH   8  13
HETATM   13  O   UNL     1     -45.617  57.941 -57.451  1.00  0.00    -0.352 OA
HETATM   14  C   UNL     1     -46.397  57.714 -58.614  1.00  0.00     0.210 C 
ENDBRANCH   8  13
BRANCH   9  15
HETATM   15  O   UNL     1     -45.552  60.826 -57.942  1.00  0.00    -0.353 OA
HETATM   16  C   UNL     1     -46.151  61.357 -56.756  1.00  0.00     0.210 C 
ENDBRANCH   9  15
ENDBRANCH   4   7
ENDBRANCH   2   3
ENDBRANCH   1   2
BRANCH   1  17
HETATM   17  N   UNL     1     -42.565  58.182 -53.278  1.00  0.00    -0.061 N 
HETATM   18  H   UNL     1     -42.328  57.989 -52.295  1.00  0.00     0.280 HD
HETATM   19  C   UNL     1     -43.874  58.936 -53.227  1.00  0.00     0.236 C 
HETATM   20  C   UNL     1     -43.599  60.222 -53.979  1.00  0.00     0.029 C 
HETATM   21  C   UNL     1     -42.150  60.512 -53.647  1.00  0.00     0.029 C 
HETATM   22  C   UNL     1     -41.498  59.147 -53.759  1.00  0.00     0.236 C 
ENDBRANCH   1  17
BRANCH   1  23
HETATM   23  C   UNL     1     -42.197  55.729 -52.896  1.00  0.00    -0.015 A 
HETATM   24  C   UNL     1     -41.408  54.587 -53.251  1.00  0.00    -0.018 A 
HETATM   25  C   UNL     1     -41.098  53.638 -52.238  1.00  0.00    -0.025 A 
HETATM   26  C   UNL     1     -40.904  54.319 -54.550  1.00  0.00     0.013 A 
HETATM   27  C   UNL     1     -40.332  52.501 -52.535  1.00  0.00     0.012 A 
HETATM   28  C   UNL     1     -41.555  53.823 -50.929  1.00  0.00     0.012 A 
HETATM   29  C   UNL     1     -39.853  52.274 -53.822  1.00  0.00     0.001 A 
HETATM   30  C   UNL     1     -40.139  53.183 -54.829  1.00  0.00     0.001 A 
HETATM   31  C   UNL     1     -42.308  54.935 -50.589  1.00  0.00     0.002 A 
HETATM   32  C   UNL     1     -42.618  55.884 -51.557  1.00  0.00     0.010 A 
ENDBRANCH   1  23
TORSDOF 7
ENDMDL
