MODEL 1
REMARK VINA RESULT:      -7.9      0.000      0.000
REMARK  5 active torsions:
REMARK  status: ('A' for Active; 'I' for Inactive)
REMARK    1  A    between atoms: C_4  and  C_5 
REMARK       I    between atoms: C_5  and  N_6 
REMARK    2  A    between atoms: N_6  and  C_7 
REMARK    3  A    between atoms: C_10  and  N_11 
REMARK       I    between atoms: N_11  and  C_12 
REMARK       I    between atoms: C_12  and  N_13 
REMARK    4  A    between atoms: N_13  and  C_14 
REMARK    5  A    between atoms: C_14  and  C_15 
ROOT
HETATM    1  C   UNL     1     -43.131  56.190 -55.808  1.00  0.00     0.035 A 
HETATM    2  C   UNL     1     -41.750  56.122 -55.620  1.00  0.00     0.032 A 
HETATM    3  C   UNL     1     -41.192  56.220 -54.331  1.00  0.00     0.032 A 
HETATM    4  C   UNL     1     -42.009  56.407 -53.218  1.00  0.00     0.036 A 
HETATM    5  C   UNL     1     -43.394  56.480 -53.415  1.00  0.00     0.032 A 
HETATM    6  C   UNL     1     -43.949  56.373 -54.692  1.00  0.00     0.032 A 
ENDROOT
BRANCH   4   7
HETATM    7  N   UNL     1     -41.580  56.475 -51.882  1.00  0.00    -0.309 N 
HETATM    8  C   UNL     1     -41.221  55.569 -50.943  1.00  0.00     0.321 C 
HETATM    9  N   UNL     1     -40.983  54.288 -51.304  1.00  0.00    -0.337 N 
HETATM   10  O   UNL     1     -41.099  55.957 -49.780  1.00  0.00    -0.247 OA
HETATM   11  H   UNL     1     -40.595  54.137 -52.226  1.00  0.00     0.164 HD
HETATM   12  H   UNL     1     -41.593  57.397 -51.464  1.00  0.00     0.170 HD
BRANCH   9  13
HETATM   13  C   UNL     1     -40.508  53.365 -50.294  1.00  0.00     0.183 C 
BRANCH  13  14
HETATM   14  C   UNL     1     -40.157  51.999 -50.835  1.00  0.00     0.053 A 
HETATM   15  N   UNL     1     -40.166  50.938 -49.983  1.00  0.00    -0.264 NA
HETATM   16  C   UNL     1     -39.874  49.722 -50.498  1.00  0.00     0.118 A 
HETATM   17  C   UNL     1     -39.591  49.498 -51.831  1.00  0.00     0.043 A 
HETATM   18  C   UNL     1     -39.608  50.592 -52.683  1.00  0.00     0.037 A 
HETATM   19 CL   UNL     1     -39.281  50.378 -54.359  1.00  0.00    -0.084 Cl
HETATM   20  C   UNL     1     -39.892  51.859 -52.193  1.00  0.00     0.052 A 
ENDBRANCH  13  14
ENDBRANCH   9  13
ENDBRANCH   4   7
BRANCH   1  21
HETATM   21  N   UNL     1     -43.777  56.056 -57.049  1.00  0.00    -0.321 N 
HETATM   22  C   UNL     1     -44.087  57.032 -57.978  1.00  0.00     0.279 C 
HETATM   23  O   UNL     1     -43.897  58.235 -57.839  1.00  0.00    -0.265 OA
HETATM   24  H   UNL     1     -44.043  55.118 -57.330  1.00  0.00     0.169 HD
BRANCH  22  25
HETATM   25  C   UNL     1     -44.684  56.472 -59.181  1.00  0.00     0.142 A 
HETATM   26  O   UNL     1     -45.970  56.823 -59.518  1.00  0.00    -0.317 OA
HETATM   27  C   UNL     1     -46.283  56.152 -60.657  1.00  0.00     0.143 A 
HETATM   28  C   UNL     1     -45.224  55.378 -61.067  1.00  0.00     0.027 A 
HETATM   29  C   UNL     1     -44.193  55.584 -60.119  1.00  0.00     0.045 A 
ENDBRANCH  22  25
ENDBRANCH   1  21
TORSDOF 5
ENDMDL
MODEL 2
REMARK VINA RESULT:      -7.8      2.094      2.317
REMARK  5 active torsions:
REMARK  status: ('A' for Active; 'I' for Inactive)
REMARK    1  A    between atoms: C_4  and  C_5 
REMARK       I    between atoms: C_5  and  N_6 
REMARK    2  A    between atoms: N_6  and  C_7 
REMARK    3  A    between atoms: C_10  and  N_11 
REMARK       I    between atoms: N_11  and  C_12 
REMARK       I    between atoms: C_12  and  N_13 
REMARK    4  A    between atoms: N_13  and  C_14 
REMARK    5  A    between atoms: C_14  and  C_15 
ROOT
HETATM    1  C   UNL     1     -43.028  56.771 -56.682  1.00  0.00     0.035 A 
HETATM    2  C   UNL     1     -42.862  55.386 -56.621  1.00  0.00     0.032 A 
HETATM    3  C   UNL     1     -43.014  54.695 -55.404  1.00  0.00     0.032 A 
HETATM    4  C   UNL     1     -43.314  55.384 -54.230  1.00  0.00     0.036 A 
HETATM    5  C   UNL     1     -43.474  56.774 -54.299  1.00  0.00     0.032 A 
HETATM    6  C   UNL     1     -43.334  57.460 -55.507  1.00  0.00     0.032 A 
ENDROOT
BRANCH   4   7
HETATM    7  N   UNL     1     -43.533  54.807 -52.969  1.00  0.00    -0.309 N 
HETATM    8  C   UNL     1     -42.758  54.191 -52.048  1.00  0.00     0.321 C 
HETATM    9  N   UNL     1     -41.411  54.261 -52.151  1.00  0.00    -0.337 N 
HETATM   10  O   UNL     1     -43.315  53.600 -51.121  1.00  0.00    -0.247 OA
HETATM   11  H   UNL     1     -41.026  55.106 -52.549  1.00  0.00     0.164 HD
HETATM   12  H   UNL     1     -44.500  54.761 -52.671  1.00  0.00     0.170 HD
BRANCH   9  13
HETATM   13  C   UNL     1     -40.609  53.672 -51.098  1.00  0.00     0.183 C 
BRANCH  13  14
HETATM   14  C   UNL     1     -40.219  52.236 -51.361  1.00  0.00     0.053 A 
HETATM   15  N   UNL     1     -40.180  51.369 -50.314  1.00  0.00    -0.264 NA
HETATM   16  C   UNL     1     -39.854  50.083 -50.580  1.00  0.00     0.118 A 
HETATM   17  C   UNL     1     -39.582  49.604 -51.846  1.00  0.00     0.043 A 
HETATM   18  C   UNL     1     -39.648  50.503 -52.900  1.00  0.00     0.037 A 
HETATM   19 CL   UNL     1     -39.337  49.967 -54.506  1.00  0.00    -0.084 Cl
HETATM   20  C   UNL     1     -39.968  51.834 -52.669  1.00  0.00     0.052 A 
ENDBRANCH  13  14
ENDBRANCH   9  13
ENDBRANCH   4   7
BRANCH   1  21
HETATM   21  N   UNL     1     -42.943  57.536 -57.857  1.00  0.00    -0.321 N 
HETATM   22  C   UNL     1     -43.894  57.727 -58.842  1.00  0.00     0.279 C 
HETATM   23  O   UNL     1     -44.993  57.186 -58.887  1.00  0.00    -0.265 OA
HETATM   24  H   UNL     1     -42.078  58.045 -58.013  1.00  0.00     0.169 HD
BRANCH  22  25
HETATM   25  C   UNL     1     -43.447  58.665 -59.861  1.00  0.00     0.142 A 
HETATM   26  O   UNL     1     -44.382  59.359 -60.592  1.00  0.00    -0.317 OA
HETATM   27  C   UNL     1     -43.703  60.138 -61.474  1.00  0.00     0.143 A 
HETATM   28  C   UNL     1     -42.348  59.968 -61.324  1.00  0.00     0.027 A 
HETATM   29  C   UNL     1     -42.181  59.020 -60.285  1.00  0.00     0.045 A 
ENDBRANCH  22  25
ENDBRANCH   1  21
TORSDOF 5
ENDMDL
MODEL 3
REMARK VINA RESULT:      -7.5      4.511      7.639
REMARK  5 active torsions:
REMARK  status: ('A' for Active; 'I' for Inactive)
REMARK    1  A    between atoms: C_4  and  C_5 
REMARK       I    between atoms: C_5  and  N_6 
REMARK    2  A    between atoms: N_6  and  C_7 
REMARK    3  A    between atoms: C_10  and  N_11 
REMARK       I    between atoms: N_11  and  C_12 
REMARK       I    between atoms: C_12  and  N_13 
REMARK    4  A    between atoms: N_13  and  C_14 
REMARK    5  A    between atoms: C_14  and  C_15 
ROOT
HETATM    1  C   UNL     1     -43.785  59.469 -51.096  1.00  0.00     0.035 A 
HETATM    2  C   UNL     1     -42.668  59.925 -51.797  1.00  0.00     0.032 A 
HETATM    3  C   UNL     1     -42.359  59.416 -53.073  1.00  0.00     0.032 A 
HETATM    4  C   UNL     1     -43.153  58.428 -53.653  1.00  0.00     0.036 A 
HETATM    5  C   UNL     1     -44.270  57.972 -52.941  1.00  0.00     0.032 A 
HETATM    6  C   UNL     1     -44.584  58.484 -51.680  1.00  0.00     0.032 A 
ENDROOT
BRANCH   4   7
HETATM    7  N   UNL     1     -42.977  57.874 -54.931  1.00  0.00    -0.309 N 
HETATM    8  C   UNL     1     -42.318  56.803 -55.430  1.00  0.00     0.321 C 
HETATM    9  N   UNL     1     -41.849  55.854 -54.589  1.00  0.00    -0.337 N 
HETATM   10  O   UNL     1     -42.189  56.719 -56.652  1.00  0.00    -0.247 OA
HETATM   11  H   UNL     1     -42.384  55.683 -53.748  1.00  0.00     0.164 HD
HETATM   12  H   UNL     1     -43.365  58.411 -55.698  1.00  0.00     0.170 HD
BRANCH   9  13
HETATM   13  C   UNL     1     -41.232  54.674 -55.159  1.00  0.00     0.183 C 
BRANCH  13  14
HETATM   14  C   UNL     1     -40.694  53.710 -54.126  1.00  0.00     0.053 A 
HETATM   15  N   UNL     1     -40.622  54.116 -52.830  1.00  0.00    -0.264 NA
HETATM   16  C   UNL     1     -40.162  53.226 -51.921  1.00  0.00     0.118 A 
HETATM   17  C   UNL     1     -39.785  51.935 -52.232  1.00  0.00     0.043 A 
HETATM   18  C   UNL     1     -39.886  51.538 -53.557  1.00  0.00     0.037 A 
HETATM   19 CL   UNL     1     -39.448  49.936 -54.009  1.00  0.00    -0.084 Cl
HETATM   20  C   UNL     1     -40.343  52.424 -54.523  1.00  0.00     0.052 A 
ENDBRANCH  13  14
ENDBRANCH   9  13
ENDBRANCH   4   7
BRANCH   1  21
HETATM   21  N   UNL     1     -44.196  59.952 -49.842  1.00  0.00    -0.321 N 
HETATM   22  C   UNL     1     -45.363  60.612 -49.505  1.00  0.00     0.279 C 
HETATM   23  O   UNL     1     -46.241  60.956 -50.289  1.00  0.00    -0.265 OA
HETATM   24  H   UNL     1     -43.574  59.783 -49.058  1.00  0.00     0.169 HD
BRANCH  22  25
HETATM   25  C   UNL     1     -45.451  60.871 -48.076  1.00  0.00     0.142 A 
HETATM   26  O   UNL     1     -46.178  60.016 -47.282  1.00  0.00    -0.317 OA
HETATM   27  C   UNL     1     -46.113  60.495 -46.012  1.00  0.00     0.143 A 
HETATM   28  C   UNL     1     -45.353  61.639 -45.967  1.00  0.00     0.027 A 
HETATM   29  C   UNL     1     -44.926  61.883 -47.295  1.00  0.00     0.045 A 
ENDBRANCH  22  25
ENDBRANCH   1  21
TORSDOF 5
ENDMDL
MODEL 4
REMARK VINA RESULT:      -7.3     14.804     18.491
REMARK  5 active torsions:
REMARK  status: ('A' for Active; 'I' for Inactive)
REMARK    1  A    between atoms: C_4  and  C_5 
REMARK       I    between atoms: C_5  and  N_6 
REMARK    2  A    between atoms: N_6  and  C_7 
REMARK    3  A    between atoms: C_10  and  N_11 
REMARK       I    between atoms: N_11  and  C_12 
REMARK       I    between atoms: C_12  and  N_13 
REMARK    4  A    between atoms: N_13  and  C_14 
REMARK    5  A    between atoms: C_14  and  C_15 
ROOT
HETATM    1  C   UNL     1     -34.699  41.266 -54.853  1.00  0.00     0.035 A 
HETATM    2  C   UNL     1     -34.053  41.047 -56.071  1.00  0.00     0.032 A 
HETATM    3  C   UNL     1     -34.670  41.400 -57.287  1.00  0.00     0.032 A 
HETATM    4  C   UNL     1     -35.947  41.957 -57.299  1.00  0.00     0.036 A 
HETATM    5  C   UNL     1     -36.590  42.169 -56.072  1.00  0.00     0.032 A 
HETATM    6  C   UNL     1     -35.976  41.829 -54.865  1.00  0.00     0.032 A 
ENDROOT
BRANCH   4   7
HETATM    7  N   UNL     1     -36.647  42.390 -58.436  1.00  0.00    -0.309 N 
HETATM    8  C   UNL     1     -37.152  41.790 -59.538  1.00  0.00     0.321 C 
HETATM    9  N   UNL     1     -37.252  40.442 -59.581  1.00  0.00    -0.337 N 
HETATM   10  O   UNL     1     -37.532  42.505 -60.467  1.00  0.00    -0.247 OA
HETATM   11  H   UNL     1     -37.432  39.969 -58.706  1.00  0.00     0.164 HD
HETATM   12  H   UNL     1     -36.763  43.393 -58.523  1.00  0.00     0.170 HD
BRANCH   9  13
HETATM   13  C   UNL     1     -37.884  39.835 -60.734  1.00  0.00     0.183 C 
BRANCH  13  14
HETATM   14  C   UNL     1     -36.946  38.993 -61.568  1.00  0.00     0.053 A 
HETATM   15  N   UNL     1     -37.293  38.711 -62.853  1.00  0.00    -0.264 NA
HETATM   16  C   UNL     1     -36.424  37.979 -63.587  1.00  0.00     0.118 A 
HETATM   17  C   UNL     1     -35.209  37.524 -63.114  1.00  0.00     0.043 A 
HETATM   18  C   UNL     1     -34.870  37.842 -61.808  1.00  0.00     0.037 A 
HETATM   19 CL   UNL     1     -33.362  37.320 -61.162  1.00  0.00    -0.084 Cl
HETATM   20  C   UNL     1     -35.738  38.582 -61.017  1.00  0.00     0.052 A 
ENDBRANCH  13  14
ENDBRANCH   9  13
ENDBRANCH   4   7
BRANCH   1  21
HETATM   21  N   UNL     1     -34.143  40.990 -53.592  1.00  0.00    -0.321 N 
HETATM   22  C   UNL     1     -34.233  39.836 -52.836  1.00  0.00     0.279 C 
HETATM   23  O   UNL     1     -34.892  38.843 -53.125  1.00  0.00    -0.265 OA
HETATM   24  H   UNL     1     -33.577  41.719 -53.170  1.00  0.00     0.169 HD
BRANCH  22  25
HETATM   25  C   UNL     1     -33.442  39.917 -51.618  1.00  0.00     0.142 A 
HETATM   26  O   UNL     1     -32.161  39.417 -51.615  1.00  0.00    -0.317 OA
HETATM   27  C   UNL     1     -31.663  39.600 -50.365  1.00  0.00     0.143 A 
HETATM   28  C   UNL     1     -32.592  40.213 -49.559  1.00  0.00     0.027 A 
HETATM   29  C   UNL     1     -33.739  40.418 -50.365  1.00  0.00     0.045 A 
ENDBRANCH  22  25
ENDBRANCH   1  21
TORSDOF 5
ENDMDL
MODEL 5
REMARK VINA RESULT:      -7.3     14.633     16.160
REMARK  5 active torsions:
REMARK  status: ('A' for Active; 'I' for Inactive)
REMARK    1  A    between atoms: C_4  and  C_5 
REMARK       I    between atoms: C_5  and  N_6 
REMARK    2  A    between atoms: N_6  and  C_7 
REMARK    3  A    between atoms: C_10  and  N_11 
REMARK       I    between atoms: N_11  and  C_12 
REMARK       I    between atoms: C_12  and  N_13 
REMARK    4  A    between atoms: N_13  and  C_14 
REMARK    5  A    between atoms: C_14  and  C_15 
ROOT
HETATM    1  C   UNL     1     -37.708  40.593 -58.558  1.00  0.00     0.035 A 
HETATM    2  C   UNL     1     -36.519  41.325 -58.541  1.00  0.00     0.032 A 
HETATM    3  C   UNL     1     -36.079  41.958 -57.362  1.00  0.00     0.032 A 
HETATM    4  C   UNL     1     -36.834  41.883 -56.194  1.00  0.00     0.036 A 
HETATM    5  C   UNL     1     -38.028  41.151 -56.220  1.00  0.00     0.032 A 
HETATM    6  C   UNL     1     -38.461  40.514 -57.385  1.00  0.00     0.032 A 
ENDROOT
BRANCH   4   7
HETATM    7  N   UNL     1     -36.483  42.430 -54.949  1.00  0.00    -0.309 N 
HETATM    8  C   UNL     1     -36.280  41.935 -53.706  1.00  0.00     0.321 C 
HETATM    9  N   UNL     1     -36.157  40.600 -53.529  1.00  0.00    -0.337 N 
HETATM   10  O   UNL     1     -36.188  42.732 -52.771  1.00  0.00    -0.247 OA
HETATM   11  H   UNL     1     -35.732  40.075 -54.281  1.00  0.00     0.164 HD
HETATM   12  H   UNL     1     -36.423  43.440 -54.916  1.00  0.00     0.170 HD
BRANCH   9  13
HETATM   13  C   UNL     1     -35.846  40.108 -52.203  1.00  0.00     0.183 C 
BRANCH  13  14
HETATM   14  C   UNL     1     -34.366  40.067 -51.901  1.00  0.00     0.053 A 
HETATM   15  N   UNL     1     -33.487  40.098 -52.939  1.00  0.00    -0.264 NA
HETATM   16  C   UNL     1     -32.168  40.088 -52.642  1.00  0.00     0.118 A 
HETATM   17  C   UNL     1     -31.670  40.068 -51.354  1.00  0.00     0.043 A 
HETATM   18  C   UNL     1     -32.585  40.057 -50.312  1.00  0.00     0.037 A 
HETATM   19 CL   UNL     1     -32.030  40.050 -48.683  1.00  0.00    -0.084 Cl
HETATM   20  C   UNL     1     -33.948  40.056 -50.574  1.00  0.00     0.052 A 
ENDBRANCH  13  14
ENDBRANCH   9  13
ENDBRANCH   4   7
BRANCH   1  21
HETATM   21  N   UNL     1     -38.200  39.892 -59.671  1.00  0.00    -0.321 N 
HETATM   22  C   UNL     1     -37.498  39.215 -60.652  1.00  0.00     0.279 C 
HETATM   23  O   UNL     1     -36.277  39.166 -60.751  1.00  0.00    -0.265 OA
HETATM   24  H   UNL     1     -39.208  39.846 -59.777  1.00  0.00     0.169 HD
BRANCH  22  25
HETATM   25  C   UNL     1     -38.383  38.542 -61.592  1.00  0.00     0.142 A 
HETATM   26  O   UNL     1     -39.679  38.275 -61.220  1.00  0.00    -0.317 OA
HETATM   27  C   UNL     1     -40.270  37.633 -62.261  1.00  0.00     0.143 A 
HETATM   28  C   UNL     1     -39.385  37.484 -63.301  1.00  0.00     0.027 A 
HETATM   29  C   UNL     1     -38.169  38.070 -62.873  1.00  0.00     0.045 A 
ENDBRANCH  22  25
ENDBRANCH   1  21
TORSDOF 5
ENDMDL
MODEL 6
REMARK VINA RESULT:      -7.2      2.099      2.399
REMARK  5 active torsions:
REMARK  status: ('A' for Active; 'I' for Inactive)
REMARK    1  A    between atoms: C_4  and  C_5 
REMARK       I    between atoms: C_5  and  N_6 
REMARK    2  A    between atoms: N_6  and  C_7 
REMARK    3  A    between atoms: C_10  and  N_11 
REMARK       I    between atoms: N_11  and  C_12 
REMARK       I    between atoms: C_12  and  N_13 
REMARK    4  A    between atoms: N_13  and  C_14 
REMARK    5  A    between atoms: C_14  and  C_15 
ROOT
HETATM    1  C   UNL     1     -42.831  57.726 -53.455  1.00  0.00     0.035 A 
HETATM    2  C   UNL     1     -41.502  57.937 -53.087  1.00  0.00     0.032 A 
HETATM    3  C   UNL     1     -41.017  57.487 -51.844  1.00  0.00     0.032 A 
HETATM    4  C   UNL     1     -41.864  56.838 -50.947  1.00  0.00     0.036 A 
HETATM    5  C   UNL     1     -43.198  56.634 -51.321  1.00  0.00     0.032 A 
HETATM    6  C   UNL     1     -43.677  57.071 -52.558  1.00  0.00     0.032 A 
ENDROOT
BRANCH   4   7
HETATM    7  N   UNL     1     -41.493  56.305 -49.702  1.00  0.00    -0.309 N 
HETATM    8  C   UNL     1     -41.153  55.077 -49.247  1.00  0.00     0.321 C 
HETATM    9  N   UNL     1     -40.871  54.090 -50.128  1.00  0.00    -0.337 N 
HETATM   10  O   UNL     1     -41.088  54.906 -48.029  1.00  0.00    -0.247 OA
HETATM   11  H   UNL     1     -40.442  54.365 -51.001  1.00  0.00     0.164 HD
HETATM   12  H   UNL     1     -41.544  56.945 -48.919  1.00  0.00     0.170 HD
BRANCH   9  13
HETATM   13  C   UNL     1     -40.419  52.815 -49.612  1.00  0.00     0.183 C 
BRANCH  13  14
HETATM   14  C   UNL     1     -40.118  51.796 -50.687  1.00  0.00     0.053 A 
HETATM   15  N   UNL     1     -39.936  50.498 -50.322  1.00  0.00    -0.264 NA
HETATM   16  C   UNL     1     -39.695  49.601 -51.305  1.00  0.00     0.118 A 
HETATM   17  C   UNL     1     -39.644  49.925 -52.647  1.00  0.00     0.043 A 
HETATM   18  C   UNL     1     -39.853  51.251 -52.995  1.00  0.00     0.037 A 
HETATM   19 CL   UNL     1     -39.820  51.718 -54.651  1.00  0.00    -0.084 Cl
HETATM   20  C   UNL     1     -40.093  52.205 -52.015  1.00  0.00     0.052 A 
ENDBRANCH  13  14
ENDBRANCH   9  13
ENDBRANCH   4   7
BRANCH   1  21
HETATM   21  N   UNL     1     -43.389  58.097 -54.690  1.00  0.00    -0.321 N 
HETATM   22  C   UNL     1     -43.060  57.659 -55.960  1.00  0.00     0.279 C 
HETATM   23  O   UNL     1     -42.146  56.889 -56.235  1.00  0.00    -0.265 OA
HETATM   24  H   UNL     1     -44.155  58.763 -54.668  1.00  0.00     0.169 HD
BRANCH  22  25
HETATM   25  C   UNL     1     -43.934  58.224 -56.977  1.00  0.00     0.142 A 
HETATM   26  O   UNL     1     -45.270  57.900 -56.969  1.00  0.00    -0.317 OA
HETATM   27  C   UNL     1     -45.843  58.537 -58.023  1.00  0.00     0.143 A 
HETATM   28  C   UNL     1     -44.907  59.272 -58.709  1.00  0.00     0.027 A 
HETATM   29  C   UNL     1     -43.676  59.072 -58.037  1.00  0.00     0.045 A 
ENDBRANCH  22  25
ENDBRANCH   1  21
TORSDOF 5
ENDMDL
MODEL 7
REMARK VINA RESULT:      -7.2      3.462      8.971
REMARK  5 active torsions:
REMARK  status: ('A' for Active; 'I' for Inactive)
REMARK    1  A    between atoms: C_4  and  C_5 
REMARK       I    between atoms: C_5  and  N_6 
REMARK    2  A    between atoms: N_6  and  C_7 
REMARK    3  A    between atoms: C_10  and  N_11 
REMARK       I    between atoms: N_11  and  C_12 
REMARK       I    between atoms: C_12  and  N_13 
REMARK    4  A    between atoms: N_13  and  C_14 
REMARK    5  A    between atoms: C_14  and  C_15 
ROOT
HETATM    1  C   UNL     1     -42.036  54.585 -53.453  1.00  0.00     0.035 A 
HETATM    2  C   UNL     1     -41.442  55.830 -53.244  1.00  0.00     0.032 A 
HETATM    3  C   UNL     1     -42.130  57.019 -53.556  1.00  0.00     0.032 A 
HETATM    4  C   UNL     1     -43.412  56.973 -54.101  1.00  0.00     0.036 A 
HETATM    5  C   UNL     1     -44.000  55.720 -54.312  1.00  0.00     0.032 A 
HETATM    6  C   UNL     1     -43.323  54.540 -53.994  1.00  0.00     0.032 A 
ENDROOT
BRANCH   4   7
HETATM    7  N   UNL     1     -44.215  58.082 -54.412  1.00  0.00    -0.309 N 
HETATM    8  C   UNL     1     -44.702  58.625 -55.551  1.00  0.00     0.321 C 
HETATM    9  N   UNL     1     -44.644  57.923 -56.706  1.00  0.00    -0.337 N 
HETATM   10  O   UNL     1     -45.210  59.746 -55.490  1.00  0.00    -0.247 OA
HETATM   11  H   UNL     1     -44.723  56.917 -56.634  1.00  0.00     0.164 HD
HETATM   12  H   UNL     1     -44.453  58.683 -53.632  1.00  0.00     0.170 HD
BRANCH   9  13
HETATM   13  C   UNL     1     -45.259  58.491 -57.888  1.00  0.00     0.183 C 
BRANCH  13  14
HETATM   14  C   UNL     1     -45.448  57.498 -59.011  1.00  0.00     0.053 A 
HETATM   15  N   UNL     1     -44.477  56.571 -59.234  1.00  0.00    -0.264 NA
HETATM   16  C   UNL     1     -44.683  55.677 -60.227  1.00  0.00     0.118 A 
HETATM   17  C   UNL     1     -45.823  55.641 -61.007  1.00  0.00     0.043 A 
HETATM   18  C   UNL     1     -46.807  56.584 -60.748  1.00  0.00     0.037 A 
HETATM   19 CL   UNL     1     -48.259  56.583 -61.672  1.00  0.00    -0.084 Cl
HETATM   20  C   UNL     1     -46.630  57.526 -59.744  1.00  0.00     0.052 A 
ENDBRANCH  13  14
ENDBRANCH   9  13
ENDBRANCH   4   7
BRANCH   1  21
HETATM   21  N   UNL     1     -41.446  53.352 -53.128  1.00  0.00    -0.321 N 
HETATM   22  C   UNL     1     -40.415  52.687 -53.766  1.00  0.00     0.279 C 
HETATM   23  O   UNL     1     -39.865  53.048 -54.800  1.00  0.00    -0.265 OA
HETATM   24  H   UNL     1     -41.796  52.878 -52.302  1.00  0.00     0.169 HD
BRANCH  22  25
HETATM   25  C   UNL     1     -40.033  51.470 -53.066  1.00  0.00     0.142 A 
HETATM   26  O   UNL     1     -39.798  51.520 -51.712  1.00  0.00    -0.317 OA
HETATM   27  C   UNL     1     -39.443  50.269 -51.320  1.00  0.00     0.143 A 
HETATM   28  C   UNL     1     -39.450  49.408 -52.391  1.00  0.00     0.027 A 
HETATM   29  C   UNL     1     -39.830  50.180 -53.516  1.00  0.00     0.045 A 
ENDBRANCH  22  25
ENDBRANCH   1  21
TORSDOF 5
ENDMDL
MODEL 8
REMARK VINA RESULT:      -7.2      5.988      9.136
REMARK  5 active torsions:
REMARK  status: ('A' for Active; 'I' for Inactive)
REMARK    1  A    between atoms: C_4  and  C_5 
REMARK       I    between atoms: C_5  and  N_6 
REMARK    2  A    between atoms: N_6  and  C_7 
REMARK    3  A    between atoms: C_10  and  N_11 
REMARK       I    between atoms: N_11  and  C_12 
REMARK       I    between atoms: C_12  and  N_13 
REMARK    4  A    between atoms: N_13  and  C_14 
REMARK    5  A    between atoms: C_14  and  C_15 
ROOT
HETATM    1  C   UNL     1     -41.143  56.370 -52.175  1.00  0.00     0.035 A 
HETATM    2  C   UNL     1     -41.481  57.333 -53.127  1.00  0.00     0.032 A 
HETATM    3  C   UNL     1     -41.725  58.668 -52.748  1.00  0.00     0.032 A 
HETATM    4  C   UNL     1     -41.655  59.048 -51.409  1.00  0.00     0.036 A 
HETATM    5  C   UNL     1     -41.320  58.075 -50.459  1.00  0.00     0.032 A 
HETATM    6  C   UNL     1     -41.067  56.753 -50.834  1.00  0.00     0.032 A 
ENDROOT
BRANCH   4   7
HETATM    7  N   UNL     1     -41.832  60.349 -50.911  1.00  0.00    -0.309 N 
HETATM    8  C   UNL     1     -42.899  61.122 -50.605  1.00  0.00     0.321 C 
HETATM    9  N   UNL     1     -44.128  60.564 -50.521  1.00  0.00    -0.337 N 
HETATM   10  O   UNL     1     -42.705  62.319 -50.386  1.00  0.00    -0.247 OA
HETATM   11  H   UNL     1     -44.176  59.608 -50.196  1.00  0.00     0.164 HD
HETATM   12  H   UNL     1     -40.986  60.896 -50.806  1.00  0.00     0.170 HD
BRANCH   9  13
HETATM   13  C   UNL     1     -45.234  61.398 -50.098  1.00  0.00     0.183 C 
BRANCH  13  14
HETATM   14  C   UNL     1     -45.442  61.420 -48.601  1.00  0.00     0.053 A 
HETATM   15  N   UNL     1     -45.870  60.285 -47.985  1.00  0.00    -0.264 NA
HETATM   16  C   UNL     1     -46.022  60.323 -46.642  1.00  0.00     0.118 A 
HETATM   17  C   UNL     1     -45.749  61.434 -45.868  1.00  0.00     0.043 A 
HETATM   18  C   UNL     1     -45.295  62.572 -46.517  1.00  0.00     0.037 A 
HETATM   19 CL   UNL     1     -44.920  63.985 -45.608  1.00  0.00    -0.084 Cl
HETATM   20  C   UNL     1     -45.135  62.579 -47.895  1.00  0.00     0.052 A 
ENDBRANCH  13  14
ENDBRANCH   9  13
ENDBRANCH   4   7
BRANCH   1  21
HETATM   21  N   UNL     1     -40.838  55.030 -52.465  1.00  0.00    -0.321 N 
HETATM   22  C   UNL     1     -41.600  54.090 -53.133  1.00  0.00     0.279 C 
HETATM   23  O   UNL     1     -42.742  54.258 -53.544  1.00  0.00    -0.265 OA
HETATM   24  H   UNL     1     -39.927  54.692 -52.172  1.00  0.00     0.169 HD
BRANCH  22  25
HETATM   25  C   UNL     1     -40.889  52.832 -53.306  1.00  0.00     0.142 A 
HETATM   26  O   UNL     1     -40.079  52.374 -52.294  1.00  0.00    -0.317 OA
HETATM   27  C   UNL     1     -39.528  51.208 -52.719  1.00  0.00     0.143 A 
HETATM   28  C   UNL     1     -39.969  50.897 -53.982  1.00  0.00     0.027 A 
HETATM   29  C   UNL     1     -40.846  51.942 -54.362  1.00  0.00     0.045 A 
ENDBRANCH  22  25
ENDBRANCH   1  21
TORSDOF 5
ENDMDL
MODEL 9
REMARK VINA RESULT:      -7.1      2.814      8.786
REMARK  5 active torsions:
REMARK  status: ('A' for Active; 'I' for Inactive)
REMARK    1  A    between atoms: C_4  and  C_5 
REMARK       I    between atoms: C_5  and  N_6 
REMARK    2  A    between atoms: N_6  and  C_7 
REMARK    3  A    between atoms: C_10  and  N_11 
REMARK       I    between atoms: N_11  and  C_12 
REMARK       I    between atoms: C_12  and  N_13 
REMARK    4  A    between atoms: N_13  and  C_14 
REMARK    5  A    between atoms: C_14  and  C_15 
ROOT
HETATM    1  C   UNL     1     -41.513  54.752 -52.667  1.00  0.00     0.035 A 
HETATM    2  C   UNL     1     -42.614  55.264 -51.978  1.00  0.00     0.032 A 
HETATM    3  C   UNL     1     -43.091  56.562 -52.244  1.00  0.00     0.032 A 
HETATM    4  C   UNL     1     -42.458  57.369 -53.188  1.00  0.00     0.036 A 
HETATM    5  C   UNL     1     -41.352  56.850 -53.871  1.00  0.00     0.032 A 
HETATM    6  C   UNL     1     -40.884  55.559 -53.616  1.00  0.00     0.032 A 
ENDROOT
BRANCH   4   7
HETATM    7  N   UNL     1     -42.862  58.658 -53.573  1.00  0.00    -0.309 N 
HETATM    8  C   UNL     1     -43.614  59.168 -54.576  1.00  0.00     0.321 C 
HETATM    9  N   UNL     1     -44.374  58.342 -55.330  1.00  0.00    -0.337 N 
HETATM   10  O   UNL     1     -43.597  60.387 -54.752  1.00  0.00    -0.247 OA
HETATM   11  H   UNL     1     -44.756  57.526 -54.872  1.00  0.00     0.164 HD
HETATM   12  H   UNL     1     -42.463  59.420 -53.039  1.00  0.00     0.170 HD
BRANCH   9  13
HETATM   13  C   UNL     1     -45.240  58.928 -56.333  1.00  0.00     0.183 C 
BRANCH  13  14
HETATM   14  C   UNL     1     -45.431  58.058 -57.554  1.00  0.00     0.053 A 
HETATM   15  N   UNL     1     -46.656  58.025 -58.145  1.00  0.00    -0.264 NA
HETATM   16  C   UNL     1     -46.794  57.260 -59.252  1.00  0.00     0.118 A 
HETATM   17  C   UNL     1     -45.765  56.535 -59.820  1.00  0.00     0.043 A 
HETATM   18  C   UNL     1     -44.521  56.601 -59.210  1.00  0.00     0.037 A 
HETATM   19 CL   UNL     1     -43.192  55.735 -59.878  1.00  0.00    -0.084 Cl
HETATM   20  C   UNL     1     -44.339  57.366 -58.066  1.00  0.00     0.052 A 
ENDBRANCH  13  14
ENDBRANCH   9  13
ENDBRANCH   4   7
BRANCH   1  21
HETATM   21  N   UNL     1     -40.998  53.455 -52.502  1.00  0.00    -0.321 N 
HETATM   22  C   UNL     1     -40.118  52.984 -51.545  1.00  0.00     0.279 C 
HETATM   23  O   UNL     1     -39.569  53.664 -50.685  1.00  0.00    -0.265 OA
HETATM   24  H   UNL     1     -41.322  52.746 -53.152  1.00  0.00     0.169 HD
BRANCH  22  25
HETATM   25  C   UNL     1     -39.896  51.551 -51.664  1.00  0.00     0.142 A 
HETATM   26  O   UNL     1     -39.726  50.999 -52.912  1.00  0.00    -0.317 OA
HETATM   27  C   UNL     1     -39.560  49.662 -52.739  1.00  0.00     0.143 A 
HETATM   28  C   UNL     1     -39.612  49.338 -51.405  1.00  0.00     0.027 A 
HETATM   29  C   UNL     1     -39.827  50.553 -50.710  1.00  0.00     0.045 A 
ENDBRANCH  22  25
ENDBRANCH   1  21
TORSDOF 5
ENDMDL
MODEL 10
REMARK VINA RESULT:      -6.9     14.563     16.167
REMARK  5 active torsions:
REMARK  status: ('A' for Active; 'I' for Inactive)
REMARK    1  A    between atoms: C_4  and  C_5 
REMARK       I    between atoms: C_5  and  N_6 
REMARK    2  A    between atoms: N_6  and  C_7 
REMARK    3  A    between atoms: C_10  and  N_11 
REMARK       I    between atoms: N_11  and  C_12 
REMARK       I    between atoms: C_12  and  N_13 
REMARK    4  A    between atoms: N_13  and  C_14 
REMARK    5  A    between atoms: C_14  and  C_15 
ROOT
HETATM    1  C   UNL     1     -37.848  40.643 -58.295  1.00  0.00     0.035 A 
HETATM    2  C   UNL     1     -36.645  41.345 -58.376  1.00  0.00     0.032 A 
HETATM    3  C   UNL     1     -36.124  42.013 -57.251  1.00  0.00     0.032 A 
HETATM    4  C   UNL     1     -36.811  42.002 -56.039  1.00  0.00     0.036 A 
HETATM    5  C   UNL     1     -38.021  41.299 -55.967  1.00  0.00     0.032 A 
HETATM    6  C   UNL     1     -38.534  40.628 -57.079  1.00  0.00     0.032 A 
ENDROOT
BRANCH   4   7
HETATM    7  N   UNL     1     -36.377  42.589 -54.839  1.00  0.00    -0.309 N 
HETATM    8  C   UNL     1     -35.653  42.173 -53.775  1.00  0.00     0.321 C 
HETATM    9  N   UNL     1     -34.958  41.014 -53.849  1.00  0.00    -0.337 N 
HETATM   10  O   UNL     1     -35.632  42.887 -52.771  1.00  0.00    -0.247 OA
HETATM   11  H   UNL     1     -34.587  40.760 -54.754  1.00  0.00     0.164 HD
HETATM   12  H   UNL     1     -36.723  43.523 -54.658  1.00  0.00     0.170 HD
BRANCH   9  13
HETATM   13  C   UNL     1     -34.117  40.644 -52.729  1.00  0.00     0.183 C 
BRANCH  13  14
HETATM   14  C   UNL     1     -34.714  39.570 -51.850  1.00  0.00     0.053 A 
HETATM   15  N   UNL     1     -34.384  38.272 -52.090  1.00  0.00    -0.264 NA
HETATM   16  C   UNL     1     -34.910  37.332 -51.272  1.00  0.00     0.118 A 
HETATM   17  C   UNL     1     -35.739  37.617 -50.205  1.00  0.00     0.043 A 
HETATM   18  C   UNL     1     -36.044  38.949 -49.968  1.00  0.00     0.037 A 
HETATM   19 CL   UNL     1     -37.058  39.374 -48.643  1.00  0.00    -0.084 Cl
HETATM   20  C   UNL     1     -35.534  39.944 -50.791  1.00  0.00     0.052 A 
ENDBRANCH  13  14
ENDBRANCH   9  13
ENDBRANCH   4   7
BRANCH   1  21
HETATM   21  N   UNL     1     -38.419  39.910 -59.350  1.00  0.00    -0.321 N 
HETATM   22  C   UNL     1     -38.513  38.540 -59.506  1.00  0.00     0.279 C 
HETATM   23  O   UNL     1     -38.038  37.701 -58.748  1.00  0.00    -0.265 OA
HETATM   24  H   UNL     1     -38.846  40.443 -60.101  1.00  0.00     0.169 HD
BRANCH  22  25
HETATM   25  C   UNL     1     -39.257  38.175 -60.702  1.00  0.00     0.142 A 
HETATM   26  O   UNL     1     -38.586  38.039 -61.894  1.00  0.00    -0.317 OA
HETATM   27  C   UNL     1     -39.508  37.718 -62.838  1.00  0.00     0.143 A 
HETATM   28  C   UNL     1     -40.762  37.638 -62.281  1.00  0.00     0.027 A 
HETATM   29  C   UNL     1     -40.602  37.931 -60.905  1.00  0.00     0.045 A 
ENDBRANCH  22  25
ENDBRANCH   1  21
TORSDOF 5
ENDMDL
