MODEL 1
REMARK VINA RESULT:      -7.8      0.000      0.000
REMARK  7 active torsions:
REMARK  status: ('A' for Active; 'I' for Inactive)
REMARK    1  A    between atoms: C_2  and  O_3 
REMARK    2  A    between atoms: O_3  and  C_4 
REMARK    3  A    between atoms: C_4  and  C_5 
REMARK    4  A    between atoms: C_10  and  N_11 
REMARK       I    between atoms: N_11  and  C_12 
REMARK       I    between atoms: C_12  and  N_13 
REMARK    5  A    between atoms: N_13  and  N_14 
REMARK       I    between atoms: N_14  and  C_15 
REMARK    6  A    between atoms: C_15  and  C_16 
REMARK    7  A    between atoms: C_19  and  O_20 
ROOT
HETATM    1  N   UNL     1     -41.121  54.983 -55.446  1.00  0.00    -0.293 N 
HETATM    2  C   UNL     1     -42.358  54.923 -56.056  1.00  0.00     0.340 C 
HETATM    3  N   UNL     1     -42.506  55.921 -57.004  1.00  0.00    -0.249 N 
HETATM    4  O   UNL     1     -43.258  54.127 -55.790  1.00  0.00    -0.245 OA
HETATM    5  H   UNL     1     -40.498  55.735 -55.702  1.00  0.00     0.172 HD
HETATM    6  H   UNL     1     -41.685  56.262 -57.501  1.00  0.00     0.192 HD
ENDROOT
BRANCH   1   7
HETATM    7  C   UNL     1     -40.739  54.146 -54.417  1.00  0.00     0.116 A 
HETATM    8  N   UNL     1     -40.279  52.875 -54.631  1.00  0.00    -0.345 N 
HETATM    9  C   UNL     1     -40.011  52.259 -53.436  1.00  0.00     0.024 A 
HETATM   10  H   UNL     1     -40.183  52.464 -55.554  1.00  0.00     0.167 HD
HETATM   11  C   UNL     1     -40.308  53.155 -52.412  1.00  0.00     0.071 A 
HETATM   12  C   UNL     1     -39.512  50.859 -53.395  1.00  0.00     0.069 C 
HETATM   13  C   UNL     1     -40.748  54.378 -53.052  1.00  0.00     0.000 A 
HETATM   14  C   UNL     1     -41.153  55.639 -52.369  1.00  0.00     0.053 C 
BRANCH  11  15
HETATM   15  C   UNL     1     -40.185  52.848 -50.980  1.00  0.00     0.295 C 
HETATM   16  O   UNL     1     -40.618  51.823 -50.466  1.00  0.00    -0.259 OA
BRANCH  15  17
HETATM   17  O   UNL     1     -39.549  53.834 -50.280  1.00  0.00    -0.318 OA
BRANCH  17  18
HETATM   18  C   UNL     1     -39.947  53.995 -48.913  1.00  0.00     0.174 C 
HETATM   19  C   UNL     1     -41.116  54.956 -48.813  1.00  0.00     0.034 C 
ENDBRANCH  17  18
ENDBRANCH  15  17
ENDBRANCH  11  15
ENDBRANCH   1   7
BRANCH   3  20
HETATM   20  N   UNL     1     -43.678  55.923 -57.778  1.00  0.00    -0.262 N 
HETATM   21  C   UNL     1     -43.843  56.970 -58.664  1.00  0.00     0.270 C 
HETATM   22  O   UNL     1     -43.026  57.885 -58.746  1.00  0.00    -0.266 OA
HETATM   23  H   UNL     1     -44.172  55.034 -57.846  1.00  0.00     0.190 HD
BRANCH  21  24
HETATM   24  C   UNL     1     -45.049  56.943 -59.539  1.00  0.00     0.033 A 
HETATM   25  C   UNL     1     -45.526  55.771 -60.134  1.00  0.00     0.020 A 
HETATM   26  C   UNL     1     -46.686  55.809 -60.915  1.00  0.00     0.038 A 
HETATM   27  C   UNL     1     -47.386  57.004 -61.103  1.00  0.00     0.068 A 
HETATM   28  C   UNL     1     -46.912  58.174 -60.510  1.00  0.00     0.038 A 
HETATM   29  C   UNL     1     -45.750  58.141 -59.729  1.00  0.00     0.020 A 
BRANCH  27  30
HETATM   30  O   UNL     1     -48.507  56.895 -61.878  1.00  0.00    -0.356 OA
HETATM   31  C   UNL     1     -49.021  58.097 -62.439  1.00  0.00     0.210 C 
ENDBRANCH  27  30
ENDBRANCH  21  24
ENDBRANCH   3  20
TORSDOF 7
ENDMDL
MODEL 2
REMARK VINA RESULT:      -7.7      2.712      3.588
REMARK  7 active torsions:
REMARK  status: ('A' for Active; 'I' for Inactive)
REMARK    1  A    between atoms: C_2  and  O_3 
REMARK    2  A    between atoms: O_3  and  C_4 
REMARK    3  A    between atoms: C_4  and  C_5 
REMARK    4  A    between atoms: C_10  and  N_11 
REMARK       I    between atoms: N_11  and  C_12 
REMARK       I    between atoms: C_12  and  N_13 
REMARK    5  A    between atoms: N_13  and  N_14 
REMARK       I    between atoms: N_14  and  C_15 
REMARK    6  A    between atoms: C_15  and  C_16 
REMARK    7  A    between atoms: C_19  and  O_20 
ROOT
HETATM    1  N   UNL     1     -43.200  54.589 -55.677  1.00  0.00    -0.293 N 
HETATM    2  C   UNL     1     -43.106  55.838 -56.259  1.00  0.00     0.340 C 
HETATM    3  N   UNL     1     -43.488  55.808 -57.589  1.00  0.00    -0.249 N 
HETATM    4  O   UNL     1     -42.697  56.862 -55.712  1.00  0.00    -0.245 OA
HETATM    5  H   UNL     1     -43.478  53.811 -56.257  1.00  0.00     0.172 HD
HETATM    6  H   UNL     1     -44.189  55.134 -57.891  1.00  0.00     0.192 HD
ENDROOT
BRANCH   1   7
HETATM    7  C   UNL     1     -42.816  54.325 -54.377  1.00  0.00     0.116 A 
HETATM    8  N   UNL     1     -43.644  54.528 -53.307  1.00  0.00    -0.345 N 
HETATM    9  C   UNL     1     -42.995  54.221 -52.140  1.00  0.00     0.024 A 
HETATM   10  H   UNL     1     -44.592  54.880 -53.393  1.00  0.00     0.167 HD
HETATM   11  C   UNL     1     -41.703  53.808 -52.459  1.00  0.00     0.071 A 
HETATM   12  C   UNL     1     -43.676  54.373 -50.826  1.00  0.00     0.069 C 
HETATM   13  C   UNL     1     -41.606  53.849 -53.903  1.00  0.00     0.000 A 
HETATM   14  C   UNL     1     -40.419  53.471 -54.722  1.00  0.00     0.053 C 
BRANCH  11  15
HETATM   15  C   UNL     1     -40.686  53.428 -51.468  1.00  0.00     0.295 C 
HETATM   16  O   UNL     1     -40.292  52.279 -51.306  1.00  0.00    -0.259 OA
BRANCH  15  17
HETATM   17  O   UNL     1     -40.240  54.491 -50.736  1.00  0.00    -0.318 OA
BRANCH  17  18
HETATM   18  C   UNL     1     -39.606  54.178 -49.489  1.00  0.00     0.174 C 
HETATM   19  C   UNL     1     -40.605  54.276 -48.351  1.00  0.00     0.034 C 
ENDBRANCH  17  18
ENDBRANCH  15  17
ENDBRANCH  11  15
ENDBRANCH   1   7
BRANCH   3  20
HETATM   20  N   UNL     1     -43.540  57.028 -58.285  1.00  0.00    -0.262 N 
HETATM   21  C   UNL     1     -42.956  57.062 -59.536  1.00  0.00     0.270 C 
HETATM   22  O   UNL     1     -42.379  56.084 -60.009  1.00  0.00    -0.266 OA
HETATM   23  H   UNL     1     -44.232  57.700 -57.959  1.00  0.00     0.190 HD
BRANCH  21  24
HETATM   24  C   UNL     1     -43.066  58.330 -60.309  1.00  0.00     0.033 A 
HETATM   25  C   UNL     1     -44.292  58.946 -60.582  1.00  0.00     0.020 A 
HETATM   26  C   UNL     1     -44.323  60.156 -61.283  1.00  0.00     0.038 A 
HETATM   27  C   UNL     1     -43.141  60.770 -61.708  1.00  0.00     0.068 A 
HETATM   28  C   UNL     1     -41.918  60.158 -61.435  1.00  0.00     0.038 A 
HETATM   29  C   UNL     1     -41.882  58.945 -60.737  1.00  0.00     0.020 A 
BRANCH  27  30
HETATM   30  O   UNL     1     -43.317  61.954 -62.369  1.00  0.00    -0.356 OA
HETATM   31  C   UNL     1     -42.554  62.147 -63.554  1.00  0.00     0.210 C 
ENDBRANCH  27  30
ENDBRANCH  21  24
ENDBRANCH   3  20
TORSDOF 7
ENDMDL
MODEL 3
REMARK VINA RESULT:      -7.6      1.877     10.429
REMARK  7 active torsions:
REMARK  status: ('A' for Active; 'I' for Inactive)
REMARK    1  A    between atoms: C_2  and  O_3 
REMARK    2  A    between atoms: O_3  and  C_4 
REMARK    3  A    between atoms: C_4  and  C_5 
REMARK    4  A    between atoms: C_10  and  N_11 
REMARK       I    between atoms: N_11  and  C_12 
REMARK       I    between atoms: C_12  and  N_13 
REMARK    5  A    between atoms: N_13  and  N_14 
REMARK       I    between atoms: N_14  and  C_15 
REMARK    6  A    between atoms: C_15  and  C_16 
REMARK    7  A    between atoms: C_19  and  O_20 
ROOT
HETATM    1  N   UNL     1     -43.149  57.104 -57.144  1.00  0.00    -0.293 N 
HETATM    2  C   UNL     1     -42.749  55.861 -56.695  1.00  0.00     0.340 C 
HETATM    3  N   UNL     1     -41.486  55.908 -56.130  1.00  0.00    -0.249 N 
HETATM    4  O   UNL     1     -43.385  54.813 -56.803  1.00  0.00    -0.245 OA
HETATM    5  H   UNL     1     -42.500  57.872 -57.065  1.00  0.00     0.172 HD
HETATM    6  H   UNL     1     -41.177  56.762 -55.671  1.00  0.00     0.192 HD
ENDROOT
BRANCH   1   7
HETATM    7  C   UNL     1     -44.339  57.325 -57.808  1.00  0.00     0.116 A 
HETATM    8  N   UNL     1     -45.383  58.007 -57.246  1.00  0.00    -0.345 N 
HETATM    9  C   UNL     1     -46.446  58.044 -58.110  1.00  0.00     0.024 A 
HETATM   10  H   UNL     1     -45.354  58.399 -56.310  1.00  0.00     0.167 HD
HETATM   11  C   UNL     1     -46.085  57.363 -59.270  1.00  0.00     0.071 A 
HETATM   12  C   UNL     1     -47.716  58.717 -57.727  1.00  0.00     0.069 C 
HETATM   13  C   UNL     1     -44.717  56.928 -59.080  1.00  0.00     0.000 A 
HETATM   14  C   UNL     1     -43.882  56.178 -60.061  1.00  0.00     0.053 C 
BRANCH  11  15
HETATM   15  C   UNL     1     -46.976  57.155 -60.420  1.00  0.00     0.295 C 
HETATM   16  O   UNL     1     -47.562  56.102 -60.643  1.00  0.00    -0.259 OA
BRANCH  15  17
HETATM   17  O   UNL     1     -47.068  58.256 -61.223  1.00  0.00    -0.318 OA
BRANCH  17  18
HETATM   18  C   UNL     1     -48.367  58.541 -61.758  1.00  0.00     0.174 C 
HETATM   19  C   UNL     1     -48.898  59.844 -61.190  1.00  0.00     0.034 C 
ENDBRANCH  17  18
ENDBRANCH  15  17
ENDBRANCH  11  15
ENDBRANCH   1   7
BRANCH   3  20
HETATM   20  N   UNL     1     -40.988  54.735 -55.537  1.00  0.00    -0.262 N 
HETATM   21  C   UNL     1     -40.900  54.718 -54.158  1.00  0.00     0.270 C 
HETATM   22  O   UNL     1     -41.202  55.696 -53.478  1.00  0.00    -0.266 OA
HETATM   23  H   UNL     1     -40.998  53.899 -56.119  1.00  0.00     0.190 HD
BRANCH  21  24
HETATM   24  C   UNL     1     -40.438  53.455 -53.517  1.00  0.00     0.033 A 
HETATM   25  C   UNL     1     -40.275  53.324 -52.135  1.00  0.00     0.020 A 
HETATM   26  C   UNL     1     -39.873  52.098 -51.594  1.00  0.00     0.038 A 
HETATM   27  C   UNL     1     -39.641  50.992 -52.417  1.00  0.00     0.068 A 
HETATM   28  C   UNL     1     -39.805  51.121 -53.795  1.00  0.00     0.038 A 
HETATM   29  C   UNL     1     -40.205  52.347 -54.342  1.00  0.00     0.020 A 
BRANCH  27  30
HETATM   30  O   UNL     1     -39.267  49.855 -51.755  1.00  0.00    -0.356 OA
HETATM   31  C   UNL     1     -39.847  49.637 -50.475  1.00  0.00     0.210 C 
ENDBRANCH  27  30
ENDBRANCH  21  24
ENDBRANCH   3  20
TORSDOF 7
ENDMDL
MODEL 4
REMARK VINA RESULT:      -7.6      1.258      2.593
REMARK  7 active torsions:
REMARK  status: ('A' for Active; 'I' for Inactive)
REMARK    1  A    between atoms: C_2  and  O_3 
REMARK    2  A    between atoms: O_3  and  C_4 
REMARK    3  A    between atoms: C_4  and  C_5 
REMARK    4  A    between atoms: C_10  and  N_11 
REMARK       I    between atoms: N_11  and  C_12 
REMARK       I    between atoms: C_12  and  N_13 
REMARK    5  A    between atoms: N_13  and  N_14 
REMARK       I    between atoms: N_14  and  C_15 
REMARK    6  A    between atoms: C_15  and  C_16 
REMARK    7  A    between atoms: C_19  and  O_20 
ROOT
HETATM    1  N   UNL     1     -41.294  54.946 -55.503  1.00  0.00    -0.293 N 
HETATM    2  C   UNL     1     -42.463  55.550 -55.922  1.00  0.00     0.340 C 
HETATM    3  N   UNL     1     -42.390  55.932 -57.251  1.00  0.00    -0.249 N 
HETATM    4  O   UNL     1     -43.450  55.778 -55.223  1.00  0.00    -0.245 OA
HETATM    5  H   UNL     1     -40.526  54.888 -56.156  1.00  0.00     0.172 HD
HETATM    6  H   UNL     1     -41.812  55.393 -57.892  1.00  0.00     0.192 HD
ENDROOT
BRANCH   1   7
HETATM    7  C   UNL     1     -41.075  54.531 -54.205  1.00  0.00     0.116 A 
HETATM    8  N   UNL     1     -41.153  55.380 -53.135  1.00  0.00    -0.345 N 
HETATM    9  C   UNL     1     -40.853  54.712 -51.976  1.00  0.00     0.024 A 
HETATM   10  H   UNL     1     -41.378  56.366 -53.220  1.00  0.00     0.167 HD
HETATM   11  C   UNL     1     -40.570  53.387 -52.301  1.00  0.00     0.071 A 
HETATM   12  C   UNL     1     -40.851  55.420 -50.668  1.00  0.00     0.069 C 
HETATM   13  C   UNL     1     -40.744  53.272 -53.734  1.00  0.00     0.000 A 
HETATM   14  C   UNL     1     -40.577  52.035 -54.549  1.00  0.00     0.053 C 
BRANCH  11  15
HETATM   15  C   UNL     1     -40.168  52.363 -51.327  1.00  0.00     0.295 C 
HETATM   16  O   UNL     1     -40.694  52.227 -50.229  1.00  0.00    -0.259 OA
BRANCH  15  17
HETATM   17  O   UNL     1     -39.133  51.590 -51.771  1.00  0.00    -0.318 OA
BRANCH  17  18
HETATM   18  C   UNL     1     -39.159  50.212 -51.375  1.00  0.00     0.174 C 
HETATM   19  C   UNL     1     -39.669  49.347 -52.512  1.00  0.00     0.034 C 
ENDBRANCH  17  18
ENDBRANCH  15  17
ENDBRANCH  11  15
ENDBRANCH   1   7
BRANCH   3  20
HETATM   20  N   UNL     1     -43.545  56.469 -57.843  1.00  0.00    -0.262 N 
HETATM   21  C   UNL     1     -43.734  56.218 -59.189  1.00  0.00     0.270 C 
HETATM   22  O   UNL     1     -42.912  55.589 -59.853  1.00  0.00    -0.266 OA
HETATM   23  H   UNL     1     -44.287  56.751 -57.205  1.00  0.00     0.190 HD
BRANCH  21  24
HETATM   24  C   UNL     1     -44.990  56.725 -59.810  1.00  0.00     0.033 A 
HETATM   25  C   UNL     1     -45.295  58.087 -59.896  1.00  0.00     0.020 A 
HETATM   26  C   UNL     1     -46.475  58.498 -60.525  1.00  0.00     0.038 A 
HETATM   27  C   UNL     1     -47.355  57.564 -61.081  1.00  0.00     0.068 A 
HETATM   28  C   UNL     1     -47.051  56.206 -60.997  1.00  0.00     0.038 A 
HETATM   29  C   UNL     1     -45.872  55.790 -60.367  1.00  0.00     0.020 A 
BRANCH  27  30
HETATM   30  O   UNL     1     -48.461  58.105 -61.675  1.00  0.00    -0.356 OA
HETATM   31  C   UNL     1     -49.205  57.255 -62.542  1.00  0.00     0.210 C 
ENDBRANCH  27  30
ENDBRANCH  21  24
ENDBRANCH   3  20
TORSDOF 7
ENDMDL
MODEL 5
REMARK VINA RESULT:      -7.5      5.951      9.005
REMARK  7 active torsions:
REMARK  status: ('A' for Active; 'I' for Inactive)
REMARK    1  A    between atoms: C_2  and  O_3 
REMARK    2  A    between atoms: O_3  and  C_4 
REMARK    3  A    between atoms: C_4  and  C_5 
REMARK    4  A    between atoms: C_10  and  N_11 
REMARK       I    between atoms: N_11  and  C_12 
REMARK       I    between atoms: C_12  and  N_13 
REMARK    5  A    between atoms: N_13  and  N_14 
REMARK       I    between atoms: N_14  and  C_15 
REMARK    6  A    between atoms: C_15  and  C_16 
REMARK    7  A    between atoms: C_19  and  O_20 
ROOT
HETATM    1  N   UNL     1     -43.655  55.825 -52.066  1.00  0.00    -0.293 N 
HETATM    2  C   UNL     1     -43.333  57.011 -51.438  1.00  0.00     0.340 C 
HETATM    3  N   UNL     1     -44.431  57.849 -51.339  1.00  0.00    -0.249 N 
HETATM    4  O   UNL     1     -42.215  57.340 -51.041  1.00  0.00    -0.245 OA
HETATM    5  H   UNL     1     -44.595  55.709 -52.415  1.00  0.00     0.172 HD
HETATM    6  H   UNL     1     -45.362  57.442 -51.261  1.00  0.00     0.192 HD
ENDROOT
BRANCH   1   7
HETATM    7  C   UNL     1     -42.730  54.841 -52.353  1.00  0.00     0.116 A 
HETATM    8  N   UNL     1     -41.923  54.286 -51.399  1.00  0.00    -0.345 N 
HETATM    9  C   UNL     1     -41.079  53.367 -51.966  1.00  0.00     0.024 A 
HETATM   10  H   UNL     1     -41.949  54.554 -50.420  1.00  0.00     0.167 HD
HETATM   11  C   UNL     1     -41.343  53.324 -53.333  1.00  0.00     0.071 A 
HETATM   12  C   UNL     1     -40.085  52.632 -51.139  1.00  0.00     0.069 C 
HETATM   13  C   UNL     1     -42.428  54.254 -53.570  1.00  0.00     0.000 A 
HETATM   14  C   UNL     1     -43.080  54.539 -54.880  1.00  0.00     0.053 C 
BRANCH  11  15
HETATM   15  C   UNL     1     -40.615  52.481 -54.292  1.00  0.00     0.295 C 
HETATM   16  O   UNL     1     -39.782  52.913 -55.080  1.00  0.00    -0.259 OA
BRANCH  15  17
HETATM   17  O   UNL     1     -40.979  51.166 -54.221  1.00  0.00    -0.318 OA
BRANCH  17  18
HETATM   18  C   UNL     1     -39.926  50.209 -54.397  1.00  0.00     0.174 C 
HETATM   19  C   UNL     1     -39.608  49.527 -53.080  1.00  0.00     0.034 C 
ENDBRANCH  17  18
ENDBRANCH  15  17
ENDBRANCH  11  15
ENDBRANCH   1   7
BRANCH   3  20
HETATM   20  N   UNL     1     -44.278  59.052 -50.631  1.00  0.00    -0.262 N 
HETATM   21  C   UNL     1     -45.424  59.631 -50.121  1.00  0.00     0.270 C 
HETATM   22  O   UNL     1     -46.536  59.142 -50.310  1.00  0.00    -0.266 OA
HETATM   23  H   UNL     1     -43.337  59.262 -50.301  1.00  0.00     0.190 HD
BRANCH  21  24
HETATM   24  C   UNL     1     -45.263  60.870 -49.311  1.00  0.00     0.033 A 
HETATM   25  C   UNL     1     -45.497  60.909 -47.932  1.00  0.00     0.020 A 
HETATM   26  C   UNL     1     -45.292  62.097 -47.225  1.00  0.00     0.038 A 
HETATM   27  C   UNL     1     -44.844  63.252 -47.873  1.00  0.00     0.068 A 
HETATM   28  C   UNL     1     -44.609  63.214 -49.247  1.00  0.00     0.038 A 
HETATM   29  C   UNL     1     -44.815  62.028 -49.961  1.00  0.00     0.020 A 
BRANCH  27  30
HETATM   30  O   UNL     1     -44.674  64.337 -47.059  1.00  0.00    -0.356 OA
HETATM   31  C   UNL     1     -45.158  64.222 -45.726  1.00  0.00     0.210 C 
ENDBRANCH  27  30
ENDBRANCH  21  24
ENDBRANCH   3  20
TORSDOF 7
ENDMDL
MODEL 6
REMARK VINA RESULT:      -7.5      2.012     10.306
REMARK  7 active torsions:
REMARK  status: ('A' for Active; 'I' for Inactive)
REMARK    1  A    between atoms: C_2  and  O_3 
REMARK    2  A    between atoms: O_3  and  C_4 
REMARK    3  A    between atoms: C_4  and  C_5 
REMARK    4  A    between atoms: C_10  and  N_11 
REMARK       I    between atoms: N_11  and  C_12 
REMARK       I    between atoms: C_12  and  N_13 
REMARK    5  A    between atoms: N_13  and  N_14 
REMARK       I    between atoms: N_14  and  C_15 
REMARK    6  A    between atoms: C_15  and  C_16 
REMARK    7  A    between atoms: C_19  and  O_20 
ROOT
HETATM    1  N   UNL     1     -43.267  57.408 -57.398  1.00  0.00    -0.293 N 
HETATM    2  C   UNL     1     -42.835  56.157 -57.005  1.00  0.00     0.340 C 
HETATM    3  N   UNL     1     -41.725  56.238 -56.182  1.00  0.00    -0.249 N 
HETATM    4  O   UNL     1     -43.320  55.081 -57.355  1.00  0.00    -0.245 OA
HETATM    5  H   UNL     1     -42.734  58.213 -57.102  1.00  0.00     0.172 HD
HETATM    6  H   UNL     1     -41.609  57.052 -55.581  1.00  0.00     0.192 HD
ENDROOT
BRANCH   1   7
HETATM    7  C   UNL     1     -44.314  57.610 -58.275  1.00  0.00     0.116 A 
HETATM    8  N   UNL     1     -45.001  56.579 -58.854  1.00  0.00    -0.345 N 
HETATM    9  C   UNL     1     -45.959  57.066 -59.705  1.00  0.00     0.024 A 
HETATM   10  H   UNL     1     -44.794  55.602 -58.678  1.00  0.00     0.167 HD
HETATM   11  C   UNL     1     -45.892  58.457 -59.682  1.00  0.00     0.071 A 
HETATM   12  C   UNL     1     -46.835  56.142 -60.475  1.00  0.00     0.069 C 
HETATM   13  C   UNL     1     -44.850  58.800 -58.736  1.00  0.00     0.000 A 
HETATM   14  C   UNL     1     -44.423  60.176 -58.350  1.00  0.00     0.053 C 
BRANCH  11  15
HETATM   15  C   UNL     1     -46.739  59.341 -60.495  1.00  0.00     0.295 C 
HETATM   16  O   UNL     1     -46.335  59.954 -61.477  1.00  0.00    -0.259 OA
BRANCH  15  17
HETATM   17  O   UNL     1     -48.020  59.420 -60.028  1.00  0.00    -0.318 OA
BRANCH  17  18
HETATM   18  C   UNL     1     -48.396  60.664 -59.423  1.00  0.00     0.174 C 
HETATM   19  C   UNL     1     -48.762  60.452 -57.966  1.00  0.00     0.034 C 
ENDBRANCH  17  18
ENDBRANCH  15  17
ENDBRANCH  11  15
ENDBRANCH   1   7
BRANCH   3  20
HETATM   20  N   UNL     1     -41.235  55.047 -55.621  1.00  0.00    -0.262 N 
HETATM   21  C   UNL     1     -41.045  55.029 -54.253  1.00  0.00     0.270 C 
HETATM   22  O   UNL     1     -41.254  56.021 -53.557  1.00  0.00    -0.266 OA
HETATM   23  H   UNL     1     -41.324  54.211 -56.196  1.00  0.00     0.190 HD
BRANCH  21  24
HETATM   24  C   UNL     1     -40.592  53.749 -53.641  1.00  0.00     0.033 A 
HETATM   25  C   UNL     1     -40.249  52.626 -54.402  1.00  0.00     0.020 A 
HETATM   26  C   UNL     1     -39.796  51.466 -53.765  1.00  0.00     0.038 A 
HETATM   27  C   UNL     1     -39.668  51.413 -52.374  1.00  0.00     0.068 A 
HETATM   28  C   UNL     1     -40.008  52.532 -51.615  1.00  0.00     0.038 A 
HETATM   29  C   UNL     1     -40.464  53.695 -52.247  1.00  0.00     0.020 A 
BRANCH  27  30
HETATM   30  O   UNL     1     -39.202  50.223 -51.887  1.00  0.00    -0.356 OA
HETATM   31  C   UNL     1     -39.760  49.769 -50.660  1.00  0.00     0.210 C 
ENDBRANCH  27  30
ENDBRANCH  21  24
ENDBRANCH   3  20
TORSDOF 7
ENDMDL
MODEL 7
REMARK VINA RESULT:      -7.0      2.419     10.502
REMARK  7 active torsions:
REMARK  status: ('A' for Active; 'I' for Inactive)
REMARK    1  A    between atoms: C_2  and  O_3 
REMARK    2  A    between atoms: O_3  and  C_4 
REMARK    3  A    between atoms: C_4  and  C_5 
REMARK    4  A    between atoms: C_10  and  N_11 
REMARK       I    between atoms: N_11  and  C_12 
REMARK       I    between atoms: C_12  and  N_13 
REMARK    5  A    between atoms: N_13  and  N_14 
REMARK       I    between atoms: N_14  and  C_15 
REMARK    6  A    between atoms: C_15  and  C_16 
REMARK    7  A    between atoms: C_19  and  O_20 
ROOT
HETATM    1  N   UNL     1     -43.142  57.770 -57.204  1.00  0.00    -0.293 N 
HETATM    2  C   UNL     1     -42.757  56.475 -56.918  1.00  0.00     0.340 C 
HETATM    3  N   UNL     1     -41.763  56.441 -55.955  1.00  0.00    -0.249 N 
HETATM    4  O   UNL     1     -43.188  55.456 -57.458  1.00  0.00    -0.245 OA
HETATM    5  H   UNL     1     -42.655  58.525 -56.744  1.00  0.00     0.172 HD
HETATM    6  H   UNL     1     -41.729  57.173 -55.248  1.00  0.00     0.192 HD
ENDROOT
BRANCH   1   7
HETATM    7  C   UNL     1     -44.069  58.091 -58.175  1.00  0.00     0.116 A 
HETATM    8  N   UNL     1     -45.050  57.225 -58.573  1.00  0.00    -0.345 N 
HETATM    9  C   UNL     1     -45.802  57.786 -59.573  1.00  0.00     0.024 A 
HETATM   10  H   UNL     1     -45.167  56.296 -58.183  1.00  0.00     0.167 HD
HETATM   11  C   UNL     1     -45.293  59.056 -59.835  1.00  0.00     0.071 A 
HETATM   12  C   UNL     1     -46.927  57.037 -60.193  1.00  0.00     0.069 C 
HETATM   13  C   UNL     1     -44.196  59.256 -58.911  1.00  0.00     0.000 A 
HETATM   14  C   UNL     1     -43.351  60.479 -58.790  1.00  0.00     0.053 C 
BRANCH  11  15
HETATM   15  C   UNL     1     -45.812  59.959 -60.872  1.00  0.00     0.295 C 
HETATM   16  O   UNL     1     -46.851  60.597 -60.758  1.00  0.00    -0.259 OA
BRANCH  15  17
HETATM   17  O   UNL     1     -45.018  59.997 -61.984  1.00  0.00    -0.318 OA
BRANCH  17  18
HETATM   18  C   UNL     1     -44.397  61.256 -62.273  1.00  0.00     0.174 C 
HETATM   19  C   UNL     1     -42.903  61.074 -62.464  1.00  0.00     0.034 C 
ENDBRANCH  17  18
ENDBRANCH  15  17
ENDBRANCH  11  15
ENDBRANCH   1   7
BRANCH   3  20
HETATM   20  N   UNL     1     -41.343  55.184 -55.489  1.00  0.00    -0.262 N 
HETATM   21  C   UNL     1     -40.944  55.106 -54.169  1.00  0.00     0.270 C 
HETATM   22  O   UNL     1     -40.915  56.096 -53.441  1.00  0.00    -0.266 OA
HETATM   23  H   UNL     1     -41.624  54.381 -56.049  1.00  0.00     0.190 HD
BRANCH  21  24
HETATM   24  C   UNL     1     -40.562  53.763 -53.647  1.00  0.00     0.033 A 
HETATM   25  C   UNL     1     -40.280  52.679 -54.484  1.00  0.00     0.020 A 
HETATM   26  C   UNL     1     -39.892  51.454 -53.930  1.00  0.00     0.038 A 
HETATM   27  C   UNL     1     -39.771  51.298 -52.546  1.00  0.00     0.068 A 
HETATM   28  C   UNL     1     -40.052  52.380 -51.711  1.00  0.00     0.038 A 
HETATM   29  C   UNL     1     -40.442  53.606 -52.260  1.00  0.00     0.020 A 
BRANCH  27  30
HETATM   30  O   UNL     1     -39.372  50.054 -52.143  1.00  0.00    -0.356 OA
HETATM   31  C   UNL     1     -39.506  49.754 -50.758  1.00  0.00     0.210 C 
ENDBRANCH  27  30
ENDBRANCH  21  24
ENDBRANCH   3  20
TORSDOF 7
ENDMDL
MODEL 8
REMARK VINA RESULT:      -7.0      5.920      9.535
REMARK  7 active torsions:
REMARK  status: ('A' for Active; 'I' for Inactive)
REMARK    1  A    between atoms: C_2  and  O_3 
REMARK    2  A    between atoms: O_3  and  C_4 
REMARK    3  A    between atoms: C_4  and  C_5 
REMARK    4  A    between atoms: C_10  and  N_11 
REMARK       I    between atoms: N_11  and  C_12 
REMARK       I    between atoms: C_12  and  N_13 
REMARK    5  A    between atoms: N_13  and  N_14 
REMARK       I    between atoms: N_14  and  C_15 
REMARK    6  A    between atoms: C_15  and  C_16 
REMARK    7  A    between atoms: C_19  and  O_20 
ROOT
HETATM    1  N   UNL     1     -43.280  59.857 -52.462  1.00  0.00    -0.293 N 
HETATM    2  C   UNL     1     -42.681  58.644 -52.185  1.00  0.00     0.340 C 
HETATM    3  N   UNL     1     -42.289  57.995 -53.344  1.00  0.00    -0.249 N 
HETATM    4  O   UNL     1     -42.534  58.148 -51.069  1.00  0.00    -0.245 OA
HETATM    5  H   UNL     1     -43.410  60.116 -53.429  1.00  0.00     0.172 HD
HETATM    6  H   UNL     1     -42.022  58.545 -54.157  1.00  0.00     0.192 HD
ENDROOT
BRANCH   1   7
HETATM    7  C   UNL     1     -43.823  60.675 -51.492  1.00  0.00     0.116 A 
HETATM    8  N   UNL     1     -43.219  61.831 -51.078  1.00  0.00    -0.345 N 
HETATM    9  C   UNL     1     -43.953  62.422 -50.084  1.00  0.00     0.024 A 
HETATM   10  H   UNL     1     -42.338  62.166 -51.456  1.00  0.00     0.167 HD
HETATM   11  C   UNL     1     -45.070  61.625 -49.840  1.00  0.00     0.071 A 
HETATM   12  C   UNL     1     -43.499  63.689 -49.450  1.00  0.00     0.069 C 
HETATM   13  C   UNL     1     -44.994  60.519 -50.771  1.00  0.00     0.000 A 
HETATM   14  C   UNL     1     -45.981  59.410 -50.911  1.00  0.00     0.053 C 
BRANCH  11  15
HETATM   15  C   UNL     1     -46.082  61.909 -48.813  1.00  0.00     0.295 C 
HETATM   16  O   UNL     1     -46.850  62.863 -48.862  1.00  0.00    -0.259 OA
BRANCH  15  17
HETATM   17  O   UNL     1     -46.063  61.005 -47.789  1.00  0.00    -0.318 OA
BRANCH  17  18
HETATM   18  C   UNL     1     -44.946  61.088 -46.894  1.00  0.00     0.174 C 
HETATM   19  C   UNL     1     -45.246  62.055 -45.764  1.00  0.00     0.034 C 
ENDBRANCH  17  18
ENDBRANCH  15  17
ENDBRANCH  11  15
ENDBRANCH   1   7
BRANCH   3  20
HETATM   20  N   UNL     1     -41.573  56.793 -53.213  1.00  0.00    -0.262 N 
HETATM   21  C   UNL     1     -42.252  55.624 -53.498  1.00  0.00     0.270 C 
HETATM   22  O   UNL     1     -43.440  55.625 -53.812  1.00  0.00    -0.266 OA
HETATM   23  H   UNL     1     -40.558  56.876 -53.200  1.00  0.00     0.190 HD
BRANCH  21  24
HETATM   24  C   UNL     1     -41.481  54.351 -53.429  1.00  0.00     0.033 A 
HETATM   25  C   UNL     1     -41.145  53.608 -54.565  1.00  0.00     0.020 A 
HETATM   26  C   UNL     1     -40.387  52.439 -54.432  1.00  0.00     0.038 A 
HETATM   27  C   UNL     1     -39.949  52.005 -53.178  1.00  0.00     0.068 A 
HETATM   28  C   UNL     1     -40.283  52.746 -52.045  1.00  0.00     0.038 A 
HETATM   29  C   UNL     1     -41.043  53.915 -52.171  1.00  0.00     0.020 A 
BRANCH  27  30
HETATM   30  O   UNL     1     -39.208  50.856 -53.197  1.00  0.00    -0.356 OA
HETATM   31  C   UNL     1     -39.604  49.851 -54.124  1.00  0.00     0.210 C 
ENDBRANCH  27  30
ENDBRANCH  21  24
ENDBRANCH   3  20
TORSDOF 7
ENDMDL
MODEL 9
REMARK VINA RESULT:      -7.0      2.302     10.235
REMARK  7 active torsions:
REMARK  status: ('A' for Active; 'I' for Inactive)
REMARK    1  A    between atoms: C_2  and  O_3 
REMARK    2  A    between atoms: O_3  and  C_4 
REMARK    3  A    between atoms: C_4  and  C_5 
REMARK    4  A    between atoms: C_10  and  N_11 
REMARK       I    between atoms: N_11  and  C_12 
REMARK       I    between atoms: C_12  and  N_13 
REMARK    5  A    between atoms: N_13  and  N_14 
REMARK       I    between atoms: N_14  and  C_15 
REMARK    6  A    between atoms: C_15  and  C_16 
REMARK    7  A    between atoms: C_19  and  O_20 
ROOT
HETATM    1  N   UNL     1     -43.599  55.890 -57.847  1.00  0.00    -0.293 N 
HETATM    2  C   UNL     1     -43.449  55.715 -56.485  1.00  0.00     0.340 C 
HETATM    3  N   UNL     1     -43.073  54.419 -56.178  1.00  0.00    -0.249 N 
HETATM    4  O   UNL     1     -43.657  56.565 -55.619  1.00  0.00    -0.245 OA
HETATM    5  H   UNL     1     -43.473  55.090 -58.448  1.00  0.00     0.172 HD
HETATM    6  H   UNL     1     -42.513  53.892 -56.846  1.00  0.00     0.192 HD
ENDROOT
BRANCH   1   7
HETATM    7  C   UNL     1     -44.034  57.069 -58.418  1.00  0.00     0.116 A 
HETATM    8  N   UNL     1     -45.303  57.550 -58.245  1.00  0.00    -0.345 N 
HETATM    9  C   UNL     1     -45.471  58.712 -58.953  1.00  0.00     0.024 A 
HETATM   10  H   UNL     1     -46.006  57.079 -57.686  1.00  0.00     0.167 HD
HETATM   11  C   UNL     1     -44.275  58.996 -59.609  1.00  0.00     0.071 A 
HETATM   12  C   UNL     1     -46.775  59.428 -58.944  1.00  0.00     0.069 C 
HETATM   13  C   UNL     1     -43.346  57.949 -59.236  1.00  0.00     0.000 A 
HETATM   14  C   UNL     1     -41.924  57.832 -59.669  1.00  0.00     0.053 C 
BRANCH  11  15
HETATM   15  C   UNL     1     -44.072  60.146 -60.501  1.00  0.00     0.295 C 
HETATM   16  O   UNL     1     -44.338  60.133 -61.697  1.00  0.00    -0.259 OA
BRANCH  15  17
HETATM   17  O   UNL     1     -43.540  61.226 -59.856  1.00  0.00    -0.318 OA
BRANCH  17  18
HETATM   18  C   UNL     1     -42.269  61.685 -60.336  1.00  0.00     0.174 C 
HETATM   19  C   UNL     1     -41.223  61.578 -59.242  1.00  0.00     0.034 C 
ENDBRANCH  17  18
ENDBRANCH  15  17
ENDBRANCH  11  15
ENDBRANCH   1   7
BRANCH   3  20
HETATM   20  N   UNL     1     -42.784  54.119 -54.836  1.00  0.00    -0.262 N 
HETATM   21  C   UNL     1     -41.455  53.939 -54.506  1.00  0.00     0.270 C 
HETATM   22  O   UNL     1     -40.563  53.995 -55.351  1.00  0.00    -0.266 OA
HETATM   23  H   UNL     1     -43.516  54.334 -54.161  1.00  0.00     0.190 HD
BRANCH  21  24
HETATM   24  C   UNL     1     -41.134  53.689 -53.073  1.00  0.00     0.033 A 
HETATM   25  C   UNL     1     -41.702  54.429 -52.030  1.00  0.00     0.020 A 
HETATM   26  C   UNL     1     -41.385  54.118 -50.704  1.00  0.00     0.038 A 
HETATM   27  C   UNL     1     -40.512  53.069 -50.400  1.00  0.00     0.068 A 
HETATM   28  C   UNL     1     -39.946  52.331 -51.439  1.00  0.00     0.038 A 
HETATM   29  C   UNL     1     -40.258  52.638 -52.768  1.00  0.00     0.020 A 
BRANCH  27  30
HETATM   30  O   UNL     1     -40.301  52.868 -49.064  1.00  0.00    -0.356 OA
HETATM   31  C   UNL     1     -40.504  53.986 -48.207  1.00  0.00     0.210 C 
ENDBRANCH  27  30
ENDBRANCH  21  24
ENDBRANCH   3  20
TORSDOF 7
ENDMDL
MODEL 10
REMARK VINA RESULT:      -7.0      3.444      4.869
REMARK  7 active torsions:
REMARK  status: ('A' for Active; 'I' for Inactive)
REMARK    1  A    between atoms: C_2  and  O_3 
REMARK    2  A    between atoms: O_3  and  C_4 
REMARK    3  A    between atoms: C_4  and  C_5 
REMARK    4  A    between atoms: C_10  and  N_11 
REMARK       I    between atoms: N_11  and  C_12 
REMARK       I    between atoms: C_12  and  N_13 
REMARK    5  A    between atoms: N_13  and  N_14 
REMARK       I    between atoms: N_14  and  C_15 
REMARK    6  A    between atoms: C_15  and  C_16 
REMARK    7  A    between atoms: C_19  and  O_20 
ROOT
HETATM    1  N   UNL     1     -42.356  56.025 -53.058  1.00  0.00    -0.293 N 
HETATM    2  C   UNL     1     -41.803  56.772 -54.079  1.00  0.00     0.340 C 
HETATM    3  N   UNL     1     -42.740  57.610 -54.660  1.00  0.00    -0.249 N 
HETATM    4  O   UNL     1     -40.642  56.701 -54.481  1.00  0.00    -0.245 OA
HETATM    5  H   UNL     1     -43.344  56.122 -52.876  1.00  0.00     0.172 HD
HETATM    6  H   UNL     1     -43.505  57.970 -54.094  1.00  0.00     0.192 HD
ENDROOT
BRANCH   1   7
HETATM    7  C   UNL     1     -41.659  55.062 -52.357  1.00  0.00     0.116 A 
HETATM    8  N   UNL     1     -41.066  55.313 -51.150  1.00  0.00    -0.345 N 
HETATM    9  C   UNL     1     -40.413  54.195 -50.700  1.00  0.00     0.024 A 
HETATM   10  H   UNL     1     -41.100  56.216 -50.688  1.00  0.00     0.167 HD
HETATM   11  C   UNL     1     -40.583  53.185 -51.644  1.00  0.00     0.071 A 
HETATM   12  C   UNL     1     -39.670  54.213 -49.411  1.00  0.00     0.069 C 
HETATM   13  C   UNL     1     -41.412  53.743 -52.694  1.00  0.00     0.000 A 
HETATM   14  C   UNL     1     -41.889  53.033 -53.915  1.00  0.00     0.053 C 
BRANCH  11  15
HETATM   15  C   UNL     1     -39.998  51.842 -51.536  1.00  0.00     0.295 C 
HETATM   16  O   UNL     1     -40.074  51.147 -50.529  1.00  0.00    -0.259 OA
BRANCH  15  17
HETATM   17  O   UNL     1     -39.345  51.457 -52.673  1.00  0.00    -0.318 OA
BRANCH  17  18
HETATM   18  C   UNL     1     -39.504  50.085 -53.058  1.00  0.00     0.174 C 
HETATM   19  C   UNL     1     -39.767  49.984 -54.549  1.00  0.00     0.034 C 
ENDBRANCH  17  18
ENDBRANCH  15  17
ENDBRANCH  11  15
ENDBRANCH   1   7
BRANCH   3  20
HETATM   20  N   UNL     1     -42.296  58.506 -55.648  1.00  0.00    -0.262 N 
HETATM   21  C   UNL     1     -42.766  58.307 -56.931  1.00  0.00     0.270 C 
HETATM   22  O   UNL     1     -43.507  57.367 -57.212  1.00  0.00    -0.266 OA
HETATM   23  H   UNL     1     -41.904  59.384 -55.313  1.00  0.00     0.190 HD
BRANCH  21  24
HETATM   24  C   UNL     1     -42.356  59.292 -57.971  1.00  0.00     0.033 A 
HETATM   25  C   UNL     1     -41.781  60.528 -57.657  1.00  0.00     0.020 A 
HETATM   26  C   UNL     1     -41.385  61.392 -58.683  1.00  0.00     0.038 A 
HETATM   27  C   UNL     1     -41.546  61.035 -60.025  1.00  0.00     0.068 A 
HETATM   28  C   UNL     1     -42.118  59.803 -60.339  1.00  0.00     0.038 A 
HETATM   29  C   UNL     1     -42.519  58.935 -59.316  1.00  0.00     0.020 A 
BRANCH  27  30
HETATM   30  O   UNL     1     -41.104  61.967 -60.923  1.00  0.00    -0.356 OA
HETATM   31  C   UNL     1     -40.061  62.833 -60.489  1.00  0.00     0.210 C 
ENDBRANCH  27  30
ENDBRANCH  21  24
ENDBRANCH   3  20
TORSDOF 7
ENDMDL
