MODEL 1
REMARK VINA RESULT:      -9.3      0.000      0.000
REMARK  6 active torsions:
REMARK  status: ('A' for Active; 'I' for Inactive)
REMARK    1  A    between atoms: O_2  and  C_3 
REMARK    2  A    between atoms: C_6  and  C_7 
REMARK    3  A    between atoms: C_13  and  C_14 
REMARK       I    between atoms: C_14  and  N_15 
REMARK    4  A    between atoms: N_15  and  C_16 
REMARK    5  A    between atoms: C_18  and  O_19 
REMARK    6  A    between atoms: C_24  and  C_25 
ROOT
HETATM    1  C   UNL     1     -40.652  55.301 -53.739  1.00  0.00     0.118 C 
HETATM    2  N   UNL     1     -41.622  55.391 -54.843  1.00  0.00    -0.365 N 
HETATM    3  C   UNL     1     -42.201  56.601 -55.098  1.00  0.00     0.138 C 
HETATM    4  N   UNL     1     -42.096  57.640 -54.196  1.00  0.00    -0.240 N 
HETATM    5  N   UNL     1     -42.546  58.809 -54.672  1.00  0.00    -0.181 NA
HETATM    6  C   UNL     1     -43.102  58.473 -55.837  1.00  0.00     0.160 C 
HETATM    7  C   UNL     1     -42.950  57.100 -56.152  1.00  0.00     0.096 C 
HETATM    8  C   UNL     1     -41.380  57.572 -52.935  1.00  0.00     0.221 C 
HETATM    9  C   UNL     1     -41.154  56.107 -52.536  1.00  0.00     0.066 C 
HETATM   10  H   UNL     1     -41.307  54.836 -55.642  1.00  0.00     0.161 HD
ENDROOT
BRANCH   7  11
HETATM   11  C   UNL     1     -43.470  56.453 -57.346  1.00  0.00     0.261 C 
HETATM   12  N   UNL     1     -44.536  57.112 -57.928  1.00  0.00    -0.323 N 
HETATM   13  H   UNL     1     -44.811  57.980 -57.485  1.00  0.00     0.169 HD
HETATM   14  O   UNL     1     -42.950  55.423 -57.763  1.00  0.00    -0.267 OA
BRANCH  12  15
HETATM   15  C   UNL     1     -45.243  56.743 -59.093  1.00  0.00     0.037 A 
HETATM   16  C   UNL     1     -44.717  55.926 -60.099  1.00  0.00     0.066 A 
HETATM   17  C   UNL     1     -45.487  55.621 -61.221  1.00  0.00     0.067 A 
HETATM   18  C   UNL     1     -46.780  56.105 -61.356  1.00  0.00     0.036 A 
HETATM   19  C   UNL     1     -47.313  56.917 -60.359  1.00  0.00     0.005 A 
HETATM   20  C   UNL     1     -46.545  57.241 -59.236  1.00  0.00     0.029 A 
BRANCH  17  21
HETATM   21  O   UNL     1     -44.992  54.843 -62.227  1.00  0.00    -0.361 OA
HETATM   22  H   UNL     1     -45.003  53.916 -61.932  1.00  0.00     0.217 HD
ENDBRANCH  17  21
ENDBRANCH  12  15
ENDBRANCH   7  11
BRANCH   1  23
HETATM   23  C   UNL     1     -40.434  53.853 -53.346  1.00  0.00    -0.035 A 
HETATM   24  C   UNL     1     -40.271  52.872 -54.336  1.00  0.00     0.012 A 
HETATM   25  C   UNL     1     -39.974  51.547 -53.995  1.00  0.00     0.037 A 
HETATM   26  C   UNL     1     -39.828  51.183 -52.657  1.00  0.00     0.068 A 
HETATM   27  C   UNL     1     -40.014  52.146 -51.665  1.00  0.00     0.037 A 
HETATM   28  C   UNL     1     -40.310  53.469 -52.002  1.00  0.00     0.012 A 
BRANCH  26  29
HETATM   29  O   UNL     1     -39.513  49.935 -52.196  1.00  0.00    -0.356 OA
HETATM   30  C   UNL     1     -39.540  49.749 -50.786  1.00  0.00     0.210 C 
ENDBRANCH  26  29
ENDBRANCH   1  23
BRANCH   8  31
HETATM   31  C   UNL     1     -42.114  58.291 -51.824  1.00  0.00     0.409 C 
HETATM   32  F   UNL     1     -43.450  58.085 -51.870  1.00  0.00    -0.169 F 
HETATM   33  F   UNL     1     -41.690  57.814 -50.621  1.00  0.00    -0.169 F 
HETATM   34  F   UNL     1     -41.887  59.620 -51.797  1.00  0.00    -0.169 F 
ENDBRANCH   8  31
TORSDOF 6
ENDMDL
MODEL 2
REMARK VINA RESULT:      -9.2      1.867      7.710
REMARK  6 active torsions:
REMARK  status: ('A' for Active; 'I' for Inactive)
REMARK    1  A    between atoms: O_2  and  C_3 
REMARK    2  A    between atoms: C_6  and  C_7 
REMARK    3  A    between atoms: C_13  and  C_14 
REMARK       I    between atoms: C_14  and  N_15 
REMARK    4  A    between atoms: N_15  and  C_16 
REMARK    5  A    between atoms: C_18  and  O_19 
REMARK    6  A    between atoms: C_24  and  C_25 
ROOT
HETATM    1  C   UNL     1     -43.675  57.295 -55.259  1.00  0.00     0.118 C 
HETATM    2  N   UNL     1     -43.058  56.188 -54.510  1.00  0.00    -0.365 N 
HETATM    3  C   UNL     1     -42.655  56.422 -53.227  1.00  0.00     0.138 C 
HETATM    4  N   UNL     1     -42.575  57.709 -52.733  1.00  0.00    -0.240 N 
HETATM    5  N   UNL     1     -42.353  57.762 -51.412  1.00  0.00    -0.181 NA
HETATM    6  C   UNL     1     -42.122  56.489 -51.087  1.00  0.00     0.160 C 
HETATM    7  C   UNL     1     -42.262  55.600 -52.182  1.00  0.00     0.096 C 
HETATM    8  C   UNL     1     -42.907  58.905 -53.484  1.00  0.00     0.221 C 
HETATM    9  C   UNL     1     -42.915  58.597 -54.988  1.00  0.00     0.066 C 
HETATM   10  H   UNL     1     -43.544  55.310 -54.703  1.00  0.00     0.161 HD
ENDROOT
BRANCH   7  11
HETATM   11  C   UNL     1     -42.051  54.162 -52.124  1.00  0.00     0.261 C 
HETATM   12  N   UNL     1     -40.906  53.731 -52.766  1.00  0.00    -0.323 N 
HETATM   13  H   UNL     1     -40.330  54.459 -53.171  1.00  0.00     0.169 HD
HETATM   14  O   UNL     1     -42.846  53.449 -51.522  1.00  0.00    -0.267 OA
BRANCH  12  15
HETATM   15  C   UNL     1     -40.426  52.408 -52.873  1.00  0.00     0.037 A 
HETATM   16  C   UNL     1     -39.952  51.661 -51.791  1.00  0.00     0.066 A 
HETATM   17  C   UNL     1     -39.487  50.362 -51.993  1.00  0.00     0.067 A 
HETATM   18  C   UNL     1     -39.497  49.785 -53.256  1.00  0.00     0.036 A 
HETATM   19  C   UNL     1     -39.969  50.520 -54.339  1.00  0.00     0.005 A 
HETATM   20  C   UNL     1     -40.425  51.829 -54.150  1.00  0.00     0.029 A 
BRANCH  17  21
HETATM   21  O   UNL     1     -39.000  49.616 -50.959  1.00  0.00    -0.361 OA
HETATM   22  H   UNL     1     -38.063  49.843 -50.831  1.00  0.00     0.217 HD
ENDBRANCH  17  21
ENDBRANCH  12  15
ENDBRANCH   7  11
BRANCH   1  23
HETATM   23  C   UNL     1     -43.678  56.988 -56.744  1.00  0.00    -0.035 A 
HETATM   24  C   UNL     1     -42.996  55.863 -57.231  1.00  0.00     0.012 A 
HETATM   25  C   UNL     1     -43.066  55.509 -58.584  1.00  0.00     0.037 A 
HETATM   26  C   UNL     1     -43.825  56.271 -59.471  1.00  0.00     0.068 A 
HETATM   27  C   UNL     1     -44.485  57.407 -59.000  1.00  0.00     0.037 A 
HETATM   28  C   UNL     1     -44.418  57.763 -57.650  1.00  0.00     0.012 A 
BRANCH  26  29
HETATM   29  O   UNL     1     -43.996  56.018 -60.803  1.00  0.00    -0.356 OA
HETATM   30  C   UNL     1     -45.101  55.197 -61.161  1.00  0.00     0.210 C 
ENDBRANCH  26  29
ENDBRANCH   1  23
BRANCH   8  31
HETATM   31  C   UNL     1     -41.943  60.038 -53.205  1.00  0.00     0.409 C 
HETATM   32  F   UNL     1     -40.652  59.638 -53.238  1.00  0.00    -0.169 F 
HETATM   33  F   UNL     1     -42.077  60.992 -54.168  1.00  0.00    -0.169 F 
HETATM   34  F   UNL     1     -42.167  60.662 -52.031  1.00  0.00    -0.169 F 
ENDBRANCH   8  31
TORSDOF 6
ENDMDL
MODEL 3
REMARK VINA RESULT:      -8.5      1.513      1.959
REMARK  6 active torsions:
REMARK  status: ('A' for Active; 'I' for Inactive)
REMARK    1  A    between atoms: O_2  and  C_3 
REMARK    2  A    between atoms: C_6  and  C_7 
REMARK    3  A    between atoms: C_13  and  C_14 
REMARK       I    between atoms: C_14  and  N_15 
REMARK    4  A    between atoms: N_15  and  C_16 
REMARK    5  A    between atoms: C_18  and  O_19 
REMARK    6  A    between atoms: C_24  and  C_25 
ROOT
HETATM    1  C   UNL     1     -40.983  56.300 -53.729  1.00  0.00     0.118 C 
HETATM    2  N   UNL     1     -42.189  56.534 -54.540  1.00  0.00    -0.365 N 
HETATM    3  C   UNL     1     -42.761  57.773 -54.506  1.00  0.00     0.138 C 
HETATM    4  N   UNL     1     -42.394  58.696 -53.549  1.00  0.00    -0.240 N 
HETATM    5  N   UNL     1     -42.897  59.920 -53.764  1.00  0.00    -0.181 NA
HETATM    6  C   UNL     1     -43.735  59.732 -54.785  1.00  0.00     0.160 C 
HETATM    7  C   UNL     1     -43.724  58.404 -55.278  1.00  0.00     0.096 C 
HETATM    8  C   UNL     1     -41.394  58.469 -52.521  1.00  0.00     0.221 C 
HETATM    9  C   UNL     1     -41.140  56.964 -52.357  1.00  0.00     0.066 C 
HETATM   10  H   UNL     1     -42.104  56.073 -55.449  1.00  0.00     0.161 HD
ENDROOT
BRANCH   7  11
HETATM   11  C   UNL     1     -44.548  57.910 -56.370  1.00  0.00     0.261 C 
HETATM   12  N   UNL     1     -43.836  57.317 -57.395  1.00  0.00    -0.323 N 
HETATM   13  H   UNL     1     -42.834  57.262 -57.258  1.00  0.00     0.169 HD
HETATM   14  O   UNL     1     -45.768  58.021 -56.317  1.00  0.00    -0.267 OA
BRANCH  12  15
HETATM   15  C   UNL     1     -44.348  56.737 -58.575  1.00  0.00     0.037 A 
HETATM   16  C   UNL     1     -45.359  57.313 -59.352  1.00  0.00     0.066 A 
HETATM   17  C   UNL     1     -45.810  56.662 -60.500  1.00  0.00     0.067 A 
HETATM   18  C   UNL     1     -45.263  55.450 -60.898  1.00  0.00     0.036 A 
HETATM   19  C   UNL     1     -44.255  54.870 -60.133  1.00  0.00     0.005 A 
HETATM   20  C   UNL     1     -43.805  55.508 -58.972  1.00  0.00     0.029 A 
BRANCH  17  21
HETATM   21  O   UNL     1     -46.808  57.191 -61.266  1.00  0.00    -0.361 OA
HETATM   22  H   UNL     1     -47.657  57.024 -60.821  1.00  0.00     0.217 HD
ENDBRANCH  17  21
ENDBRANCH  12  15
ENDBRANCH   7  11
BRANCH   1  23
HETATM   23  C   UNL     1     -40.737  54.813 -53.567  1.00  0.00    -0.035 A 
HETATM   24  C   UNL     1     -40.457  54.019 -54.690  1.00  0.00     0.012 A 
HETATM   25  C   UNL     1     -40.133  52.664 -54.551  1.00  0.00     0.037 A 
HETATM   26  C   UNL     1     -40.078  52.082 -53.285  1.00  0.00     0.068 A 
HETATM   27  C   UNL     1     -40.381  52.857 -52.165  1.00  0.00     0.037 A 
HETATM   28  C   UNL     1     -40.704  54.210 -52.300  1.00  0.00     0.012 A 
BRANCH  26  29
HETATM   29  O   UNL     1     -39.749  50.783 -53.015  1.00  0.00    -0.356 OA
HETATM   30  C   UNL     1     -39.599  49.915 -54.132  1.00  0.00     0.210 C 
ENDBRANCH  26  29
ENDBRANCH   1  23
BRANCH   8  31
HETATM   31  C   UNL     1     -41.802  59.061 -51.189  1.00  0.00     0.409 C 
HETATM   32  F   UNL     1     -41.593  60.396 -51.131  1.00  0.00    -0.169 F 
HETATM   33  F   UNL     1     -43.138  58.871 -51.002  1.00  0.00    -0.169 F 
HETATM   34  F   UNL     1     -41.194  58.487 -50.132  1.00  0.00    -0.169 F 
ENDBRANCH   8  31
TORSDOF 6
ENDMDL
MODEL 4
REMARK VINA RESULT:      -8.4      4.129      7.079
REMARK  6 active torsions:
REMARK  status: ('A' for Active; 'I' for Inactive)
REMARK    1  A    between atoms: O_2  and  C_3 
REMARK    2  A    between atoms: C_6  and  C_7 
REMARK    3  A    between atoms: C_13  and  C_14 
REMARK       I    between atoms: C_14  and  N_15 
REMARK    4  A    between atoms: N_15  and  C_16 
REMARK    5  A    between atoms: C_18  and  O_19 
REMARK    6  A    between atoms: C_24  and  C_25 
ROOT
HETATM    1  C   UNL     1     -42.739  54.677 -54.120  1.00  0.00     0.118 C 
HETATM    2  N   UNL     1     -42.825  55.917 -53.331  1.00  0.00    -0.365 N 
HETATM    3  C   UNL     1     -43.457  56.993 -53.886  1.00  0.00     0.138 C 
HETATM    4  N   UNL     1     -43.768  57.016 -55.230  1.00  0.00    -0.240 N 
HETATM    5  N   UNL     1     -44.553  58.045 -55.580  1.00  0.00    -0.181 NA
HETATM    6  C   UNL     1     -44.605  58.783 -54.471  1.00  0.00     0.160 C 
HETATM    7  C   UNL     1     -43.915  58.199 -53.380  1.00  0.00     0.096 C 
HETATM    8  C   UNL     1     -43.481  55.943 -56.164  1.00  0.00     0.221 C 
HETATM    9  C   UNL     1     -42.413  55.007 -55.580  1.00  0.00     0.066 C 
HETATM   10  H   UNL     1     -43.018  55.705 -52.350  1.00  0.00     0.161 HD
ENDROOT
BRANCH   7  11
HETATM   11  C   UNL     1     -43.790  58.790 -52.056  1.00  0.00     0.261 C 
HETATM   12  N   UNL     1     -44.571  59.914 -51.862  1.00  0.00    -0.323 N 
HETATM   13  H   UNL     1     -45.161  60.178 -52.641  1.00  0.00     0.169 HD
HETATM   14  O   UNL     1     -43.055  58.275 -51.220  1.00  0.00    -0.267 OA
BRANCH  12  15
HETATM   15  C   UNL     1     -44.676  60.696 -50.692  1.00  0.00     0.037 A 
HETATM   16  C   UNL     1     -45.498  60.371 -49.608  1.00  0.00     0.066 A 
HETATM   17  C   UNL     1     -45.546  61.210 -48.495  1.00  0.00     0.067 A 
HETATM   18  C   UNL     1     -44.778  62.364 -48.434  1.00  0.00     0.036 A 
HETATM   19  C   UNL     1     -43.955  62.695 -49.506  1.00  0.00     0.005 A 
HETATM   20  C   UNL     1     -43.910  61.868 -50.634  1.00  0.00     0.029 A 
BRANCH  17  21
HETATM   21  O   UNL     1     -46.355  60.928 -47.432  1.00  0.00    -0.361 OA
HETATM   22  H   UNL     1     -46.403  61.717 -46.866  1.00  0.00     0.217 HD
ENDBRANCH  17  21
ENDBRANCH  12  15
ENDBRANCH   7  11
BRANCH   1  23
HETATM   23  C   UNL     1     -41.680  53.758 -53.541  1.00  0.00    -0.035 A 
HETATM   24  C   UNL     1     -41.304  53.878 -52.195  1.00  0.00     0.012 A 
HETATM   25  C   UNL     1     -40.400  52.978 -51.617  1.00  0.00     0.037 A 
HETATM   26  C   UNL     1     -39.863  51.939 -52.376  1.00  0.00     0.068 A 
HETATM   27  C   UNL     1     -40.211  51.828 -53.722  1.00  0.00     0.037 A 
HETATM   28  C   UNL     1     -41.113  52.724 -54.301  1.00  0.00     0.012 A 
BRANCH  26  29
HETATM   29  O   UNL     1     -38.995  50.983 -51.925  1.00  0.00    -0.356 OA
HETATM   30  C   UNL     1     -39.535  49.984 -51.068  1.00  0.00     0.210 C 
ENDBRANCH  26  29
ENDBRANCH   1  23
BRANCH   8  31
HETATM   31  C   UNL     1     -43.016  56.465 -57.506  1.00  0.00     0.409 C 
HETATM   32  F   UNL     1     -42.059  57.412 -57.389  1.00  0.00    -0.169 F 
HETATM   33  F   UNL     1     -42.466  55.445 -58.221  1.00  0.00    -0.169 F 
HETATM   34  F   UNL     1     -44.013  56.958 -58.270  1.00  0.00    -0.169 F 
ENDBRANCH   8  31
TORSDOF 6
ENDMDL
MODEL 5
REMARK VINA RESULT:      -8.3      1.681      2.410
REMARK  6 active torsions:
REMARK  status: ('A' for Active; 'I' for Inactive)
REMARK    1  A    between atoms: O_2  and  C_3 
REMARK    2  A    between atoms: C_6  and  C_7 
REMARK    3  A    between atoms: C_13  and  C_14 
REMARK       I    between atoms: C_14  and  N_15 
REMARK    4  A    between atoms: N_15  and  C_16 
REMARK    5  A    between atoms: C_18  and  O_19 
REMARK    6  A    between atoms: C_24  and  C_25 
ROOT
HETATM    1  C   UNL     1     -40.709  56.979 -53.731  1.00  0.00     0.118 C 
HETATM    2  N   UNL     1     -41.694  57.503 -54.690  1.00  0.00    -0.365 N 
HETATM    3  C   UNL     1     -42.127  58.789 -54.534  1.00  0.00     0.138 C 
HETATM    4  N   UNL     1     -41.866  59.488 -53.374  1.00  0.00    -0.240 N 
HETATM    5  N   UNL     1     -42.183  60.788 -53.450  1.00  0.00    -0.181 NA
HETATM    6  C   UNL     1     -42.813  60.883 -54.622  1.00  0.00     0.160 C 
HETATM    7  C   UNL     1     -42.842  59.661 -55.339  1.00  0.00     0.096 C 
HETATM    8  C   UNL     1     -41.124  58.964 -52.242  1.00  0.00     0.221 C 
HETATM    9  C   UNL     1     -41.068  57.432 -52.312  1.00  0.00     0.066 C 
HETATM   10  H   UNL     1     -41.476  57.186 -55.637  1.00  0.00     0.161 HD
ENDROOT
BRANCH   7  11
HETATM   11  C   UNL     1     -43.476  59.467 -56.634  1.00  0.00     0.261 C 
HETATM   12  N   UNL     1     -44.064  58.227 -56.796  1.00  0.00    -0.323 N 
HETATM   13  H   UNL     1     -44.019  57.611 -55.993  1.00  0.00     0.169 HD
HETATM   14  O   UNL     1     -43.475  60.372 -57.461  1.00  0.00    -0.267 OA
BRANCH  12  15
HETATM   15  C   UNL     1     -44.761  57.746 -57.925  1.00  0.00     0.037 A 
HETATM   16  C   UNL     1     -44.151  57.081 -58.993  1.00  0.00     0.066 A 
HETATM   17  C   UNL     1     -44.919  56.649 -60.074  1.00  0.00     0.067 A 
HETATM   18  C   UNL     1     -46.291  56.857 -60.107  1.00  0.00     0.036 A 
HETATM   19  C   UNL     1     -46.908  57.516 -59.048  1.00  0.00     0.005 A 
HETATM   20  C   UNL     1     -46.144  57.966 -57.965  1.00  0.00     0.029 A 
BRANCH  17  21
HETATM   21  O   UNL     1     -44.347  56.015 -61.139  1.00  0.00    -0.361 OA
HETATM   22  H   UNL     1     -44.104  55.114 -60.866  1.00  0.00     0.217 HD
ENDBRANCH  17  21
ENDBRANCH  12  15
ENDBRANCH   7  11
BRANCH   1  23
HETATM   23  C   UNL     1     -40.659  55.465 -53.801  1.00  0.00    -0.035 A 
HETATM   24  C   UNL     1     -41.140  54.695 -52.731  1.00  0.00     0.012 A 
HETATM   25  C   UNL     1     -41.191  53.298 -52.816  1.00  0.00     0.037 A 
HETATM   26  C   UNL     1     -40.768  52.649 -53.975  1.00  0.00     0.068 A 
HETATM   27  C   UNL     1     -40.264  53.405 -55.033  1.00  0.00     0.037 A 
HETATM   28  C   UNL     1     -40.212  54.799 -54.953  1.00  0.00     0.012 A 
BRANCH  26  29
HETATM   29  O   UNL     1     -40.793  51.299 -54.192  1.00  0.00    -0.356 OA
HETATM   30  C   UNL     1     -39.637  50.568 -53.800  1.00  0.00     0.210 C 
ENDBRANCH  26  29
ENDBRANCH   1  23
BRANCH   8  31
HETATM   31  C   UNL     1     -41.729  59.388 -50.920  1.00  0.00     0.409 C 
HETATM   32  F   UNL     1     -41.560  60.707 -50.674  1.00  0.00    -0.169 F 
HETATM   33  F   UNL     1     -43.072  59.168 -50.948  1.00  0.00    -0.169 F 
HETATM   34  F   UNL     1     -41.261  58.694 -49.864  1.00  0.00    -0.169 F 
ENDBRANCH   8  31
TORSDOF 6
ENDMDL
MODEL 6
REMARK VINA RESULT:      -8.2      2.500      8.083
REMARK  6 active torsions:
REMARK  status: ('A' for Active; 'I' for Inactive)
REMARK    1  A    between atoms: O_2  and  C_3 
REMARK    2  A    between atoms: C_6  and  C_7 
REMARK    3  A    between atoms: C_13  and  C_14 
REMARK       I    between atoms: C_14  and  N_15 
REMARK    4  A    between atoms: N_15  and  C_16 
REMARK    5  A    between atoms: C_18  and  O_19 
REMARK    6  A    between atoms: C_24  and  C_25 
ROOT
HETATM    1  C   UNL     1     -43.501  58.074 -53.139  1.00  0.00     0.118 C 
HETATM    2  N   UNL     1     -42.815  56.772 -53.105  1.00  0.00    -0.365 N 
HETATM    3  C   UNL     1     -42.101  56.448 -51.987  1.00  0.00     0.138 C 
HETATM    4  N   UNL     1     -41.804  57.401 -51.034  1.00  0.00    -0.240 N 
HETATM    5  N   UNL     1     -41.272  56.891 -49.915  1.00  0.00    -0.181 NA
HETATM    6  C   UNL     1     -41.073  55.609 -50.225  1.00  0.00     0.160 C 
HETATM    7  C   UNL     1     -41.540  55.270 -51.519  1.00  0.00     0.096 C 
HETATM    8  C   UNL     1     -42.208  58.793 -51.104  1.00  0.00     0.221 C 
HETATM    9  C   UNL     1     -42.597  59.158 -52.543  1.00  0.00     0.066 C 
HETATM   10  H   UNL     1     -43.402  56.047 -53.522  1.00  0.00     0.161 HD
ENDROOT
BRANCH   7  11
HETATM   11  C   UNL     1     -41.437  53.952 -52.126  1.00  0.00     0.261 C 
HETATM   12  N   UNL     1     -40.418  53.171 -51.615  1.00  0.00    -0.323 N 
HETATM   13  H   UNL     1     -39.885  53.584 -50.860  1.00  0.00     0.169 HD
HETATM   14  O   UNL     1     -42.231  53.614 -52.998  1.00  0.00    -0.267 OA
BRANCH  12  15
HETATM   15  C   UNL     1     -40.076  51.853 -51.987  1.00  0.00     0.037 A 
HETATM   16  C   UNL     1     -39.957  51.422 -53.312  1.00  0.00     0.066 A 
HETATM   17  C   UNL     1     -39.622  50.097 -53.586  1.00  0.00     0.067 A 
HETATM   18  C   UNL     1     -39.391  49.190 -52.561  1.00  0.00     0.036 A 
HETATM   19  C   UNL     1     -39.504  49.609 -51.239  1.00  0.00     0.005 A 
HETATM   20  C   UNL     1     -39.853  50.933 -50.953  1.00  0.00     0.029 A 
BRANCH  17  21
HETATM   21  O   UNL     1     -39.519  49.644 -54.870  1.00  0.00    -0.361 OA
HETATM   22  H   UNL     1     -38.741  49.065 -54.929  1.00  0.00     0.217 HD
ENDBRANCH  17  21
ENDBRANCH  12  15
ENDBRANCH   7  11
BRANCH   1  23
HETATM   23  C   UNL     1     -43.881  58.432 -54.563  1.00  0.00    -0.035 A 
HETATM   24  C   UNL     1     -42.885  58.770 -55.492  1.00  0.00     0.012 A 
HETATM   25  C   UNL     1     -43.205  59.010 -56.834  1.00  0.00     0.037 A 
HETATM   26  C   UNL     1     -44.525  58.909 -57.270  1.00  0.00     0.068 A 
HETATM   27  C   UNL     1     -45.525  58.599 -56.347  1.00  0.00     0.037 A 
HETATM   28  C   UNL     1     -45.209  58.358 -55.007  1.00  0.00     0.012 A 
BRANCH  26  29
HETATM   29  O   UNL     1     -44.962  59.092 -58.553  1.00  0.00    -0.356 OA
HETATM   30  C   UNL     1     -45.939  58.175 -59.031  1.00  0.00     0.210 C 
ENDBRANCH  26  29
ENDBRANCH   1  23
BRANCH   8  31
HETATM   31  C   UNL     1     -41.118  59.726 -50.622  1.00  0.00     0.409 C 
HETATM   32  F   UNL     1     -39.984  59.616 -51.352  1.00  0.00    -0.169 F 
HETATM   33  F   UNL     1     -41.538  61.015 -50.752  1.00  0.00    -0.169 F 
HETATM   34  F   UNL     1     -40.805  59.567 -49.321  1.00  0.00    -0.169 F 
ENDBRANCH   8  31
TORSDOF 6
ENDMDL
MODEL 7
REMARK VINA RESULT:      -8.2      3.972      8.313
REMARK  6 active torsions:
REMARK  status: ('A' for Active; 'I' for Inactive)
REMARK    1  A    between atoms: O_2  and  C_3 
REMARK    2  A    between atoms: C_6  and  C_7 
REMARK    3  A    between atoms: C_13  and  C_14 
REMARK       I    between atoms: C_14  and  N_15 
REMARK    4  A    between atoms: N_15  and  C_16 
REMARK    5  A    between atoms: C_18  and  O_19 
REMARK    6  A    between atoms: C_24  and  C_25 
ROOT
HETATM    1  C   UNL     1     -41.788  56.420 -55.468  1.00  0.00     0.118 C 
HETATM    2  N   UNL     1     -42.542  57.226 -54.493  1.00  0.00    -0.365 N 
HETATM    3  C   UNL     1     -42.302  57.022 -53.165  1.00  0.00     0.138 C 
HETATM    4  N   UNL     1     -41.588  55.923 -52.734  1.00  0.00    -0.240 N 
HETATM    5  N   UNL     1     -41.273  55.967 -51.432  1.00  0.00    -0.181 NA
HETATM    6  C   UNL     1     -41.943  57.031 -50.989  1.00  0.00     0.160 C 
HETATM    7  C   UNL     1     -42.635  57.721 -52.015  1.00  0.00     0.096 C 
HETATM    8  C   UNL     1     -41.024  54.910 -53.606  1.00  0.00     0.221 C 
HETATM    9  C   UNL     1     -41.695  54.968 -54.985  1.00  0.00     0.066 C 
HETATM   10  H   UNL     1     -42.630  58.191 -54.819  1.00  0.00     0.161 HD
ENDROOT
BRANCH   7  11
HETATM   11  C   UNL     1     -43.461  58.902 -51.819  1.00  0.00     0.261 C 
HETATM   12  N   UNL     1     -43.217  59.573 -50.636  1.00  0.00    -0.323 N 
HETATM   13  H   UNL     1     -42.477  59.192 -50.059  1.00  0.00     0.169 HD
HETATM   14  O   UNL     1     -44.270  59.236 -52.678  1.00  0.00    -0.267 OA
BRANCH  12  15
HETATM   15  C   UNL     1     -43.843  60.750 -50.170  1.00  0.00     0.037 A 
HETATM   16  C   UNL     1     -45.098  60.775 -49.553  1.00  0.00     0.066 A 
HETATM   17  C   UNL     1     -45.643  61.987 -49.133  1.00  0.00     0.067 A 
HETATM   18  C   UNL     1     -44.955  63.180 -49.303  1.00  0.00     0.036 A 
HETATM   19  C   UNL     1     -43.704  63.166 -49.913  1.00  0.00     0.005 A 
HETATM   20  C   UNL     1     -43.154  61.956 -50.352  1.00  0.00     0.029 A 
BRANCH  17  21
HETATM   21  O   UNL     1     -46.875  62.043 -48.547  1.00  0.00    -0.361 OA
HETATM   22  H   UNL     1     -47.234  62.937 -48.673  1.00  0.00     0.217 HD
ENDBRANCH  17  21
ENDBRANCH  12  15
ENDBRANCH   7  11
BRANCH   1  23
HETATM   23  C   UNL     1     -42.457  56.478 -56.828  1.00  0.00    -0.035 A 
HETATM   24  C   UNL     1     -42.401  57.655 -57.589  1.00  0.00     0.012 A 
HETATM   25  C   UNL     1     -42.928  57.700 -58.886  1.00  0.00     0.037 A 
HETATM   26  C   UNL     1     -43.514  56.565 -59.444  1.00  0.00     0.068 A 
HETATM   27  C   UNL     1     -43.597  55.397 -58.685  1.00  0.00     0.037 A 
HETATM   28  C   UNL     1     -43.072  55.349 -57.391  1.00  0.00     0.012 A 
BRANCH  26  29
HETATM   29  O   UNL     1     -44.038  56.471 -60.704  1.00  0.00    -0.356 OA
HETATM   30  C   UNL     1     -44.870  55.348 -60.967  1.00  0.00     0.210 C 
ENDBRANCH  26  29
ENDBRANCH   1  23
BRANCH   8  31
HETATM   31  C   UNL     1     -41.172  53.517 -53.031  1.00  0.00     0.409 C 
HETATM   32  F   UNL     1     -40.157  53.192 -52.198  1.00  0.00    -0.169 F 
HETATM   33  F   UNL     1     -42.314  53.454 -52.292  1.00  0.00    -0.169 F 
HETATM   34  F   UNL     1     -41.282  52.554 -53.967  1.00  0.00    -0.169 F 
ENDBRANCH   8  31
TORSDOF 6
ENDMDL
MODEL 8
REMARK VINA RESULT:      -8.1      3.416      4.091
REMARK  6 active torsions:
REMARK  status: ('A' for Active; 'I' for Inactive)
REMARK    1  A    between atoms: O_2  and  C_3 
REMARK    2  A    between atoms: C_6  and  C_7 
REMARK    3  A    between atoms: C_13  and  C_14 
REMARK       I    between atoms: C_14  and  N_15 
REMARK    4  A    between atoms: N_15  and  C_16 
REMARK    5  A    between atoms: C_18  and  O_19 
REMARK    6  A    between atoms: C_24  and  C_25 
ROOT
HETATM    1  C   UNL     1     -41.352  56.443 -53.086  1.00  0.00     0.118 C 
HETATM    2  N   UNL     1     -41.591  57.141 -54.360  1.00  0.00    -0.365 N 
HETATM    3  C   UNL     1     -42.295  58.311 -54.333  1.00  0.00     0.138 C 
HETATM    4  N   UNL     1     -42.989  58.694 -53.204  1.00  0.00    -0.240 N 
HETATM    5  N   UNL     1     -43.463  59.947 -53.268  1.00  0.00    -0.181 NA
HETATM    6  C   UNL     1     -43.209  60.308 -54.526  1.00  0.00     0.160 C 
HETATM    7  C   UNL     1     -42.508  59.320 -55.259  1.00  0.00     0.096 C 
HETATM    8  C   UNL     1     -43.040  57.937 -51.967  1.00  0.00     0.221 C 
HETATM    9  C   UNL     1     -42.616  56.483 -52.222  1.00  0.00     0.066 C 
HETATM   10  H   UNL     1     -40.760  57.098 -54.953  1.00  0.00     0.161 HD
ENDROOT
BRANCH   7  11
HETATM   11  C   UNL     1     -42.116  59.435 -56.655  1.00  0.00     0.261 C 
HETATM   12  N   UNL     1     -41.968  60.736 -57.097  1.00  0.00    -0.323 N 
HETATM   13  H   UNL     1     -42.113  61.455 -56.399  1.00  0.00     0.169 HD
HETATM   14  O   UNL     1     -41.927  58.426 -57.326  1.00  0.00    -0.267 OA
BRANCH  12  15
HETATM   15  C   UNL     1     -41.588  61.170 -58.385  1.00  0.00     0.037 A 
HETATM   16  C   UNL     1     -42.189  60.723 -59.567  1.00  0.00     0.066 A 
HETATM   17  C   UNL     1     -41.741  61.200 -60.798  1.00  0.00     0.067 A 
HETATM   18  C   UNL     1     -40.710  62.126 -60.876  1.00  0.00     0.036 A 
HETATM   19  C   UNL     1     -40.108  62.578 -59.706  1.00  0.00     0.005 A 
HETATM   20  C   UNL     1     -40.540  62.095 -58.466  1.00  0.00     0.029 A 
BRANCH  17  21
HETATM   21  O   UNL     1     -42.295  60.767 -61.968  1.00  0.00    -0.361 OA
HETATM   22  H   UNL     1     -41.702  60.106 -62.362  1.00  0.00     0.217 HD
ENDBRANCH  17  21
ENDBRANCH  12  15
ENDBRANCH   7  11
BRANCH   1  23
HETATM   23  C   UNL     1     -40.937  55.007 -53.342  1.00  0.00    -0.035 A 
HETATM   24  C   UNL     1     -40.595  54.594 -54.639  1.00  0.00     0.012 A 
HETATM   25  C   UNL     1     -40.118  53.300 -54.880  1.00  0.00     0.037 A 
HETATM   26  C   UNL     1     -39.968  52.400 -53.826  1.00  0.00     0.068 A 
HETATM   27  C   UNL     1     -40.330  52.793 -52.537  1.00  0.00     0.037 A 
HETATM   28  C   UNL     1     -40.806  54.085 -52.293  1.00  0.00     0.012 A 
BRANCH  26  29
HETATM   29  O   UNL     1     -39.490  51.123 -53.924  1.00  0.00    -0.356 OA
HETATM   30  C   UNL     1     -40.385  50.143 -54.436  1.00  0.00     0.210 C 
ENDBRANCH  26  29
ENDBRANCH   1  23
BRANCH   8  31
HETATM   31  C   UNL     1     -44.418  57.960 -51.342  1.00  0.00     0.409 C 
HETATM   32  F   UNL     1     -44.644  59.088 -50.632  1.00  0.00    -0.169 F 
HETATM   33  F   UNL     1     -45.360  57.927 -52.325  1.00  0.00    -0.169 F 
HETATM   34  F   UNL     1     -44.671  56.898 -50.551  1.00  0.00    -0.169 F 
ENDBRANCH   8  31
TORSDOF 6
ENDMDL
MODEL 9
REMARK VINA RESULT:      -8.0      3.713      8.156
REMARK  6 active torsions:
REMARK  status: ('A' for Active; 'I' for Inactive)
REMARK    1  A    between atoms: O_2  and  C_3 
REMARK    2  A    between atoms: C_6  and  C_7 
REMARK    3  A    between atoms: C_13  and  C_14 
REMARK       I    between atoms: C_14  and  N_15 
REMARK    4  A    between atoms: N_15  and  C_16 
REMARK    5  A    between atoms: C_18  and  O_19 
REMARK    6  A    between atoms: C_24  and  C_25 
ROOT
HETATM    1  C   UNL     1     -43.847  59.017 -53.807  1.00  0.00     0.118 C 
HETATM    2  N   UNL     1     -43.594  57.573 -53.672  1.00  0.00    -0.365 N 
HETATM    3  C   UNL     1     -43.427  56.837 -54.809  1.00  0.00     0.138 C 
HETATM    4  N   UNL     1     -43.748  57.360 -56.045  1.00  0.00    -0.240 N 
HETATM    5  N   UNL     1     -43.348  56.595 -57.070  1.00  0.00    -0.181 NA
HETATM    6  C   UNL     1     -42.914  55.484 -56.474  1.00  0.00     0.160 C 
HETATM    7  C   UNL     1     -42.965  55.555 -55.059  1.00  0.00     0.096 C 
HETATM    8  C   UNL     1     -44.266  58.698 -56.268  1.00  0.00     0.221 C 
HETATM    9  C   UNL     1     -44.826  59.271 -54.958  1.00  0.00     0.066 C 
HETATM   10  H   UNL     1     -42.961  57.392 -52.890  1.00  0.00     0.161 HD
ENDROOT
BRANCH   7  11
HETATM   11  C   UNL     1     -42.573  54.486 -54.154  1.00  0.00     0.261 C 
HETATM   12  N   UNL     1     -41.376  53.877 -54.480  1.00  0.00    -0.323 N 
HETATM   13  H   UNL     1     -40.893  54.261 -55.284  1.00  0.00     0.169 HD
HETATM   14  O   UNL     1     -43.276  54.210 -53.188  1.00  0.00    -0.267 OA
BRANCH  12  15
HETATM   15  C   UNL     1     -40.730  52.826 -53.795  1.00  0.00     0.037 A 
HETATM   16  C   UNL     1     -40.458  51.576 -54.361  1.00  0.00     0.066 A 
HETATM   17  C   UNL     1     -39.823  50.593 -53.603  1.00  0.00     0.067 A 
HETATM   18  C   UNL     1     -39.441  50.833 -52.291  1.00  0.00     0.036 A 
HETATM   19  C   UNL     1     -39.706  52.075 -51.719  1.00  0.00     0.005 A 
HETATM   20  C   UNL     1     -40.355  53.064 -52.466  1.00  0.00     0.029 A 
BRANCH  17  21
HETATM   21  O   UNL     1     -39.563  49.358 -54.124  1.00  0.00    -0.361 OA
HETATM   22  H   UNL     1     -40.390  48.998 -54.487  1.00  0.00     0.217 HD
ENDBRANCH  17  21
ENDBRANCH  12  15
ENDBRANCH   7  11
BRANCH   1  23
HETATM   23  C   UNL     1     -44.403  59.578 -52.513  1.00  0.00    -0.035 A 
HETATM   24  C   UNL     1     -44.403  60.963 -52.289  1.00  0.00     0.012 A 
HETATM   25  C   UNL     1     -44.998  61.508 -51.144  1.00  0.00     0.037 A 
HETATM   26  C   UNL     1     -45.609  60.675 -50.208  1.00  0.00     0.068 A 
HETATM   27  C   UNL     1     -45.590  59.295 -50.409  1.00  0.00     0.037 A 
HETATM   28  C   UNL     1     -44.998  58.748 -51.550  1.00  0.00     0.012 A 
BRANCH  26  29
HETATM   29  O   UNL     1     -46.245  61.083 -49.068  1.00  0.00    -0.356 OA
HETATM   30  C   UNL     1     -45.536  60.916 -47.846  1.00  0.00     0.210 C 
ENDBRANCH  26  29
ENDBRANCH   1  23
BRANCH   8  31
HETATM   31  C   UNL     1     -45.343  58.721 -57.331  1.00  0.00     0.409 C 
HETATM   32  F   UNL     1     -46.224  57.704 -57.197  1.00  0.00    -0.169 F 
HETATM   33  F   UNL     1     -46.061  59.873 -57.220  1.00  0.00    -0.169 F 
HETATM   34  F   UNL     1     -44.860  58.704 -58.590  1.00  0.00    -0.169 F 
ENDBRANCH   8  31
TORSDOF 6
ENDMDL
MODEL 10
REMARK VINA RESULT:      -7.9      3.959      6.805
REMARK  6 active torsions:
REMARK  status: ('A' for Active; 'I' for Inactive)
REMARK    1  A    between atoms: O_2  and  C_3 
REMARK    2  A    between atoms: C_6  and  C_7 
REMARK    3  A    between atoms: C_13  and  C_14 
REMARK       I    between atoms: C_14  and  N_15 
REMARK    4  A    between atoms: N_15  and  C_16 
REMARK    5  A    between atoms: C_18  and  O_19 
REMARK    6  A    between atoms: C_24  and  C_25 
ROOT
HETATM    1  C   UNL     1     -43.318  55.544 -55.864  1.00  0.00     0.118 C 
HETATM    2  N   UNL     1     -43.657  56.861 -55.300  1.00  0.00    -0.365 N 
HETATM    3  C   UNL     1     -44.186  57.804 -56.135  1.00  0.00     0.138 C 
HETATM    4  N   UNL     1     -44.156  57.635 -57.504  1.00  0.00    -0.240 N 
HETATM    5  N   UNL     1     -44.880  58.544 -58.171  1.00  0.00    -0.181 NA
HETATM    6  C   UNL     1     -45.242  59.406 -57.221  1.00  0.00     0.160 C 
HETATM    7  C   UNL     1     -44.814  59.021 -55.926  1.00  0.00     0.096 C 
HETATM    8  C   UNL     1     -43.594  56.481 -58.183  1.00  0.00     0.221 C 
HETATM    9  C   UNL     1     -42.658  55.717 -57.236  1.00  0.00     0.066 C 
HETATM   10  H   UNL     1     -44.076  56.757 -54.374  1.00  0.00     0.161 HD
ENDROOT
BRANCH   7  11
HETATM   11  C   UNL     1     -45.050  59.779 -54.707  1.00  0.00     0.261 C 
HETATM   12  N   UNL     1     -44.375  59.298 -53.601  1.00  0.00    -0.323 N 
HETATM   13  H   UNL     1     -43.772  58.502 -53.767  1.00  0.00     0.169 HD
HETATM   14  O   UNL     1     -45.778  60.765 -54.729  1.00  0.00    -0.267 OA
BRANCH  12  15
HETATM   15  C   UNL     1     -44.390  59.821 -52.290  1.00  0.00     0.037 A 
HETATM   16  C   UNL     1     -45.200  59.326 -51.263  1.00  0.00     0.066 A 
HETATM   17  C   UNL     1     -45.156  59.911 -49.998  1.00  0.00     0.067 A 
HETATM   18  C   UNL     1     -44.308  60.977 -49.731  1.00  0.00     0.036 A 
HETATM   19  C   UNL     1     -43.497  61.476 -50.746  1.00  0.00     0.005 A 
HETATM   20  C   UNL     1     -43.544  60.905 -52.023  1.00  0.00     0.029 A 
BRANCH  17  21
HETATM   21  O   UNL     1     -45.950  59.461 -48.983  1.00  0.00    -0.361 OA
HETATM   22  H   UNL     1     -45.616  59.828 -48.147  1.00  0.00     0.217 HD
ENDBRANCH  17  21
ENDBRANCH  12  15
ENDBRANCH   7  11
BRANCH   1  23
HETATM   23  C   UNL     1     -42.391  54.794 -54.927  1.00  0.00    -0.035 A 
HETATM   24  C   UNL     1     -42.808  54.483 -53.624  1.00  0.00     0.012 A 
HETATM   25  C   UNL     1     -42.006  53.709 -52.776  1.00  0.00     0.037 A 
HETATM   26  C   UNL     1     -40.776  53.227 -53.221  1.00  0.00     0.068 A 
HETATM   27  C   UNL     1     -40.341  53.554 -54.506  1.00  0.00     0.037 A 
HETATM   28  C   UNL     1     -41.139  54.325 -55.355  1.00  0.00     0.012 A 
BRANCH  26  29
HETATM   29  O   UNL     1     -39.916  52.442 -52.505  1.00  0.00    -0.356 OA
HETATM   30  C   UNL     1     -39.473  51.244 -53.130  1.00  0.00     0.210 C 
ENDBRANCH  26  29
ENDBRANCH   1  23
BRANCH   8  31
HETATM   31  C   UNL     1     -42.838  56.870 -59.435  1.00  0.00     0.409 C 
HETATM   32  F   UNL     1     -41.971  57.885 -59.221  1.00  0.00    -0.169 F 
HETATM   33  F   UNL     1     -42.097  55.811 -59.862  1.00  0.00    -0.169 F 
HETATM   34  F   UNL     1     -43.638  57.203 -60.468  1.00  0.00    -0.169 F 
ENDBRANCH   8  31
TORSDOF 6
ENDMDL
