MODEL 1
REMARK VINA RESULT:      -8.8      0.000      0.000
REMARK  7 active torsions:
REMARK  status: ('A' for Active; 'I' for Inactive)
REMARK    1  A    between atoms: C_2  and  O_3 
REMARK    2  A    between atoms: O_3  and  C_4 
REMARK    3  A    between atoms: C_4  and  C_5 
REMARK    4  A    between atoms: C_10  and  N_11 
REMARK       I    between atoms: N_11  and  C_12 
REMARK    5  A    between atoms: C_12  and  C_13 
REMARK    6  A    between atoms: C_13  and  N_14 
REMARK    7  A    between atoms: N_18  and  C_19 
ROOT
HETATM    1  N   UNL     1     -42.330  57.804 -56.965  1.00  0.00    -0.323 N 
HETATM    2  C   UNL     1     -43.317  58.108 -56.061  1.00  0.00     0.248 C 
HETATM    3  O   UNL     1     -44.273  58.867 -56.214  1.00  0.00    -0.271 OA
HETATM    4  H   UNL     1     -41.440  57.437 -56.623  1.00  0.00     0.169 HD
ENDROOT
BRANCH   1   5
HETATM    5  C   UNL     1     -42.314  58.156 -58.313  1.00  0.00     0.080 A 
HETATM    6  C   UNL     1     -42.722  57.252 -59.284  1.00  0.00     0.137 A 
HETATM    7  N   UNL     1     -42.567  57.863 -60.505  1.00  0.00    -0.349 N 
HETATM    8  H   UNL     1     -42.775  57.423 -61.392  1.00  0.00     0.166 HD
HETATM    9  C   UNL     1     -42.156  59.163 -60.352  1.00  0.00     0.048 A 
HETATM   10  C   UNL     1     -41.988  59.389 -58.974  1.00  0.00     0.023 A 
HETATM   11  C   UNL     1     -41.942  60.142 -61.337  1.00  0.00     0.070 A 
HETATM   12  C   UNL     1     -41.615  60.690 -58.559  1.00  0.00     0.055 A 
HETATM   13  C   UNL     1     -41.417  61.651 -59.536  1.00  0.00     0.106 A 
HETATM   14  C   UNL     1     -41.569  61.386 -60.870  1.00  0.00     0.107 A 
HETATM   15  O   UNL     1     -41.070  62.947 -59.298  1.00  0.00    -0.323 OA
HETATM   16  O   UNL     1     -41.336  62.477 -61.647  1.00  0.00    -0.323 OA
HETATM   17  C   UNL     1     -41.019  63.465 -60.645  1.00  0.00     0.352 A 
BRANCH   6  18
HETATM   18  C   UNL     1     -43.212  55.906 -59.107  1.00  0.00     0.312 C 
HETATM   19  O   UNL     1     -43.250  55.335 -58.024  1.00  0.00    -0.258 OA
BRANCH  18  20
HETATM   20  O   UNL     1     -43.620  55.404 -60.301  1.00  0.00    -0.317 OA
BRANCH  20  21
HETATM   21  C   UNL     1     -44.893  54.739 -60.321  1.00  0.00     0.175 C 
HETATM   22  C   UNL     1     -45.990  55.782 -60.419  1.00  0.00     0.034 C 
ENDBRANCH  20  21
ENDBRANCH  18  20
ENDBRANCH   6  18
ENDBRANCH   1   5
BRANCH   2  23
HETATM   23  C   UNL     1     -43.174  57.400 -54.710  1.00  0.00     0.337 C 
BRANCH  23  24
HETATM   24  N   UNL     1     -42.408  56.092 -54.886  1.00  0.00    -0.060 N 
HETATM   25  H   UNL     1     -42.312  55.985 -55.911  1.00  0.00     0.280 HD
HETATM   26  C   UNL     1     -40.976  56.171 -54.358  1.00  0.00     0.255 C 
HETATM   27  C   UNL     1     -40.208  54.878 -54.698  1.00  0.00     0.150 C 
HETATM   28  N   UNL     1     -40.941  53.669 -54.287  1.00  0.00    -0.377 N 
HETATM   29  C   UNL     1     -42.357  53.587 -54.694  1.00  0.00     0.150 C 
HETATM   30  C   UNL     1     -43.127  54.877 -54.337  1.00  0.00     0.255 C 
BRANCH  28  31
HETATM   31  C   UNL     1     -40.584  52.992 -53.120  1.00  0.00     0.037 A 
HETATM   32  C   UNL     1     -40.042  51.686 -53.174  1.00  0.00    -0.035 A 
HETATM   33  C   UNL     1     -39.753  50.982 -54.477  1.00  0.00     0.050 C 
HETATM   34  C   UNL     1     -39.732  50.995 -51.986  1.00  0.00     0.011 A 
HETATM   35  C   UNL     1     -39.913  51.595 -50.743  1.00  0.00     0.024 A 
HETATM   36  C   UNL     1     -40.404  52.890 -50.683  1.00  0.00     0.036 A 
HETATM   37 CL   UNL     1     -40.628  53.654 -49.159  1.00  0.00    -0.084 Cl
HETATM   38  C   UNL     1     -40.733  53.582 -51.853  1.00  0.00     0.053 A 
ENDBRANCH  28  31
ENDBRANCH  23  24
ENDBRANCH   2  23
TORSDOF 7
ENDMDL
MODEL 2
REMARK VINA RESULT:      -8.4      2.097      3.760
REMARK  7 active torsions:
REMARK  status: ('A' for Active; 'I' for Inactive)
REMARK    1  A    between atoms: C_2  and  O_3 
REMARK    2  A    between atoms: O_3  and  C_4 
REMARK    3  A    between atoms: C_4  and  C_5 
REMARK    4  A    between atoms: C_10  and  N_11 
REMARK       I    between atoms: N_11  and  C_12 
REMARK    5  A    between atoms: C_12  and  C_13 
REMARK    6  A    between atoms: C_13  and  N_14 
REMARK    7  A    between atoms: N_18  and  C_19 
ROOT
HETATM    1  N   UNL     1     -42.372  57.886 -56.773  1.00  0.00    -0.323 N 
HETATM    2  C   UNL     1     -43.259  57.025 -57.368  1.00  0.00     0.248 C 
HETATM    3  O   UNL     1     -44.202  57.303 -58.108  1.00  0.00    -0.271 OA
HETATM    4  H   UNL     1     -41.860  57.576 -55.945  1.00  0.00     0.169 HD
ENDROOT
BRANCH   1   5
HETATM    5  C   UNL     1     -42.248  59.249 -57.035  1.00  0.00     0.080 A 
HETATM    6  C   UNL     1     -42.122  60.159 -55.995  1.00  0.00     0.137 A 
HETATM    7  N   UNL     1     -42.051  61.412 -56.553  1.00  0.00    -0.349 N 
HETATM    8  H   UNL     1     -41.972  62.269 -56.020  1.00  0.00     0.166 HD
HETATM    9  C   UNL     1     -42.037  61.338 -57.923  1.00  0.00     0.048 A 
HETATM   10  C   UNL     1     -42.156  59.980 -58.268  1.00  0.00     0.023 A 
HETATM   11  C   UNL     1     -41.912  62.376 -58.862  1.00  0.00     0.070 A 
HETATM   12  C   UNL     1     -42.111  59.642 -59.643  1.00  0.00     0.055 A 
HETATM   13  C   UNL     1     -41.976  60.670 -60.560  1.00  0.00     0.106 A 
HETATM   14  C   UNL     1     -41.885  61.983 -60.184  1.00  0.00     0.107 A 
HETATM   15  O   UNL     1     -41.904  60.508 -61.910  1.00  0.00    -0.323 OA
HETATM   16  O   UNL     1     -41.748  62.820 -61.247  1.00  0.00    -0.323 OA
HETATM   17  C   UNL     1     -41.760  61.879 -62.340  1.00  0.00     0.352 A 
BRANCH   6  18
HETATM   18  C   UNL     1     -42.084  59.899 -54.576  1.00  0.00     0.312 C 
HETATM   19  O   UNL     1     -41.059  59.937 -53.906  1.00  0.00    -0.258 OA
BRANCH  18  20
HETATM   20  O   UNL     1     -43.336  59.628 -54.124  1.00  0.00    -0.317 OA
BRANCH  20  21
HETATM   21  C   UNL     1     -43.527  58.365 -53.467  1.00  0.00     0.175 C 
HETATM   22  C   UNL     1     -44.785  57.716 -54.010  1.00  0.00     0.034 C 
ENDBRANCH  20  21
ENDBRANCH  18  20
ENDBRANCH   6  18
ENDBRANCH   1   5
BRANCH   2  23
HETATM   23  C   UNL     1     -43.016  55.547 -57.046  1.00  0.00     0.337 C 
BRANCH  23  24
HETATM   24  N   UNL     1     -42.526  55.402 -55.608  1.00  0.00    -0.060 N 
HETATM   25  H   UNL     1     -42.781  56.298 -55.157  1.00  0.00     0.280 HD
HETATM   26  C   UNL     1     -43.290  54.331 -54.828  1.00  0.00     0.255 C 
HETATM   27  C   UNL     1     -42.857  54.336 -53.349  1.00  0.00     0.150 C 
HETATM   28  N   UNL     1     -41.394  54.271 -53.195  1.00  0.00    -0.377 N 
HETATM   29  C   UNL     1     -40.605  55.224 -53.998  1.00  0.00     0.150 C 
HETATM   30  C   UNL     1     -41.029  55.205 -55.482  1.00  0.00     0.255 C 
BRANCH  28  31
HETATM   31  C   UNL     1     -40.774  53.065 -52.865  1.00  0.00     0.037 A 
HETATM   32  C   UNL     1     -40.390  52.786 -51.531  1.00  0.00    -0.035 A 
HETATM   33  C   UNL     1     -40.686  53.728 -50.390  1.00  0.00     0.050 C 
HETATM   34  C   UNL     1     -39.720  51.586 -51.220  1.00  0.00     0.011 A 
HETATM   35  C   UNL     1     -39.461  50.637 -52.205  1.00  0.00     0.024 A 
HETATM   36  C   UNL     1     -39.872  50.884 -53.505  1.00  0.00     0.036 A 
HETATM   37 CL   UNL     1     -39.570  49.722 -54.737  1.00  0.00    -0.084 Cl
HETATM   38  C   UNL     1     -40.522  52.078 -53.833  1.00  0.00     0.053 A 
ENDBRANCH  28  31
ENDBRANCH  23  24
ENDBRANCH   2  23
TORSDOF 7
ENDMDL
MODEL 3
REMARK VINA RESULT:      -8.2      2.712      3.808
REMARK  7 active torsions:
REMARK  status: ('A' for Active; 'I' for Inactive)
REMARK    1  A    between atoms: C_2  and  O_3 
REMARK    2  A    between atoms: O_3  and  C_4 
REMARK    3  A    between atoms: C_4  and  C_5 
REMARK    4  A    between atoms: C_10  and  N_11 
REMARK       I    between atoms: N_11  and  C_12 
REMARK    5  A    between atoms: C_12  and  C_13 
REMARK    6  A    between atoms: C_13  and  N_14 
REMARK    7  A    between atoms: N_18  and  C_19 
ROOT
HETATM    1  N   UNL     1     -44.827  57.172 -57.220  1.00  0.00    -0.323 N 
HETATM    2  C   UNL     1     -44.223  58.128 -56.443  1.00  0.00     0.248 C 
HETATM    3  O   UNL     1     -43.898  59.269 -56.766  1.00  0.00    -0.271 OA
HETATM    4  H   UNL     1     -44.743  56.189 -56.951  1.00  0.00     0.169 HD
ENDROOT
BRANCH   1   5
HETATM    5  C   UNL     1     -45.364  57.365 -58.491  1.00  0.00     0.080 A 
HETATM    6  C   UNL     1     -44.977  56.556 -59.551  1.00  0.00     0.137 A 
HETATM    7  N   UNL     1     -45.642  56.999 -60.669  1.00  0.00    -0.349 N 
HETATM    8  H   UNL     1     -45.535  56.598 -61.592  1.00  0.00     0.166 HD
HETATM    9  C   UNL     1     -46.514  58.010 -60.351  1.00  0.00     0.048 A 
HETATM   10  C   UNL     1     -46.369  58.269 -58.976  1.00  0.00     0.023 A 
HETATM   11  C   UNL     1     -47.419  58.690 -61.184  1.00  0.00     0.070 A 
HETATM   12  C   UNL     1     -47.213  59.247 -58.396  1.00  0.00     0.055 A 
HETATM   13  C   UNL     1     -48.109  59.903 -59.222  1.00  0.00     0.106 A 
HETATM   14  C   UNL     1     -48.203  59.638 -60.561  1.00  0.00     0.107 A 
HETATM   15  O   UNL     1     -48.993  60.857 -58.815  1.00  0.00    -0.323 OA
HETATM   16  O   UNL     1     -49.156  60.391 -61.174  1.00  0.00    -0.323 OA
HETATM   17  C   UNL     1     -49.654  61.163 -60.062  1.00  0.00     0.352 A 
BRANCH   6  18
HETATM   18  C   UNL     1     -44.046  55.454 -59.545  1.00  0.00     0.312 C 
HETATM   19  O   UNL     1     -44.349  54.306 -59.847  1.00  0.00    -0.258 OA
BRANCH  18  20
HETATM   20  O   UNL     1     -42.815  55.894 -59.174  1.00  0.00    -0.317 OA
BRANCH  20  21
HETATM   21  C   UNL     1     -42.140  56.773 -60.086  1.00  0.00     0.175 C 
HETATM   22  C   UNL     1     -41.748  58.039 -59.349  1.00  0.00     0.034 C 
ENDBRANCH  20  21
ENDBRANCH  18  20
ENDBRANCH   6  18
ENDBRANCH   1   5
BRANCH   2  23
HETATM   23  C   UNL     1     -43.930  57.681 -55.007  1.00  0.00     0.337 C 
BRANCH  23  24
HETATM   24  N   UNL     1     -43.022  56.454 -55.019  1.00  0.00    -0.060 N 
HETATM   25  H   UNL     1     -42.885  56.244 -56.023  1.00  0.00     0.280 HD
HETATM   26  C   UNL     1     -41.623  56.748 -54.478  1.00  0.00     0.255 C 
HETATM   27  C   UNL     1     -40.711  55.518 -54.655  1.00  0.00     0.150 C 
HETATM   28  N   UNL     1     -41.322  54.289 -54.122  1.00  0.00    -0.377 N 
HETATM   29  C   UNL     1     -42.708  54.006 -54.542  1.00  0.00     0.150 C 
HETATM   30  C   UNL     1     -43.622  55.235 -54.347  1.00  0.00     0.255 C 
BRANCH  28  31
HETATM   31  C   UNL     1     -40.929  53.791 -52.879  1.00  0.00     0.037 A 
HETATM   32  C   UNL     1     -40.259  52.548 -52.773  1.00  0.00    -0.035 A 
HETATM   33  C   UNL     1     -39.870  51.732 -53.981  1.00  0.00     0.050 C 
HETATM   34  C   UNL     1     -39.913  52.033 -51.508  1.00  0.00     0.011 A 
HETATM   35  C   UNL     1     -40.183  52.750 -50.347  1.00  0.00     0.024 A 
HETATM   36  C   UNL     1     -40.801  53.987 -50.445  1.00  0.00     0.036 A 
HETATM   37 CL   UNL     1     -41.137  54.895 -49.023  1.00  0.00    -0.084 Cl
HETATM   38  C   UNL     1     -41.167  54.503 -51.691  1.00  0.00     0.053 A 
ENDBRANCH  28  31
ENDBRANCH  23  24
ENDBRANCH   2  23
TORSDOF 7
ENDMDL
MODEL 4
REMARK VINA RESULT:      -8.2      1.877      2.574
REMARK  7 active torsions:
REMARK  status: ('A' for Active; 'I' for Inactive)
REMARK    1  A    between atoms: C_2  and  O_3 
REMARK    2  A    between atoms: O_3  and  C_4 
REMARK    3  A    between atoms: C_4  and  C_5 
REMARK    4  A    between atoms: C_10  and  N_11 
REMARK       I    between atoms: N_11  and  C_12 
REMARK    5  A    between atoms: C_12  and  C_13 
REMARK    6  A    between atoms: C_13  and  N_14 
REMARK    7  A    between atoms: N_18  and  C_19 
ROOT
HETATM    1  N   UNL     1     -42.975  57.428 -58.736  1.00  0.00    -0.323 N 
HETATM    2  C   UNL     1     -43.161  57.123 -57.411  1.00  0.00     0.248 C 
HETATM    3  O   UNL     1     -43.488  57.882 -56.500  1.00  0.00    -0.271 OA
HETATM    4  H   UNL     1     -42.399  56.810 -59.311  1.00  0.00     0.169 HD
ENDROOT
BRANCH   1   5
HETATM    5  C   UNL     1     -43.300  58.632 -59.355  1.00  0.00     0.080 A 
HETATM    6  C   UNL     1     -44.474  58.757 -60.086  1.00  0.00     0.137 A 
HETATM    7  N   UNL     1     -44.506  60.031 -60.597  1.00  0.00    -0.349 N 
HETATM    8  H   UNL     1     -45.247  60.390 -61.186  1.00  0.00     0.166 HD
HETATM    9  C   UNL     1     -43.437  60.765 -60.150  1.00  0.00     0.048 A 
HETATM   10  C   UNL     1     -42.649  59.913 -59.355  1.00  0.00     0.023 A 
HETATM   11  C   UNL     1     -43.134  62.117 -60.386  1.00  0.00     0.070 A 
HETATM   12  C   UNL     1     -41.505  60.465 -58.730  1.00  0.00     0.055 A 
HETATM   13  C   UNL     1     -41.220  61.800 -58.959  1.00  0.00     0.106 A 
HETATM   14  C   UNL     1     -42.000  62.591 -59.758  1.00  0.00     0.107 A 
HETATM   15  O   UNL     1     -40.167  62.478 -58.422  1.00  0.00    -0.323 OA
HETATM   16  O   UNL     1     -41.540  63.869 -59.832  1.00  0.00    -0.323 OA
HETATM   17  C   UNL     1     -40.377  63.791 -58.983  1.00  0.00     0.352 A 
BRANCH   6  18
HETATM   18  C   UNL     1     -45.497  57.765 -60.313  1.00  0.00     0.312 C 
HETATM   19  O   UNL     1     -46.697  58.012 -60.301  1.00  0.00    -0.258 OA
BRANCH  18  20
HETATM   20  O   UNL     1     -44.923  56.557 -60.548  1.00  0.00    -0.317 OA
BRANCH  20  21
HETATM   21  C   UNL     1     -45.686  55.396 -60.184  1.00  0.00     0.175 C 
HETATM   22  C   UNL     1     -44.732  54.261 -59.865  1.00  0.00     0.034 C 
ENDBRANCH  20  21
ENDBRANCH  18  20
ENDBRANCH   6  18
ENDBRANCH   1   5
BRANCH   2  23
HETATM   23  C   UNL     1     -42.918  55.651 -57.062  1.00  0.00     0.337 C 
BRANCH  23  24
HETATM   24  N   UNL     1     -42.558  55.519 -55.585  1.00  0.00    -0.060 N 
HETATM   25  H   UNL     1     -42.920  56.387 -55.153  1.00  0.00     0.280 HD
HETATM   26  C   UNL     1     -43.310  54.383 -54.892  1.00  0.00     0.255 C 
HETATM   27  C   UNL     1     -43.021  54.395 -53.378  1.00  0.00     0.150 C 
HETATM   28  N   UNL     1     -41.579  54.435 -53.085  1.00  0.00    -0.377 N 
HETATM   29  C   UNL     1     -40.789  55.456 -53.800  1.00  0.00     0.150 C 
HETATM   30  C   UNL     1     -41.069  55.430 -55.318  1.00  0.00     0.255 C 
BRANCH  28  31
HETATM   31  C   UNL     1     -40.905  53.272 -52.708  1.00  0.00     0.037 A 
HETATM   32  C   UNL     1     -40.590  53.023 -51.351  1.00  0.00    -0.035 A 
HETATM   33  C   UNL     1     -41.018  53.946 -50.237  1.00  0.00     0.050 C 
HETATM   34  C   UNL     1     -39.865  51.869 -50.990  1.00  0.00     0.011 A 
HETATM   35  C   UNL     1     -39.484  50.936 -51.949  1.00  0.00     0.024 A 
HETATM   36  C   UNL     1     -39.825  51.153 -53.275  1.00  0.00     0.036 A 
HETATM   37 CL   UNL     1     -39.371  50.009 -54.477  1.00  0.00    -0.084 Cl
HETATM   38  C   UNL     1     -40.528  52.301 -53.651  1.00  0.00     0.053 A 
ENDBRANCH  28  31
ENDBRANCH  23  24
ENDBRANCH   2  23
TORSDOF 7
ENDMDL
MODEL 5
REMARK VINA RESULT:      -7.9      4.968      7.528
REMARK  7 active torsions:
REMARK  status: ('A' for Active; 'I' for Inactive)
REMARK    1  A    between atoms: C_2  and  O_3 
REMARK    2  A    between atoms: O_3  and  C_4 
REMARK    3  A    between atoms: C_4  and  C_5 
REMARK    4  A    between atoms: C_10  and  N_11 
REMARK       I    between atoms: N_11  and  C_12 
REMARK    5  A    between atoms: C_12  and  C_13 
REMARK    6  A    between atoms: C_13  and  N_14 
REMARK    7  A    between atoms: N_18  and  C_19 
ROOT
HETATM    1  N   UNL     1     -43.584  59.126 -52.867  1.00  0.00    -0.323 N 
HETATM    2  C   UNL     1     -44.201  57.920 -53.086  1.00  0.00     0.248 C 
HETATM    3  O   UNL     1     -44.742  57.187 -52.259  1.00  0.00    -0.271 OA
HETATM    4  H   UNL     1     -42.903  59.466 -53.549  1.00  0.00     0.169 HD
ENDROOT
BRANCH   1   5
HETATM    5  C   UNL     1     -43.605  59.857 -51.681  1.00  0.00     0.080 A 
HETATM    6  C   UNL     1     -42.566  59.749 -50.766  1.00  0.00     0.137 A 
HETATM    7  N   UNL     1     -42.877  60.551 -49.696  1.00  0.00    -0.349 N 
HETATM    8  H   UNL     1     -42.298  60.651 -48.871  1.00  0.00     0.166 HD
HETATM    9  C   UNL     1     -44.039  61.244 -49.925  1.00  0.00     0.048 A 
HETATM   10  C   UNL     1     -44.530  60.834 -51.177  1.00  0.00     0.023 A 
HETATM   11  C   UNL     1     -44.666  62.208 -49.116  1.00  0.00     0.070 A 
HETATM   12  C   UNL     1     -45.705  61.457 -51.662  1.00  0.00     0.055 A 
HETATM   13  C   UNL     1     -46.310  62.412 -50.864  1.00  0.00     0.106 A 
HETATM   14  C   UNL     1     -45.812  62.769 -49.639  1.00  0.00     0.107 A 
HETATM   15  O   UNL     1     -47.434  63.108 -51.192  1.00  0.00    -0.323 OA
HETATM   16  O   UNL     1     -46.559  63.732 -49.036  1.00  0.00    -0.323 OA
HETATM   17  C   UNL     1     -47.586  63.944 -50.025  1.00  0.00     0.352 A 
BRANCH   6  18
HETATM   18  C   UNL     1     -41.369  58.949 -50.860  1.00  0.00     0.312 C 
HETATM   19  O   UNL     1     -41.255  57.836 -50.360  1.00  0.00    -0.258 OA
BRANCH  18  20
HETATM   20  O   UNL     1     -40.428  59.610 -51.583  1.00  0.00    -0.317 OA
BRANCH  20  21
HETATM   21  C   UNL     1     -39.059  59.249 -51.346  1.00  0.00     0.175 C 
HETATM   22  C   UNL     1     -38.579  59.943 -50.086  1.00  0.00     0.034 C 
ENDBRANCH  20  21
ENDBRANCH  18  20
ENDBRANCH   6  18
ENDBRANCH   1   5
BRANCH   2  23
HETATM   23  C   UNL     1     -44.192  57.463 -54.548  1.00  0.00     0.337 C 
BRANCH  23  24
HETATM   24  N   UNL     1     -43.155  56.361 -54.742  1.00  0.00    -0.060 N 
HETATM   25  H   UNL     1     -42.991  56.338 -55.764  1.00  0.00     0.280 HD
HETATM   26  C   UNL     1     -41.799  56.711 -54.129  1.00  0.00     0.255 C 
HETATM   27  C   UNL     1     -40.756  55.633 -54.487  1.00  0.00     0.150 C 
HETATM   28  N   UNL     1     -41.229  54.273 -54.178  1.00  0.00    -0.377 N 
HETATM   29  C   UNL     1     -42.575  53.917 -54.670  1.00  0.00     0.150 C 
HETATM   30  C   UNL     1     -43.620  54.990 -54.296  1.00  0.00     0.255 C 
BRANCH  28  31
HETATM   31  C   UNL     1     -40.789  53.620 -53.026  1.00  0.00     0.037 A 
HETATM   32  C   UNL     1     -40.200  52.335 -53.101  1.00  0.00    -0.035 A 
HETATM   33  C   UNL     1     -39.948  51.634 -54.412  1.00  0.00     0.050 C 
HETATM   34  C   UNL     1     -39.805  51.665 -51.925  1.00  0.00     0.011 A 
HETATM   35  C   UNL     1     -39.948  52.267 -50.678  1.00  0.00     0.024 A 
HETATM   36  C   UNL     1     -40.486  53.542 -50.601  1.00  0.00     0.036 A 
HETATM   37 CL   UNL     1     -40.664  54.308 -49.071  1.00  0.00    -0.084 Cl
HETATM   38  C   UNL     1     -40.898  54.212 -51.757  1.00  0.00     0.053 A 
ENDBRANCH  28  31
ENDBRANCH  23  24
ENDBRANCH   2  23
TORSDOF 7
ENDMDL
MODEL 6
REMARK VINA RESULT:      -7.9      3.281      4.584
REMARK  7 active torsions:
REMARK  status: ('A' for Active; 'I' for Inactive)
REMARK    1  A    between atoms: C_2  and  O_3 
REMARK    2  A    between atoms: O_3  and  C_4 
REMARK    3  A    between atoms: C_4  and  C_5 
REMARK    4  A    between atoms: C_10  and  N_11 
REMARK       I    between atoms: N_11  and  C_12 
REMARK    5  A    between atoms: C_12  and  C_13 
REMARK    6  A    between atoms: C_13  and  N_14 
REMARK    7  A    between atoms: N_18  and  C_19 
ROOT
HETATM    1  N   UNL     1     -44.725  57.272 -57.188  1.00  0.00    -0.323 N 
HETATM    2  C   UNL     1     -43.381  57.044 -57.343  1.00  0.00     0.248 C 
HETATM    3  O   UNL     1     -42.513  57.847 -57.681  1.00  0.00    -0.271 OA
HETATM    4  H   UNL     1     -45.370  56.480 -57.231  1.00  0.00     0.169 HD
ENDROOT
BRANCH   1   5
HETATM    5  C   UNL     1     -45.355  58.514 -57.204  1.00  0.00     0.080 A 
HETATM    6  C   UNL     1     -46.064  58.931 -58.323  1.00  0.00     0.137 A 
HETATM    7  N   UNL     1     -46.541  60.192 -58.060  1.00  0.00    -0.349 N 
HETATM    8  H   UNL     1     -47.081  60.745 -58.713  1.00  0.00     0.166 HD
HETATM    9  C   UNL     1     -46.240  60.571 -56.775  1.00  0.00     0.048 A 
HETATM   10  C   UNL     1     -45.491  59.530 -56.198  1.00  0.00     0.023 A 
HETATM   11  C   UNL     1     -46.596  61.749 -56.097  1.00  0.00     0.070 A 
HETATM   12  C   UNL     1     -45.107  59.667 -54.842  1.00  0.00     0.055 A 
HETATM   13  C   UNL     1     -45.470  60.826 -54.178  1.00  0.00     0.106 A 
HETATM   14  C   UNL     1     -46.181  61.827 -54.783  1.00  0.00     0.107 A 
HETATM   15  O   UNL     1     -45.188  61.101 -52.874  1.00  0.00    -0.323 OA
HETATM   16  O   UNL     1     -46.437  62.864 -53.941  1.00  0.00    -0.323 OA
HETATM   17  C   UNL     1     -45.805  62.399 -52.732  1.00  0.00     0.352 A 
BRANCH   6  18
HETATM   18  C   UNL     1     -46.280  58.225 -59.562  1.00  0.00     0.312 C 
HETATM   19  O   UNL     1     -46.149  58.737 -60.668  1.00  0.00    -0.258 OA
BRANCH  18  20
HETATM   20  O   UNL     1     -46.627  56.937 -59.303  1.00  0.00    -0.317 OA
BRANCH  20  21
HETATM   21  C   UNL     1     -46.486  56.000 -60.382  1.00  0.00     0.175 C 
HETATM   22  C   UNL     1     -45.205  55.214 -60.185  1.00  0.00     0.034 C 
ENDBRANCH  20  21
ENDBRANCH  18  20
ENDBRANCH   6  18
ENDBRANCH   1   5
BRANCH   2  23
HETATM   23  C   UNL     1     -42.948  55.602 -57.057  1.00  0.00     0.337 C 
BRANCH  23  24
HETATM   24  N   UNL     1     -42.513  55.470 -55.599  1.00  0.00    -0.060 N 
HETATM   25  H   UNL     1     -42.804  56.361 -55.161  1.00  0.00     0.280 HD
HETATM   26  C   UNL     1     -43.286  54.386 -54.849  1.00  0.00     0.255 C 
HETATM   27  C   UNL     1     -42.913  54.401 -53.353  1.00  0.00     0.150 C 
HETATM   28  N   UNL     1     -41.456  54.366 -53.140  1.00  0.00    -0.377 N 
HETATM   29  C   UNL     1     -40.654  55.334 -53.914  1.00  0.00     0.150 C 
HETATM   30  C   UNL     1     -41.019  55.304 -55.414  1.00  0.00     0.255 C 
BRANCH  28  31
HETATM   31  C   UNL     1     -40.826  53.174 -52.783  1.00  0.00     0.037 A 
HETATM   32  C   UNL     1     -40.486  52.907 -51.435  1.00  0.00    -0.035 A 
HETATM   33  C   UNL     1     -40.842  53.847 -50.309  1.00  0.00     0.050 C 
HETATM   34  C   UNL     1     -39.805  51.721 -51.095  1.00  0.00     0.011 A 
HETATM   35  C   UNL     1     -39.491  50.775 -52.065  1.00  0.00     0.024 A 
HETATM   36  C   UNL     1     -39.858  51.009 -53.381  1.00  0.00     0.036 A 
HETATM   37 CL   UNL     1     -39.489  49.848 -54.595  1.00  0.00    -0.084 Cl
HETATM   38  C   UNL     1     -40.519  52.189 -53.737  1.00  0.00     0.053 A 
ENDBRANCH  28  31
ENDBRANCH  23  24
ENDBRANCH   2  23
TORSDOF 7
ENDMDL
MODEL 7
REMARK VINA RESULT:      -7.9      4.147      9.959
REMARK  7 active torsions:
REMARK  status: ('A' for Active; 'I' for Inactive)
REMARK    1  A    between atoms: C_2  and  O_3 
REMARK    2  A    between atoms: O_3  and  C_4 
REMARK    3  A    between atoms: C_4  and  C_5 
REMARK    4  A    between atoms: C_10  and  N_11 
REMARK       I    between atoms: N_11  and  C_12 
REMARK    5  A    between atoms: C_12  and  C_13 
REMARK    6  A    between atoms: C_13  and  N_14 
REMARK    7  A    between atoms: N_18  and  C_19 
ROOT
HETATM    1  N   UNL     1     -41.449  55.353 -55.608  1.00  0.00    -0.323 N 
HETATM    2  C   UNL     1     -42.595  55.043 -56.294  1.00  0.00     0.248 C 
HETATM    3  O   UNL     1     -43.456  54.217 -55.993  1.00  0.00    -0.271 OA
HETATM    4  H   UNL     1     -40.675  55.795 -56.109  1.00  0.00     0.169 HD
ENDROOT
BRANCH   1   5
HETATM    5  C   UNL     1     -41.115  54.921 -54.326  1.00  0.00     0.080 A 
HETATM    6  C   UNL     1     -41.275  55.763 -53.234  1.00  0.00     0.137 A 
HETATM    7  N   UNL     1     -40.840  55.081 -52.123  1.00  0.00    -0.349 N 
HETATM    8  H   UNL     1     -40.828  55.466 -51.187  1.00  0.00     0.166 HD
HETATM    9  C   UNL     1     -40.486  53.795 -52.446  1.00  0.00     0.048 A 
HETATM   10  C   UNL     1     -40.651  53.653 -53.835  1.00  0.00     0.023 A 
HETATM   11  C   UNL     1     -40.053  52.761 -51.600  1.00  0.00     0.070 A 
HETATM   12  C   UNL     1     -40.398  52.382 -54.404  1.00  0.00     0.055 A 
HETATM   13  C   UNL     1     -39.981  51.365 -53.561  1.00  0.00     0.106 A 
HETATM   14  C   UNL     1     -39.811  51.550 -52.216  1.00  0.00     0.107 A 
HETATM   15  O   UNL     1     -39.711  50.088 -53.951  1.00  0.00    -0.323 OA
HETATM   16  O   UNL     1     -39.409  50.415 -51.583  1.00  0.00    -0.323 OA
HETATM   17  C   UNL     1     -39.346  49.491 -52.688  1.00  0.00     0.352 A 
BRANCH   6  18
HETATM   18  C   UNL     1     -41.782  57.113 -53.209  1.00  0.00     0.312 C 
HETATM   19  O   UNL     1     -41.421  57.989 -53.987  1.00  0.00    -0.258 OA
BRANCH  18  20
HETATM   20  O   UNL     1     -42.706  57.241 -52.221  1.00  0.00    -0.317 OA
BRANCH  20  21
HETATM   21  C   UNL     1     -44.085  57.181 -52.614  1.00  0.00     0.175 C 
HETATM   22  C   UNL     1     -44.927  57.870 -51.557  1.00  0.00     0.034 C 
ENDBRANCH  20  21
ENDBRANCH  18  20
ENDBRANCH   6  18
ENDBRANCH   1   5
BRANCH   2  23
HETATM   23  C   UNL     1     -42.791  55.839 -57.589  1.00  0.00     0.337 C 
BRANCH  23  24
HETATM   24  N   UNL     1     -44.121  56.587 -57.543  1.00  0.00    -0.060 N 
HETATM   25  H   UNL     1     -44.805  55.877 -57.227  1.00  0.00     0.280 HD
HETATM   26  C   UNL     1     -44.151  57.675 -56.471  1.00  0.00     0.255 C 
HETATM   27  C   UNL     1     -45.561  58.290 -56.371  1.00  0.00     0.150 C 
HETATM   28  N   UNL     1     -46.079  58.715 -57.682  1.00  0.00    -0.377 N 
HETATM   29  C   UNL     1     -45.989  57.729 -58.777  1.00  0.00     0.150 C 
HETATM   30  C   UNL     1     -44.571  57.128 -58.885  1.00  0.00     0.255 C 
BRANCH  28  31
HETATM   31  C   UNL     1     -46.051  60.062 -58.047  1.00  0.00     0.037 A 
HETATM   32  C   UNL     1     -47.251  60.795 -58.210  1.00  0.00    -0.035 A 
HETATM   33  C   UNL     1     -48.609  60.198 -57.935  1.00  0.00     0.050 C 
HETATM   34  C   UNL     1     -47.210  62.141 -58.628  1.00  0.00     0.011 A 
HETATM   35  C   UNL     1     -45.995  62.784 -58.845  1.00  0.00     0.024 A 
HETATM   36  C   UNL     1     -44.815  62.084 -58.647  1.00  0.00     0.036 A 
HETATM   37 CL   UNL     1     -43.302  62.862 -58.902  1.00  0.00    -0.084 Cl
HETATM   38  C   UNL     1     -44.840  60.744 -58.250  1.00  0.00     0.053 A 
ENDBRANCH  28  31
ENDBRANCH  23  24
ENDBRANCH   2  23
TORSDOF 7
ENDMDL
MODEL 8
REMARK VINA RESULT:      -7.8      3.309      5.027
REMARK  7 active torsions:
REMARK  status: ('A' for Active; 'I' for Inactive)
REMARK    1  A    between atoms: C_2  and  O_3 
REMARK    2  A    between atoms: O_3  and  C_4 
REMARK    3  A    between atoms: C_4  and  C_5 
REMARK    4  A    between atoms: C_10  and  N_11 
REMARK       I    between atoms: N_11  and  C_12 
REMARK    5  A    between atoms: C_12  and  C_13 
REMARK    6  A    between atoms: C_13  and  N_14 
REMARK    7  A    between atoms: N_18  and  C_19 
ROOT
HETATM    1  N   UNL     1     -44.769  57.191 -56.891  1.00  0.00    -0.323 N 
HETATM    2  C   UNL     1     -43.691  56.912 -57.692  1.00  0.00     0.248 C 
HETATM    3  O   UNL     1     -43.254  57.579 -58.629  1.00  0.00    -0.271 OA
HETATM    4  H   UNL     1     -45.220  56.427 -56.383  1.00  0.00     0.169 HD
ENDROOT
BRANCH   1   5
HETATM    5  C   UNL     1     -45.484  58.386 -56.861  1.00  0.00     0.080 A 
HETATM    6  C   UNL     1     -45.402  59.231 -55.761  1.00  0.00     0.137 A 
HETATM    7  N   UNL     1     -46.229  60.300 -56.003  1.00  0.00    -0.349 N 
HETATM    8  H   UNL     1     -46.375  61.065 -55.357  1.00  0.00     0.166 HD
HETATM    9  C   UNL     1     -46.775  60.222 -57.260  1.00  0.00     0.048 A 
HETATM   10  C   UNL     1     -46.322  59.023 -57.838  1.00  0.00     0.023 A 
HETATM   11  C   UNL     1     -47.617  61.138 -57.915  1.00  0.00     0.070 A 
HETATM   12  C   UNL     1     -46.713  58.744 -59.170  1.00  0.00     0.055 A 
HETATM   13  C   UNL     1     -47.533  59.656 -59.811  1.00  0.00     0.106 A 
HETATM   14  C   UNL     1     -47.970  60.803 -59.205  1.00  0.00     0.107 A 
HETATM   15  O   UNL     1     -47.983  59.538 -61.091  1.00  0.00    -0.323 OA
HETATM   16  O   UNL     1     -48.755  61.555 -60.023  1.00  0.00    -0.323 OA
HETATM   17  C   UNL     1     -48.760  60.748 -61.218  1.00  0.00     0.352 A 
BRANCH   6  18
HETATM   18  C   UNL     1     -44.626  59.061 -54.557  1.00  0.00     0.312 C 
HETATM   19  O   UNL     1     -45.042  59.333 -53.437  1.00  0.00    -0.258 OA
BRANCH  18  20
HETATM   20  O   UNL     1     -43.404  58.554 -54.864  1.00  0.00    -0.317 OA
BRANCH  20  21
HETATM   21  C   UNL     1     -42.339  59.500 -55.046  1.00  0.00     0.175 C 
HETATM   22  C   UNL     1     -41.401  59.418 -53.858  1.00  0.00     0.034 C 
ENDBRANCH  20  21
ENDBRANCH  18  20
ENDBRANCH   6  18
ENDBRANCH   1   5
BRANCH   2  23
HETATM   23  C   UNL     1     -42.971  55.604 -57.349  1.00  0.00     0.337 C 
BRANCH  23  24
HETATM   24  N   UNL     1     -42.690  55.541 -55.850  1.00  0.00    -0.060 N 
HETATM   25  H   UNL     1     -43.152  56.385 -55.466  1.00  0.00     0.280 HD
HETATM   26  C   UNL     1     -43.382  54.362 -55.167  1.00  0.00     0.255 C 
HETATM   27  C   UNL     1     -43.187  54.438 -53.640  1.00  0.00     0.150 C 
HETATM   28  N   UNL     1     -41.774  54.612 -53.265  1.00  0.00    -0.377 N 
HETATM   29  C   UNL     1     -41.034  55.681 -53.965  1.00  0.00     0.150 C 
HETATM   30  C   UNL     1     -41.218  55.592 -55.495  1.00  0.00     0.255 C 
BRANCH  28  31
HETATM   31  C   UNL     1     -41.025  53.524 -52.815  1.00  0.00     0.037 A 
HETATM   32  C   UNL     1     -40.633  53.424 -51.458  1.00  0.00    -0.035 A 
HETATM   33  C   UNL     1     -41.052  54.432 -50.418  1.00  0.00     0.050 C 
HETATM   34  C   UNL     1     -39.835  52.345 -51.028  1.00  0.00     0.011 A 
HETATM   35  C   UNL     1     -39.454  51.340 -51.912  1.00  0.00     0.024 A 
HETATM   36  C   UNL     1     -39.870  51.409 -53.232  1.00  0.00     0.036 A 
HETATM   37 CL   UNL     1     -39.419  50.174 -54.341  1.00  0.00    -0.084 Cl
HETATM   38  C   UNL     1     -40.647  52.482 -53.679  1.00  0.00     0.053 A 
ENDBRANCH  28  31
ENDBRANCH  23  24
ENDBRANCH   2  23
TORSDOF 7
ENDMDL
MODEL 9
REMARK VINA RESULT:      -7.6      4.086     10.351
REMARK  7 active torsions:
REMARK  status: ('A' for Active; 'I' for Inactive)
REMARK    1  A    between atoms: C_2  and  O_3 
REMARK    2  A    between atoms: O_3  and  C_4 
REMARK    3  A    between atoms: C_4  and  C_5 
REMARK    4  A    between atoms: C_10  and  N_11 
REMARK       I    between atoms: N_11  and  C_12 
REMARK    5  A    between atoms: C_12  and  C_13 
REMARK    6  A    between atoms: C_13  and  N_14 
REMARK    7  A    between atoms: N_18  and  C_19 
ROOT
HETATM    1  N   UNL     1     -42.694  55.772 -53.717  1.00  0.00    -0.323 N 
HETATM    2  C   UNL     1     -42.398  56.106 -55.014  1.00  0.00     0.248 C 
HETATM    3  O   UNL     1     -41.326  55.970 -55.603  1.00  0.00    -0.271 OA
HETATM    4  H   UNL     1     -43.488  56.225 -53.257  1.00  0.00     0.169 HD
ENDROOT
BRANCH   1   5
HETATM    5  C   UNL     1     -41.887  55.038 -52.852  1.00  0.00     0.080 A 
HETATM    6  C   UNL     1     -41.633  55.493 -51.565  1.00  0.00     0.137 A 
HETATM    7  N   UNL     1     -40.792  54.587 -50.967  1.00  0.00    -0.349 N 
HETATM    8  H   UNL     1     -40.430  54.679 -50.026  1.00  0.00     0.166 HD
HETATM    9  C   UNL     1     -40.561  53.515 -51.792  1.00  0.00     0.048 A 
HETATM   10  C   UNL     1     -41.243  53.762 -52.997  1.00  0.00     0.023 A 
HETATM   11  C   UNL     1     -39.815  52.352 -51.540  1.00  0.00     0.070 A 
HETATM   12  C   UNL     1     -41.200  52.760 -53.997  1.00  0.00     0.055 A 
HETATM   13  C   UNL     1     -40.471  51.613 -53.736  1.00  0.00     0.106 A 
HETATM   14  C   UNL     1     -39.802  51.420 -52.558  1.00  0.00     0.107 A 
HETATM   15  O   UNL     1     -40.343  50.557 -54.587  1.00  0.00    -0.323 OA
HETATM   16  O   UNL     1     -39.163  50.220 -52.513  1.00  0.00    -0.323 OA
HETATM   17  C   UNL     1     -39.509  49.677 -53.803  1.00  0.00     0.352 A 
BRANCH   6  18
HETATM   18  C   UNL     1     -42.121  56.691 -50.926  1.00  0.00     0.312 C 
HETATM   19  O   UNL     1     -43.296  57.038 -50.938  1.00  0.00    -0.258 OA
BRANCH  18  20
HETATM   20  O   UNL     1     -41.094  57.339 -50.317  1.00  0.00    -0.317 OA
BRANCH  20  21
HETATM   21  C   UNL     1     -40.540  58.467 -51.012  1.00  0.00     0.175 C 
HETATM   22  C   UNL     1     -40.465  59.643 -50.057  1.00  0.00     0.034 C 
ENDBRANCH  20  21
ENDBRANCH  18  20
ENDBRANCH   6  18
ENDBRANCH   1   5
BRANCH   2  23
HETATM   23  C   UNL     1     -43.566  56.723 -55.790  1.00  0.00     0.337 C 
BRANCH  23  24
HETATM   24  N   UNL     1     -43.044  57.444 -57.030  1.00  0.00    -0.060 N 
HETATM   25  H   UNL     1     -42.015  57.339 -56.975  1.00  0.00     0.280 HD
HETATM   26  C   UNL     1     -43.448  56.752 -58.331  1.00  0.00     0.255 C 
HETATM   27  C   UNL     1     -42.769  57.436 -59.534  1.00  0.00     0.150 C 
HETATM   28  N   UNL     1     -42.971  58.894 -59.535  1.00  0.00    -0.377 N 
HETATM   29  C   UNL     1     -42.682  59.600 -58.271  1.00  0.00     0.150 C 
HETATM   30  C   UNL     1     -43.377  58.922 -57.070  1.00  0.00     0.255 C 
BRANCH  28  31
HETATM   31  C   UNL     1     -43.928  59.471 -60.371  1.00  0.00     0.037 A 
HETATM   32  C   UNL     1     -43.544  60.329 -61.430  1.00  0.00    -0.035 A 
HETATM   33  C   UNL     1     -42.100  60.610 -61.762  1.00  0.00     0.050 C 
HETATM   34  C   UNL     1     -44.523  60.944 -62.236  1.00  0.00     0.011 A 
HETATM   35  C   UNL     1     -45.877  60.692 -62.034  1.00  0.00     0.024 A 
HETATM   36  C   UNL     1     -46.258  59.821 -61.025  1.00  0.00     0.036 A 
HETATM   37 CL   UNL     1     -47.925  59.487 -60.763  1.00  0.00    -0.084 Cl
HETATM   38  C   UNL     1     -45.300  59.216 -60.206  1.00  0.00     0.053 A 
ENDBRANCH  28  31
ENDBRANCH  23  24
ENDBRANCH   2  23
TORSDOF 7
ENDMDL
MODEL 10
REMARK VINA RESULT:      -7.6      5.128      9.464
REMARK  7 active torsions:
REMARK  status: ('A' for Active; 'I' for Inactive)
REMARK    1  A    between atoms: C_2  and  O_3 
REMARK    2  A    between atoms: O_3  and  C_4 
REMARK    3  A    between atoms: C_4  and  C_5 
REMARK    4  A    between atoms: C_10  and  N_11 
REMARK       I    between atoms: N_11  and  C_12 
REMARK    5  A    between atoms: C_12  and  C_13 
REMARK    6  A    between atoms: C_13  and  N_14 
REMARK    7  A    between atoms: N_18  and  C_19 
ROOT
HETATM    1  N   UNL     1     -41.258  56.341 -52.524  1.00  0.00    -0.323 N 
HETATM    2  C   UNL     1     -41.696  56.431 -51.227  1.00  0.00     0.248 C 
HETATM    3  O   UNL     1     -42.364  55.613 -50.596  1.00  0.00    -0.271 OA
HETATM    4  H   UNL     1     -41.010  57.197 -53.024  1.00  0.00     0.169 HD
ENDROOT
BRANCH   1   5
HETATM    5  C   UNL     1     -41.328  55.213 -53.338  1.00  0.00     0.080 A 
HETATM    6  C   UNL     1     -41.844  55.301 -54.624  1.00  0.00     0.137 A 
HETATM    7  N   UNL     1     -41.814  54.039 -55.165  1.00  0.00    -0.349 N 
HETATM    8  H   UNL     1     -42.148  53.809 -56.093  1.00  0.00     0.166 HD
HETATM    9  C   UNL     1     -41.215  53.152 -54.306  1.00  0.00     0.048 A 
HETATM   10  C   UNL     1     -40.889  53.860 -53.136  1.00  0.00     0.023 A 
HETATM   11  C   UNL     1     -40.933  51.789 -54.501  1.00  0.00     0.070 A 
HETATM   12  C   UNL     1     -40.205  53.162 -52.112  1.00  0.00     0.055 A 
HETATM   13  C   UNL     1     -39.921  51.823 -52.316  1.00  0.00     0.106 A 
HETATM   14  C   UNL     1     -40.276  51.163 -53.462  1.00  0.00     0.107 A 
HETATM   15  O   UNL     1     -39.260  51.020 -51.435  1.00  0.00    -0.323 OA
HETATM   16  O   UNL     1     -39.888  49.859 -53.452  1.00  0.00    -0.323 OA
HETATM   17  C   UNL     1     -39.245  49.774 -52.164  1.00  0.00     0.352 A 
BRANCH   6  18
HETATM   18  C   UNL     1     -42.346  56.466 -55.311  1.00  0.00     0.312 C 
HETATM   19  O   UNL     1     -42.127  56.705 -56.492  1.00  0.00    -0.258 OA
BRANCH  18  20
HETATM   20  O   UNL     1     -43.087  57.219 -54.457  1.00  0.00    -0.317 OA
BRANCH  20  21
HETATM   21  C   UNL     1     -44.501  56.966 -54.434  1.00  0.00     0.175 C 
HETATM   22  C   UNL     1     -45.211  58.081 -55.177  1.00  0.00     0.034 C 
ENDBRANCH  20  21
ENDBRANCH  18  20
ENDBRANCH   6  18
ENDBRANCH   1   5
BRANCH   2  23
HETATM   23  C   UNL     1     -41.286  57.723 -50.511  1.00  0.00     0.337 C 
BRANCH  23  24
HETATM   24  N   UNL     1     -42.156  58.882 -50.992  1.00  0.00    -0.060 N 
HETATM   25  H   UNL     1     -41.865  59.032 -51.975  1.00  0.00     0.280 HD
HETATM   26  C   UNL     1     -43.638  58.518 -51.066  1.00  0.00     0.255 C 
HETATM   27  C   UNL     1     -44.442  59.672 -51.699  1.00  0.00     0.150 C 
HETATM   28  N   UNL     1     -44.166  60.965 -51.051  1.00  0.00    -0.377 N 
HETATM   29  C   UNL     1     -42.744  61.322 -50.873  1.00  0.00     0.150 C 
HETATM   30  C   UNL     1     -41.946  60.171 -50.224  1.00  0.00     0.255 C 
BRANCH  28  31
HETATM   31  C   UNL     1     -45.066  61.496 -50.127  1.00  0.00     0.037 A 
HETATM   32  C   UNL     1     -46.018  62.469 -50.516  1.00  0.00    -0.035 A 
HETATM   33  C   UNL     1     -46.164  62.933 -51.944  1.00  0.00     0.050 C 
HETATM   34  C   UNL     1     -46.888  63.033 -49.562  1.00  0.00     0.011 A 
HETATM   35  C   UNL     1     -46.859  62.617 -48.235  1.00  0.00     0.024 A 
HETATM   36  C   UNL     1     -45.958  61.634 -47.854  1.00  0.00     0.036 A 
HETATM   37 CL   UNL     1     -45.910  61.099 -46.220  1.00  0.00    -0.084 Cl
HETATM   38  C   UNL     1     -45.076  61.078 -48.785  1.00  0.00     0.053 A 
ENDBRANCH  28  31
ENDBRANCH  23  24
ENDBRANCH   2  23
TORSDOF 7
ENDMDL
