MODEL 1
REMARK VINA RESULT:      -8.7      0.000      0.000
REMARK  3 active torsions:
REMARK  status: ('A' for Active; 'I' for Inactive)
REMARK    1  A    between atoms: O_2  and  C_3 
REMARK    2  A    between atoms: C_7  and  C_8 
REMARK       I    between atoms: C_8  and  N_9 
REMARK    3  A    between atoms: C_15  and  C_16 
ROOT
HETATM    1  C   UNL     1     -43.000  58.494 -56.769  1.00  0.00     0.254 C 
HETATM    2  N   UNL     1     -42.649  57.718 -55.662  1.00  0.00    -0.342 N 
HETATM    3  C   UNL     1     -42.701  56.232 -55.694  1.00  0.00     0.187 C 
HETATM    4  C   UNL     1     -42.028  55.674 -54.487  1.00  0.00     0.077 A 
HETATM    5  C   UNL     1     -41.639  56.419 -53.403  1.00  0.00     0.039 A 
HETATM    6  N   UNL     1     -41.091  55.540 -52.522  1.00  0.00    -0.342 N 
HETATM    7  H   UNL     1     -40.700  55.746 -51.611  1.00  0.00     0.167 HD
HETATM    8  C   UNL     1     -41.142  54.284 -53.098  1.00  0.00     0.141 A 
HETATM    9  N   UNL     1     -41.712  54.355 -54.294  1.00  0.00    -0.231 NA
HETATM   10  C   UNL     1     -41.782  57.883 -53.283  1.00  0.00     0.079 C 
HETATM   11  C   UNL     1     -42.808  58.364 -54.335  1.00  0.00     0.132 C 
HETATM   12  O   UNL     1     -43.338  59.674 -56.693  1.00  0.00    -0.267 OA
ENDROOT
BRANCH   1  13
HETATM   13  C   UNL     1     -42.984  57.895 -58.118  1.00  0.00     0.037 A 
HETATM   14  C   UNL     1     -41.870  58.014 -58.944  1.00  0.00     0.036 A 
HETATM   15  C   UNL     1     -41.957  57.465 -60.209  1.00  0.00     0.120 A 
HETATM   16  N   UNL     1     -43.059  56.845 -60.686  1.00  0.00    -0.237 NA
HETATM   17  C   UNL     1     -44.133  56.785 -59.868  1.00  0.00     0.164 A 
HETATM   18  C   UNL     1     -44.147  57.292 -58.584  1.00  0.00     0.075 A 
BRANCH  17  19
HETATM   19  O   UNL     1     -45.301  56.189 -60.300  1.00  0.00    -0.339 OA
HETATM   20  C   UNL     1     -45.080  54.981 -61.020  1.00  0.00     0.211 C 
ENDBRANCH  17  19
ENDBRANCH   1  13
BRANCH   8  21
HETATM   21  C   UNL     1     -40.618  53.072 -52.461  1.00  0.00     0.049 A 
HETATM   22  C   UNL     1     -40.007  52.042 -53.192  1.00  0.00     0.133 A 
HETATM   23  F   UNL     1     -39.881  52.139 -54.526  1.00  0.00    -0.205 F 
HETATM   24  C   UNL     1     -39.517  50.897 -52.571  1.00  0.00     0.085 A 
HETATM   25  C   UNL     1     -39.640  50.772 -51.195  1.00  0.00     0.119 A 
HETATM   26  F   UNL     1     -39.176  49.673 -50.589  1.00  0.00    -0.206 F 
HETATM   27  C   UNL     1     -40.240  51.772 -50.436  1.00  0.00     0.043 A 
HETATM   28  C   UNL     1     -40.724  52.921 -51.068  1.00  0.00     0.021 A 
ENDBRANCH   8  21
TORSDOF 3
ENDMDL
MODEL 2
REMARK VINA RESULT:      -8.4      1.568      2.196
REMARK  3 active torsions:
REMARK  status: ('A' for Active; 'I' for Inactive)
REMARK    1  A    between atoms: O_2  and  C_3 
REMARK    2  A    between atoms: C_7  and  C_8 
REMARK       I    between atoms: C_8  and  N_9 
REMARK    3  A    between atoms: C_15  and  C_16 
ROOT
HETATM    1  C   UNL     1     -44.060  58.821 -56.367  1.00  0.00     0.254 C 
HETATM    2  N   UNL     1     -43.297  57.970 -55.563  1.00  0.00    -0.342 N 
HETATM    3  C   UNL     1     -43.626  56.527 -55.410  1.00  0.00     0.187 C 
HETATM    4  C   UNL     1     -42.509  55.821 -54.722  1.00  0.00     0.077 A 
HETATM    5  C   UNL     1     -41.455  56.451 -54.111  1.00  0.00     0.039 A 
HETATM    6  N   UNL     1     -40.678  55.464 -53.591  1.00  0.00    -0.342 N 
HETATM    7  H   UNL     1     -39.816  55.568 -53.070  1.00  0.00     0.167 HD
HETATM    8  C   UNL     1     -41.268  54.255 -53.915  1.00  0.00     0.141 A 
HETATM    9  N   UNL     1     -42.384  54.463 -54.601  1.00  0.00    -0.231 NA
HETATM   10  C   UNL     1     -41.239  57.911 -54.081  1.00  0.00     0.079 C 
HETATM   11  C   UNL     1     -42.570  58.612 -54.440  1.00  0.00     0.132 C 
HETATM   12  O   UNL     1     -44.078  60.043 -56.238  1.00  0.00    -0.267 OA
ENDROOT
BRANCH   1  13
HETATM   13  C   UNL     1     -44.906  58.254 -57.435  1.00  0.00     0.037 A 
HETATM   14  C   UNL     1     -46.295  58.271 -57.338  1.00  0.00     0.036 A 
HETATM   15  C   UNL     1     -47.010  57.676 -58.359  1.00  0.00     0.120 A 
HETATM   16  N   UNL     1     -46.439  57.069 -59.423  1.00  0.00    -0.237 NA
HETATM   17  C   UNL     1     -45.088  57.038 -59.462  1.00  0.00     0.164 A 
HETATM   18  C   UNL     1     -44.281  57.611 -58.499  1.00  0.00     0.075 A 
BRANCH  17  19
HETATM   19  O   UNL     1     -44.438  56.411 -60.506  1.00  0.00    -0.339 OA
HETATM   20  C   UNL     1     -44.991  55.139 -60.827  1.00  0.00     0.211 C 
ENDBRANCH  17  19
ENDBRANCH   1  13
BRANCH   8  21
HETATM   21  C   UNL     1     -40.706  52.950 -53.550  1.00  0.00     0.049 A 
HETATM   22  C   UNL     1     -40.197  52.682 -52.271  1.00  0.00     0.133 A 
HETATM   23  F   UNL     1     -40.211  53.633 -51.322  1.00  0.00    -0.205 F 
HETATM   24  C   UNL     1     -39.664  51.439 -51.943  1.00  0.00     0.085 A 
HETATM   25  C   UNL     1     -39.634  50.444 -52.908  1.00  0.00     0.119 A 
HETATM   26  F   UNL     1     -39.120  49.246 -52.604  1.00  0.00    -0.206 F 
HETATM   27  C   UNL     1     -40.129  50.672 -54.187  1.00  0.00     0.043 A 
HETATM   28  C   UNL     1     -40.667  51.922 -54.506  1.00  0.00     0.021 A 
ENDBRANCH   8  21
TORSDOF 3
ENDMDL
MODEL 3
REMARK VINA RESULT:      -8.1      4.086      6.728
REMARK  3 active torsions:
REMARK  status: ('A' for Active; 'I' for Inactive)
REMARK    1  A    between atoms: O_2  and  C_3 
REMARK    2  A    between atoms: C_7  and  C_8 
REMARK       I    between atoms: C_8  and  N_9 
REMARK    3  A    between atoms: C_15  and  C_16 
ROOT
HETATM    1  C   UNL     1     -45.110  60.076 -52.682  1.00  0.00     0.254 C 
HETATM    2  N   UNL     1     -44.473  58.870 -52.987  1.00  0.00    -0.342 N 
HETATM    3  C   UNL     1     -43.255  58.418 -52.262  1.00  0.00     0.187 C 
HETATM    4  C   UNL     1     -42.955  57.000 -52.607  1.00  0.00     0.077 A 
HETATM    5  C   UNL     1     -43.566  56.303 -53.618  1.00  0.00     0.039 A 
HETATM    6  N   UNL     1     -43.001  55.066 -53.616  1.00  0.00    -0.342 N 
HETATM    7  H   UNL     1     -43.212  54.292 -54.233  1.00  0.00     0.167 HD
HETATM    8  C   UNL     1     -42.072  55.034 -52.591  1.00  0.00     0.141 A 
HETATM    9  N   UNL     1     -42.035  56.207 -51.973  1.00  0.00    -0.231 NA
HETATM   10  C   UNL     1     -44.640  56.828 -54.483  1.00  0.00     0.079 C 
HETATM   11  C   UNL     1     -44.650  58.370 -54.373  1.00  0.00     0.132 C 
HETATM   12  O   UNL     1     -45.853  60.667 -53.462  1.00  0.00    -0.267 OA
ENDROOT
BRANCH   1  13
HETATM   13  C   UNL     1     -44.894  60.704 -51.364  1.00  0.00     0.037 A 
HETATM   14  C   UNL     1     -43.946  61.709 -51.192  1.00  0.00     0.036 A 
HETATM   15  C   UNL     1     -43.775  62.208 -49.915  1.00  0.00     0.120 A 
HETATM   16  N   UNL     1     -44.457  61.765 -48.837  1.00  0.00    -0.237 NA
HETATM   17  C   UNL     1     -45.340  60.761 -49.037  1.00  0.00     0.164 A 
HETATM   18  C   UNL     1     -45.593  60.200 -50.272  1.00  0.00     0.075 A 
BRANCH  17  19
HETATM   19  O   UNL     1     -46.052  60.242 -47.975  1.00  0.00    -0.339 OA
HETATM   20  C   UNL     1     -45.617  60.737 -46.713  1.00  0.00     0.211 C 
ENDBRANCH  17  19
ENDBRANCH   1  13
BRANCH   8  21
HETATM   21  C   UNL     1     -41.271  53.852 -52.254  1.00  0.00     0.049 A 
HETATM   22  C   UNL     1     -41.105  53.410 -50.933  1.00  0.00     0.133 A 
HETATM   23  F   UNL     1     -41.688  54.069 -49.918  1.00  0.00    -0.205 F 
HETATM   24  C   UNL     1     -40.340  52.288 -50.629  1.00  0.00     0.085 A 
HETATM   25  C   UNL     1     -39.724  51.595 -51.660  1.00  0.00     0.119 A 
HETATM   26  F   UNL     1     -38.982  50.517 -51.379  1.00  0.00    -0.206 F 
HETATM   27  C   UNL     1     -39.865  52.003 -52.982  1.00  0.00     0.043 A 
HETATM   28  C   UNL     1     -40.640  53.128 -53.278  1.00  0.00     0.021 A 
ENDBRANCH   8  21
TORSDOF 3
ENDMDL
MODEL 4
REMARK VINA RESULT:      -8.0      3.675      6.315
REMARK  3 active torsions:
REMARK  status: ('A' for Active; 'I' for Inactive)
REMARK    1  A    between atoms: O_2  and  C_3 
REMARK    2  A    between atoms: C_7  and  C_8 
REMARK       I    between atoms: C_8  and  N_9 
REMARK    3  A    between atoms: C_15  and  C_16 
ROOT
HETATM    1  C   UNL     1     -44.820  59.725 -52.970  1.00  0.00     0.254 C 
HETATM    2  N   UNL     1     -44.195  58.503 -53.231  1.00  0.00    -0.342 N 
HETATM    3  C   UNL     1     -42.992  58.059 -52.477  1.00  0.00     0.187 C 
HETATM    4  C   UNL     1     -42.705  56.627 -52.776  1.00  0.00     0.077 A 
HETATM    5  C   UNL     1     -43.311  55.909 -53.775  1.00  0.00     0.039 A 
HETATM    6  N   UNL     1     -42.760  54.666 -53.729  1.00  0.00    -0.342 N 
HETATM    7  H   UNL     1     -42.973  53.876 -54.326  1.00  0.00     0.167 HD
HETATM    8  C   UNL     1     -41.846  54.653 -52.691  1.00  0.00     0.141 A 
HETATM    9  N   UNL     1     -41.803  55.843 -52.107  1.00  0.00    -0.231 NA
HETATM   10  C   UNL     1     -44.367  56.421 -54.670  1.00  0.00     0.079 C 
HETATM   11  C   UNL     1     -44.359  57.966 -54.604  1.00  0.00     0.132 C 
HETATM   12  O   UNL     1     -45.546  60.302 -53.777  1.00  0.00    -0.267 OA
ENDROOT
BRANCH   1  13
HETATM   13  C   UNL     1     -44.615  60.389 -51.668  1.00  0.00     0.037 A 
HETATM   14  C   UNL     1     -43.572  61.291 -51.477  1.00  0.00     0.036 A 
HETATM   15  C   UNL     1     -43.423  61.830 -50.214  1.00  0.00     0.120 A 
HETATM   16  N   UNL     1     -44.214  61.517 -49.164  1.00  0.00    -0.237 NA
HETATM   17  C   UNL     1     -45.190  60.607 -49.379  1.00  0.00     0.164 A 
HETATM   18  C   UNL     1     -45.430  60.018 -50.604  1.00  0.00     0.075 A 
BRANCH  17  19
HETATM   19  O   UNL     1     -46.018  60.221 -48.345  1.00  0.00    -0.339 OA
HETATM   20  C   UNL     1     -45.871  61.025 -47.179  1.00  0.00     0.211 C 
ENDBRANCH  17  19
ENDBRANCH   1  13
BRANCH   8  21
HETATM   21  C   UNL     1     -41.064  53.472 -52.309  1.00  0.00     0.049 A 
HETATM   22  C   UNL     1     -40.356  52.704 -53.244  1.00  0.00     0.133 A 
HETATM   23  F   UNL     1     -40.372  53.036 -54.546  1.00  0.00    -0.205 F 
HETATM   24  C   UNL     1     -39.622  51.585 -52.865  1.00  0.00     0.085 A 
HETATM   25  C   UNL     1     -39.594  51.220 -51.527  1.00  0.00     0.119 A 
HETATM   26  F   UNL     1     -38.895  50.143 -51.152  1.00  0.00    -0.206 F 
HETATM   27  C   UNL     1     -40.285  51.956 -50.570  1.00  0.00     0.043 A 
HETATM   28  C   UNL     1     -41.015  53.082 -50.960  1.00  0.00     0.021 A 
ENDBRANCH   8  21
TORSDOF 3
ENDMDL
MODEL 5
REMARK VINA RESULT:      -8.0      3.069      5.895
REMARK  3 active torsions:
REMARK  status: ('A' for Active; 'I' for Inactive)
REMARK    1  A    between atoms: O_2  and  C_3 
REMARK    2  A    between atoms: C_7  and  C_8 
REMARK       I    between atoms: C_8  and  N_9 
REMARK    3  A    between atoms: C_15  and  C_16 
ROOT
HETATM    1  C   UNL     1     -43.599  59.489 -53.751  1.00  0.00     0.254 C 
HETATM    2  N   UNL     1     -42.884  58.327 -54.054  1.00  0.00    -0.342 N 
HETATM    3  C   UNL     1     -42.262  57.488 -52.995  1.00  0.00     0.187 C 
HETATM    4  C   UNL     1     -41.804  56.194 -53.576  1.00  0.00     0.077 A 
HETATM    5  C   UNL     1     -41.747  55.925 -54.919  1.00  0.00     0.039 A 
HETATM    6  N   UNL     1     -41.261  54.660 -55.028  1.00  0.00    -0.342 N 
HETATM    7  H   UNL     1     -41.087  54.138 -55.878  1.00  0.00     0.167 HD
HETATM    8  C   UNL     1     -41.050  54.182 -53.747  1.00  0.00     0.141 A 
HETATM    9  N   UNL     1     -41.376  55.109 -52.856  1.00  0.00    -0.231 NA
HETATM   10  C   UNL     1     -42.173  56.849 -55.989  1.00  0.00     0.079 C 
HETATM   11  C   UNL     1     -42.261  58.275 -55.400  1.00  0.00     0.132 C 
HETATM   12  O   UNL     1     -43.797  60.394 -54.559  1.00  0.00    -0.267 OA
ENDROOT
BRANCH   1  13
HETATM   13  C   UNL     1     -44.154  59.675 -52.397  1.00  0.00     0.037 A 
HETATM   14  C   UNL     1     -45.218  58.900 -51.942  1.00  0.00     0.036 A 
HETATM   15  C   UNL     1     -45.707  59.173 -50.679  1.00  0.00     0.120 A 
HETATM   16  N   UNL     1     -45.227  60.153 -49.882  1.00  0.00    -0.237 NA
HETATM   17  C   UNL     1     -44.221  60.910 -50.374  1.00  0.00     0.164 A 
HETATM   18  C   UNL     1     -43.654  60.713 -51.618  1.00  0.00     0.075 A 
BRANCH  17  19
HETATM   19  O   UNL     1     -43.700  61.944 -49.625  1.00  0.00    -0.339 OA
HETATM   20  C   UNL     1     -42.927  62.859 -50.393  1.00  0.00     0.211 C 
ENDBRANCH  17  19
ENDBRANCH   1  13
BRANCH   8  21
HETATM   21  C   UNL     1     -40.554  52.834 -53.451  1.00  0.00     0.049 A 
HETATM   22  C   UNL     1     -39.975  52.501 -52.218  1.00  0.00     0.133 A 
HETATM   23  F   UNL     1     -39.856  53.427 -51.251  1.00  0.00    -0.205 F 
HETATM   24  C   UNL     1     -39.505  51.218 -51.954  1.00  0.00     0.085 A 
HETATM   25  C   UNL     1     -39.612  50.247 -52.939  1.00  0.00     0.119 A 
HETATM   26  F   UNL     1     -39.160  49.011 -52.697  1.00  0.00    -0.206 F 
HETATM   27  C   UNL     1     -40.180  50.539 -54.174  1.00  0.00     0.043 A 
HETATM   28  C   UNL     1     -40.653  51.830 -54.428  1.00  0.00     0.021 A 
ENDBRANCH   8  21
TORSDOF 3
ENDMDL
MODEL 6
REMARK VINA RESULT:      -7.8      2.235      4.675
REMARK  3 active torsions:
REMARK  status: ('A' for Active; 'I' for Inactive)
REMARK    1  A    between atoms: O_2  and  C_3 
REMARK    2  A    between atoms: C_7  and  C_8 
REMARK       I    between atoms: C_8  and  N_9 
REMARK    3  A    between atoms: C_15  and  C_16 
ROOT
HETATM    1  C   UNL     1     -43.577  58.890 -55.671  1.00  0.00     0.254 C 
HETATM    2  N   UNL     1     -42.980  57.635 -55.526  1.00  0.00    -0.342 N 
HETATM    3  C   UNL     1     -42.093  57.315 -54.376  1.00  0.00     0.187 C 
HETATM    4  C   UNL     1     -41.819  55.850 -54.338  1.00  0.00     0.077 A 
HETATM    5  C   UNL     1     -42.137  54.977 -55.346  1.00  0.00     0.039 A 
HETATM    6  N   UNL     1     -41.706  53.755 -54.934  1.00  0.00    -0.342 N 
HETATM    7  H   UNL     1     -41.776  52.877 -55.433  1.00  0.00     0.167 HD
HETATM    8  C   UNL     1     -41.152  53.911 -53.676  1.00  0.00     0.141 A 
HETATM    9  N   UNL     1     -41.215  55.183 -53.305  1.00  0.00    -0.231 NA
HETATM   10  C   UNL     1     -42.837  55.339 -56.594  1.00  0.00     0.079 C 
HETATM   11  C   UNL     1     -42.753  56.872 -56.778  1.00  0.00     0.132 C 
HETATM   12  O   UNL     1     -43.986  59.328 -56.745  1.00  0.00    -0.267 OA
ENDROOT
BRANCH   1  13
HETATM   13  C   UNL     1     -43.736  59.766 -54.494  1.00  0.00     0.037 A 
HETATM   14  C   UNL     1     -42.828  60.789 -54.230  1.00  0.00     0.036 A 
HETATM   15  C   UNL     1     -43.024  61.529 -53.081  1.00  0.00     0.120 A 
HETATM   16  N   UNL     1     -44.025  61.304 -52.201  1.00  0.00    -0.237 NA
HETATM   17  C   UNL     1     -44.861  60.277 -52.471  1.00  0.00     0.164 A 
HETATM   18  C   UNL     1     -44.760  59.483 -53.596  1.00  0.00     0.075 A 
BRANCH  17  19
HETATM   19  O   UNL     1     -45.889  59.973 -51.602  1.00  0.00    -0.339 OA
HETATM   20  C   UNL     1     -45.485  59.964 -50.237  1.00  0.00     0.211 C 
ENDBRANCH  17  19
ENDBRANCH   1  13
BRANCH   8  21
HETATM   21  C   UNL     1     -40.600  52.806 -52.886  1.00  0.00     0.049 A 
HETATM   22  C   UNL     1     -40.001  51.685 -53.479  1.00  0.00     0.133 A 
HETATM   23  F   UNL     1     -39.914  51.589 -54.816  1.00  0.00    -0.205 F 
HETATM   24  C   UNL     1     -39.484  50.642 -52.714  1.00  0.00     0.085 A 
HETATM   25  C   UNL     1     -39.568  50.716 -51.332  1.00  0.00     0.119 A 
HETATM   26  F   UNL     1     -39.078  49.718 -50.588  1.00  0.00    -0.206 F 
HETATM   27  C   UNL     1     -40.155  51.812 -50.708  1.00  0.00     0.043 A 
HETATM   28  C   UNL     1     -40.666  52.856 -51.484  1.00  0.00     0.021 A 
ENDBRANCH   8  21
TORSDOF 3
ENDMDL
MODEL 7
REMARK VINA RESULT:      -7.8      3.814      8.286
REMARK  3 active torsions:
REMARK  status: ('A' for Active; 'I' for Inactive)
REMARK    1  A    between atoms: O_2  and  C_3 
REMARK    2  A    between atoms: C_7  and  C_8 
REMARK       I    between atoms: C_8  and  N_9 
REMARK    3  A    between atoms: C_15  and  C_16 
ROOT
HETATM    1  C   UNL     1     -42.737  54.829 -51.742  1.00  0.00     0.254 C 
HETATM    2  N   UNL     1     -42.946  55.744 -52.777  1.00  0.00    -0.342 N 
HETATM    3  C   UNL     1     -41.880  56.078 -53.759  1.00  0.00     0.187 C 
HETATM    4  C   UNL     1     -42.456  56.863 -54.887  1.00  0.00     0.077 A 
HETATM    5  C   UNL     1     -43.718  57.398 -54.893  1.00  0.00     0.039 A 
HETATM    6  N   UNL     1     -43.844  58.049 -56.080  1.00  0.00    -0.342 N 
HETATM    7  H   UNL     1     -44.650  58.560 -56.419  1.00  0.00     0.167 HD
HETATM    8  C   UNL     1     -42.662  57.878 -56.777  1.00  0.00     0.141 A 
HETATM    9  N   UNL     1     -41.810  57.159 -56.058  1.00  0.00    -0.231 NA
HETATM   10  C   UNL     1     -44.712  57.242 -53.813  1.00  0.00     0.079 C 
HETATM   11  C   UNL     1     -43.978  56.782 -52.532  1.00  0.00     0.132 C 
HETATM   12  O   UNL     1     -43.412  54.800 -50.714  1.00  0.00    -0.267 OA
ENDROOT
BRANCH   1  13
HETATM   13  C   UNL     1     -41.652  53.835 -51.852  1.00  0.00     0.037 A 
HETATM   14  C   UNL     1     -40.773  53.610 -50.796  1.00  0.00     0.036 A 
HETATM   15  C   UNL     1     -39.756  52.697 -51.001  1.00  0.00     0.120 A 
HETATM   16  N   UNL     1     -39.562  52.035 -52.163  1.00  0.00    -0.237 NA
HETATM   17  C   UNL     1     -40.412  52.310 -53.177  1.00  0.00     0.164 A 
HETATM   18  C   UNL     1     -41.466  53.197 -53.073  1.00  0.00     0.075 A 
BRANCH  17  19
HETATM   19  O   UNL     1     -40.256  51.691 -54.400  1.00  0.00    -0.339 OA
HETATM   20  C   UNL     1     -40.179  50.273 -54.304  1.00  0.00     0.211 C 
ENDBRANCH  17  19
ENDBRANCH   1  13
BRANCH   8  21
HETATM   21  C   UNL     1     -42.423  58.412 -58.122  1.00  0.00     0.049 A 
HETATM   22  C   UNL     1     -42.341  57.589 -59.254  1.00  0.00     0.133 A 
HETATM   23  F   UNL     1     -42.483  56.258 -59.138  1.00  0.00    -0.205 F 
HETATM   24  C   UNL     1     -42.111  58.112 -60.523  1.00  0.00     0.085 A 
HETATM   25  C   UNL     1     -41.956  59.483 -60.668  1.00  0.00     0.119 A 
HETATM   26  F   UNL     1     -41.731  59.996 -61.883  1.00  0.00    -0.206 F 
HETATM   27  C   UNL     1     -42.031  60.332 -59.568  1.00  0.00     0.043 A 
HETATM   28  C   UNL     1     -42.267  59.797 -58.299  1.00  0.00     0.021 A 
ENDBRANCH   8  21
TORSDOF 3
ENDMDL
MODEL 8
REMARK VINA RESULT:      -7.7      2.455      3.976
REMARK  3 active torsions:
REMARK  status: ('A' for Active; 'I' for Inactive)
REMARK    1  A    between atoms: O_2  and  C_3 
REMARK    2  A    between atoms: C_7  and  C_8 
REMARK       I    between atoms: C_8  and  N_9 
REMARK    3  A    between atoms: C_15  and  C_16 
ROOT
HETATM    1  C   UNL     1     -43.225  57.466 -57.657  1.00  0.00     0.254 C 
HETATM    2  N   UNL     1     -42.880  56.572 -56.641  1.00  0.00    -0.342 N 
HETATM    3  C   UNL     1     -41.964  56.956 -55.533  1.00  0.00     0.187 C 
HETATM    4  C   UNL     1     -41.987  55.911 -54.470  1.00  0.00     0.077 A 
HETATM    5  C   UNL     1     -42.573  54.679 -54.608  1.00  0.00     0.039 A 
HETATM    6  N   UNL     1     -42.355  54.027 -53.435  1.00  0.00    -0.342 N 
HETATM    7  H   UNL     1     -42.650  53.091 -53.187  1.00  0.00     0.167 HD
HETATM    8  C   UNL     1     -41.658  54.886 -52.603  1.00  0.00     0.141 A 
HETATM    9  N   UNL     1     -41.428  56.034 -53.226  1.00  0.00    -0.231 NA
HETATM   10  C   UNL     1     -43.308  54.216 -55.802  1.00  0.00     0.079 C 
HETATM   11  C   UNL     1     -42.937  55.131 -56.992  1.00  0.00     0.132 C 
HETATM   12  O   UNL     1     -43.644  57.115 -58.758  1.00  0.00    -0.267 OA
ENDROOT
BRANCH   1  13
HETATM   13  C   UNL     1     -43.086  58.918 -57.433  1.00  0.00     0.037 A 
HETATM   14  C   UNL     1     -44.161  59.684 -56.987  1.00  0.00     0.036 A 
HETATM   15  C   UNL     1     -43.957  61.044 -56.851  1.00  0.00     0.120 A 
HETATM   16  N   UNL     1     -42.792  61.663 -57.142  1.00  0.00    -0.237 NA
HETATM   17  C   UNL     1     -41.785  60.892 -57.610  1.00  0.00     0.164 A 
HETATM   18  C   UNL     1     -41.882  59.524 -57.774  1.00  0.00     0.075 A 
BRANCH  17  19
HETATM   19  O   UNL     1     -40.577  61.462 -57.953  1.00  0.00    -0.339 OA
HETATM   20  C   UNL     1     -40.716  62.710 -58.624  1.00  0.00     0.211 C 
ENDBRANCH  17  19
ENDBRANCH   1  13
BRANCH   8  21
HETATM   21  C   UNL     1     -41.262  54.550 -51.232  1.00  0.00     0.049 A 
HETATM   22  C   UNL     1     -40.550  53.382 -50.921  1.00  0.00     0.133 A 
HETATM   23  F   UNL     1     -40.201  52.520 -51.891  1.00  0.00    -0.205 F 
HETATM   24  C   UNL     1     -40.184  53.077 -49.613  1.00  0.00     0.085 A 
HETATM   25  C   UNL     1     -40.537  53.949 -48.594  1.00  0.00     0.119 A 
HETATM   26  F   UNL     1     -40.194  53.662 -47.333  1.00  0.00    -0.206 F 
HETATM   27  C   UNL     1     -41.244  55.116 -48.864  1.00  0.00     0.043 A 
HETATM   28  C   UNL     1     -41.602  55.417 -50.181  1.00  0.00     0.021 A 
ENDBRANCH   8  21
TORSDOF 3
ENDMDL
MODEL 9
REMARK VINA RESULT:      -7.7      1.984      2.636
REMARK  3 active torsions:
REMARK  status: ('A' for Active; 'I' for Inactive)
REMARK    1  A    between atoms: O_2  and  C_3 
REMARK    2  A    between atoms: C_7  and  C_8 
REMARK       I    between atoms: C_8  and  N_9 
REMARK    3  A    between atoms: C_15  and  C_16 
ROOT
HETATM    1  C   UNL     1     -43.226  59.158 -54.539  1.00  0.00     0.254 C 
HETATM    2  N   UNL     1     -42.709  58.049 -53.864  1.00  0.00    -0.342 N 
HETATM    3  C   UNL     1     -42.938  56.660 -54.343  1.00  0.00     0.187 C 
HETATM    4  C   UNL     1     -42.062  55.713 -53.596  1.00  0.00     0.077 A 
HETATM    5  C   UNL     1     -41.340  56.045 -52.479  1.00  0.00     0.039 A 
HETATM    6  N   UNL     1     -40.700  54.908 -52.095  1.00  0.00    -0.342 N 
HETATM    7  H   UNL     1     -40.079  54.789 -51.304  1.00  0.00     0.167 HD
HETATM    8  C   UNL     1     -41.034  53.916 -52.999  1.00  0.00     0.141 A 
HETATM    9  N   UNL     1     -41.864  54.396 -53.915  1.00  0.00    -0.231 NA
HETATM   10  C   UNL     1     -41.279  57.391 -51.874  1.00  0.00     0.079 C 
HETATM   11  C   UNL     1     -42.466  58.224 -52.411  1.00  0.00     0.132 C 
HETATM   12  O   UNL     1     -43.397  60.255 -54.011  1.00  0.00    -0.267 OA
ENDROOT
BRANCH   1  13
HETATM   13  C   UNL     1     -43.605  59.039 -55.960  1.00  0.00     0.037 A 
HETATM   14  C   UNL     1     -44.931  58.844 -56.337  1.00  0.00     0.036 A 
HETATM   15  C   UNL     1     -45.191  58.694 -57.686  1.00  0.00     0.120 A 
HETATM   16  N   UNL     1     -44.237  58.708 -58.642  1.00  0.00    -0.237 NA
HETATM   17  C   UNL     1     -42.958  58.859 -58.233  1.00  0.00     0.164 A 
HETATM   18  C   UNL     1     -42.592  59.027 -56.912  1.00  0.00     0.075 A 
BRANCH  17  19
HETATM   19  O   UNL     1     -41.930  58.855 -59.154  1.00  0.00    -0.339 OA
HETATM   20  C   UNL     1     -42.263  58.180 -60.362  1.00  0.00     0.211 C 
ENDBRANCH  17  19
ENDBRANCH   1  13
BRANCH   8  21
HETATM   21  C   UNL     1     -40.514  52.546 -52.935  1.00  0.00     0.049 A 
HETATM   22  C   UNL     1     -40.050  51.974 -51.741  1.00  0.00     0.133 A 
HETATM   23  F   UNL     1     -40.070  52.679 -50.597  1.00  0.00    -0.205 F 
HETATM   24  C   UNL     1     -39.556  50.673 -51.698  1.00  0.00     0.085 A 
HETATM   25  C   UNL     1     -39.520  49.928 -52.867  1.00  0.00     0.119 A 
HETATM   26  F   UNL     1     -39.044  48.678 -52.838  1.00  0.00    -0.206 F 
HETATM   27  C   UNL     1     -39.971  50.462 -54.070  1.00  0.00     0.043 A 
HETATM   28  C   UNL     1     -40.470  51.767 -54.102  1.00  0.00     0.021 A 
ENDBRANCH   8  21
TORSDOF 3
ENDMDL
MODEL 10
REMARK VINA RESULT:      -7.5      2.480      4.833
REMARK  3 active torsions:
REMARK  status: ('A' for Active; 'I' for Inactive)
REMARK    1  A    between atoms: O_2  and  C_3 
REMARK    2  A    between atoms: C_7  and  C_8 
REMARK       I    between atoms: C_8  and  N_9 
REMARK    3  A    between atoms: C_15  and  C_16 
ROOT
HETATM    1  C   UNL     1     -43.894  59.182 -56.206  1.00  0.00     0.254 C 
HETATM    2  N   UNL     1     -43.214  57.971 -56.048  1.00  0.00    -0.342 N 
HETATM    3  C   UNL     1     -42.371  57.692 -54.855  1.00  0.00     0.187 C 
HETATM    4  C   UNL     1     -41.993  56.251 -54.825  1.00  0.00     0.077 A 
HETATM    5  C   UNL     1     -42.191  55.377 -55.863  1.00  0.00     0.039 A 
HETATM    6  N   UNL     1     -41.694  54.182 -55.447  1.00  0.00    -0.342 N 
HETATM    7  H   UNL     1     -41.673  53.311 -55.963  1.00  0.00     0.167 HD
HETATM    8  C   UNL     1     -41.223  54.352 -54.157  1.00  0.00     0.141 A 
HETATM    9  N   UNL     1     -41.399  55.609 -53.771  1.00  0.00    -0.231 NA
HETATM   10  C   UNL     1     -42.846  55.712 -57.143  1.00  0.00     0.079 C 
HETATM   11  C   UNL     1     -42.864  57.251 -57.297  1.00  0.00     0.132 C 
HETATM   12  O   UNL     1     -44.274  59.610 -57.294  1.00  0.00    -0.267 OA
ENDROOT
BRANCH   1  13
HETATM   13  C   UNL     1     -44.180  60.020 -55.026  1.00  0.00     0.037 A 
HETATM   14  C   UNL     1     -45.184  59.676 -54.125  1.00  0.00     0.036 A 
HETATM   15  C   UNL     1     -45.418  60.543 -53.075  1.00  0.00     0.120 A 
HETATM   16  N   UNL     1     -44.746  61.700 -52.890  1.00  0.00    -0.237 NA
HETATM   17  C   UNL     1     -43.806  62.019 -53.808  1.00  0.00     0.164 A 
HETATM   18  C   UNL     1     -43.488  61.219 -54.887  1.00  0.00     0.075 A 
BRANCH  17  19
HETATM   19  O   UNL     1     -43.100  63.199 -53.696  1.00  0.00    -0.339 OA
HETATM   20  C   UNL     1     -43.232  64.042 -54.835  1.00  0.00     0.211 C 
ENDBRANCH  17  19
ENDBRANCH   1  13
BRANCH   8  21
HETATM   21  C   UNL     1     -40.635  53.274 -53.355  1.00  0.00     0.049 A 
HETATM   22  C   UNL     1     -40.494  53.365 -51.963  1.00  0.00     0.133 A 
HETATM   23  F   UNL     1     -40.904  54.466 -51.309  1.00  0.00    -0.205 F 
HETATM   24  C   UNL     1     -39.931  52.334 -51.216  1.00  0.00     0.085 A 
HETATM   25  C   UNL     1     -39.496  51.191 -51.869  1.00  0.00     0.119 A 
HETATM   26  F   UNL     1     -38.950  50.195 -51.162  1.00  0.00    -0.206 F 
HETATM   27  C   UNL     1     -39.619  51.064 -53.249  1.00  0.00     0.043 A 
HETATM   28  C   UNL     1     -40.190  52.103 -53.989  1.00  0.00     0.021 A 
ENDBRANCH   8  21
TORSDOF 3
ENDMDL
