MODEL 1
REMARK VINA RESULT:      -7.6      0.000      0.000
REMARK  6 active torsions:
REMARK  status: ('A' for Active; 'I' for Inactive)
REMARK    1  A    between atoms: C_2  and  C_3 
REMARK    2  A    between atoms: C_3  and  O_4 
REMARK    3  A    between atoms: C_3  and  C_12 
REMARK    4  A    between atoms: O_4  and  C_5 
REMARK    5  A    between atoms: C_12  and  N_13 
REMARK       I    between atoms: N_13  and  C_14 
REMARK       I    between atoms: C_14  and  N_15 
REMARK    6  A    between atoms: N_15  and  C_16 
ROOT
HETATM    1  N   UNL     1     -41.407  55.440 -55.880  1.00  0.00    -0.340 N 
HETATM    2  C   UNL     1     -42.562  55.997 -56.373  1.00  0.00     0.320 C 
HETATM    3  N   UNL     1     -42.654  55.837 -57.737  1.00  0.00    -0.307 N 
HETATM    4  O   UNL     1     -43.398  56.560 -55.680  1.00  0.00    -0.247 OA
HETATM    5  H   UNL     1     -40.742  55.083 -56.549  1.00  0.00     0.164 HD
HETATM    6  H   UNL     1     -42.249  54.990 -58.099  1.00  0.00     0.170 HD
ENDROOT
BRANCH   1   7
HETATM    7  C   UNL     1     -41.115  55.196 -54.472  1.00  0.00     0.156 C 
BRANCH   7   8
HETATM    8  C   UNL     1     -41.743  53.971 -53.774  1.00  0.00     0.146 C 
BRANCH   8   9
HETATM    9  C   UNL     1     -43.002  54.296 -52.951  1.00  0.00     0.029 C 
HETATM   10  C   UNL     1     -42.787  54.306 -51.443  1.00  0.00     0.007 C 
ENDBRANCH   8   9
BRANCH   8  11
HETATM   11  O   UNL     1     -40.731  53.439 -52.901  1.00  0.00    -0.343 OA
BRANCH  11  12
HETATM   12  C   UNL     1     -40.316  52.142 -53.033  1.00  0.00     0.091 A 
HETATM   13  C   UNL     1     -40.006  51.460 -51.844  1.00  0.00     0.067 A 
HETATM   14 CL   UNL     1     -40.165  52.228 -50.300  1.00  0.00    -0.081 Cl
HETATM   15  C   UNL     1     -39.558  50.136 -51.870  1.00  0.00     0.026 A 
HETATM   16  C   UNL     1     -39.412  49.473 -53.086  1.00  0.00     0.002 A 
HETATM   17  C   UNL     1     -39.725  50.134 -54.272  1.00  0.00     0.003 A 
HETATM   18  C   UNL     1     -40.181  51.457 -54.246  1.00  0.00     0.038 A 
ENDBRANCH  11  12
ENDBRANCH   8  11
ENDBRANCH   7   8
ENDBRANCH   1   7
BRANCH   3  19
HETATM   19  C   UNL     1     -43.566  56.529 -58.567  1.00  0.00     0.059 A 
HETATM   20  C   UNL     1     -44.385  55.824 -59.464  1.00  0.00    -0.032 A 
HETATM   21  C   UNL     1     -44.424  54.324 -59.516  1.00  0.00     0.050 C 
HETATM   22  C   UNL     1     -45.232  56.555 -60.310  1.00  0.00     0.028 A 
HETATM   23  C   UNL     1     -45.230  57.940 -60.243  1.00  0.00     0.117 A 
HETATM   24  N   UNL     1     -44.456  58.644 -59.398  1.00  0.00    -0.271 NA
HETATM   25  C   UNL     1     -43.649  57.925 -58.577  1.00  0.00     0.146 A 
ENDBRANCH   3  19
TORSDOF 6
ENDMDL
MODEL 2
REMARK VINA RESULT:      -7.6      1.761      2.407
REMARK  6 active torsions:
REMARK  status: ('A' for Active; 'I' for Inactive)
REMARK    1  A    between atoms: C_2  and  C_3 
REMARK    2  A    between atoms: C_3  and  O_4 
REMARK    3  A    between atoms: C_3  and  C_12 
REMARK    4  A    between atoms: O_4  and  C_5 
REMARK    5  A    between atoms: C_12  and  N_13 
REMARK       I    between atoms: N_13  and  C_14 
REMARK       I    between atoms: C_14  and  N_15 
REMARK    6  A    between atoms: N_15  and  C_16 
ROOT
HETATM    1  N   UNL     1     -43.848  56.097 -54.423  1.00  0.00    -0.340 N 
HETATM    2  C   UNL     1     -42.979  56.404 -55.441  1.00  0.00     0.320 C 
HETATM    3  N   UNL     1     -43.645  56.910 -56.534  1.00  0.00    -0.307 N 
HETATM    4  O   UNL     1     -41.767  56.249 -55.374  1.00  0.00    -0.247 OA
HETATM    5  H   UNL     1     -44.835  56.176 -54.616  1.00  0.00     0.164 HD
HETATM    6  H   UNL     1     -44.468  57.451 -56.325  1.00  0.00     0.170 HD
ENDROOT
BRANCH   1   7
HETATM    7  C   UNL     1     -43.473  55.793 -53.047  1.00  0.00     0.156 C 
BRANCH   7   8
HETATM    8  C   UNL     1     -43.043  54.356 -52.683  1.00  0.00     0.146 C 
BRANCH   8   9
HETATM    9  C   UNL     1     -43.533  53.885 -51.303  1.00  0.00     0.029 C 
HETATM   10  C   UNL     1     -44.001  55.005 -50.383  1.00  0.00     0.007 C 
ENDBRANCH   8   9
BRANCH   8  11
HETATM   11  O   UNL     1     -41.604  54.346 -52.705  1.00  0.00    -0.343 OA
BRANCH  11  12
HETATM   12  C   UNL     1     -40.924  53.189 -52.973  1.00  0.00     0.091 A 
HETATM   13  C   UNL     1     -40.085  52.707 -51.954  1.00  0.00     0.067 A 
HETATM   14 CL   UNL     1     -39.943  53.533 -50.439  1.00  0.00    -0.081 Cl
HETATM   15  C   UNL     1     -39.334  51.540 -52.133  1.00  0.00     0.026 A 
HETATM   16  C   UNL     1     -39.411  50.839 -53.334  1.00  0.00     0.002 A 
HETATM   17  C   UNL     1     -40.248  51.300 -54.348  1.00  0.00     0.003 A 
HETATM   18  C   UNL     1     -41.005  52.463 -54.166  1.00  0.00     0.038 A 
ENDBRANCH  11  12
ENDBRANCH   8  11
ENDBRANCH   7   8
ENDBRANCH   1   7
BRANCH   3  19
HETATM   19  C   UNL     1     -43.079  57.056 -57.822  1.00  0.00     0.059 A 
HETATM   20  C   UNL     1     -42.505  58.278 -58.210  1.00  0.00    -0.032 A 
HETATM   21  C   UNL     1     -42.359  59.438 -57.268  1.00  0.00     0.050 C 
HETATM   22  C   UNL     1     -42.009  58.398 -59.516  1.00  0.00     0.028 A 
HETATM   23  C   UNL     1     -42.107  57.319 -60.382  1.00  0.00     0.117 A 
HETATM   24  N   UNL     1     -42.653  56.138 -60.042  1.00  0.00    -0.271 NA
HETATM   25  C   UNL     1     -43.119  56.031 -58.772  1.00  0.00     0.146 A 
ENDBRANCH   3  19
TORSDOF 6
ENDMDL
MODEL 3
REMARK VINA RESULT:      -7.6      2.212      3.346
REMARK  6 active torsions:
REMARK  status: ('A' for Active; 'I' for Inactive)
REMARK    1  A    between atoms: C_2  and  C_3 
REMARK    2  A    between atoms: C_3  and  O_4 
REMARK    3  A    between atoms: C_3  and  C_12 
REMARK    4  A    between atoms: O_4  and  C_5 
REMARK    5  A    between atoms: C_12  and  N_13 
REMARK       I    between atoms: N_13  and  C_14 
REMARK       I    between atoms: C_14  and  N_15 
REMARK    6  A    between atoms: N_15  and  C_16 
ROOT
HETATM    1  N   UNL     1     -42.672  54.832 -52.310  1.00  0.00    -0.340 N 
HETATM    2  C   UNL     1     -42.527  55.724 -53.345  1.00  0.00     0.320 C 
HETATM    3  N   UNL     1     -43.497  55.540 -54.305  1.00  0.00    -0.307 N 
HETATM    4  O   UNL     1     -41.648  56.572 -53.397  1.00  0.00    -0.247 OA
HETATM    5  H   UNL     1     -43.373  54.114 -52.411  1.00  0.00     0.164 HD
HETATM    6  H   UNL     1     -44.390  55.230 -53.960  1.00  0.00     0.170 HD
ENDROOT
BRANCH   1   7
HETATM    7  C   UNL     1     -41.994  54.910 -51.021  1.00  0.00     0.156 C 
BRANCH   7   8
HETATM    8  C   UNL     1     -40.899  53.876 -50.683  1.00  0.00     0.146 C 
BRANCH   8   9
HETATM    9  C   UNL     1     -39.886  54.357 -49.630  1.00  0.00     0.029 C 
HETATM   10  C   UNL     1     -40.245  53.994 -48.195  1.00  0.00     0.007 C 
ENDBRANCH   8   9
BRANCH   8  11
HETATM   11  O   UNL     1     -40.208  53.601 -51.915  1.00  0.00    -0.343 OA
BRANCH  11  12
HETATM   12  C   UNL     1     -40.006  52.310 -52.321  1.00  0.00     0.091 A 
HETATM   13  C   UNL     1     -40.084  52.071 -53.704  1.00  0.00     0.067 A 
HETATM   14 CL   UNL     1     -40.399  53.354 -54.823  1.00  0.00    -0.081 Cl
HETATM   15  C   UNL     1     -39.908  50.783 -54.221  1.00  0.00     0.026 A 
HETATM   16  C   UNL     1     -39.654  49.716 -53.365  1.00  0.00     0.002 A 
HETATM   17  C   UNL     1     -39.564  49.941 -51.993  1.00  0.00     0.003 A 
HETATM   18  C   UNL     1     -39.731  51.230 -51.475  1.00  0.00     0.038 A 
ENDBRANCH  11  12
ENDBRANCH   8  11
ENDBRANCH   7   8
ENDBRANCH   1   7
BRANCH   3  19
HETATM   19  C   UNL     1     -43.457  56.099 -55.603  1.00  0.00     0.059 A 
HETATM   20  C   UNL     1     -44.091  57.324 -55.868  1.00  0.00    -0.032 A 
HETATM   21  C   UNL     1     -44.736  58.150 -54.792  1.00  0.00     0.050 C 
HETATM   22  C   UNL     1     -44.078  57.813 -57.182  1.00  0.00     0.028 A 
HETATM   23  C   UNL     1     -43.452  57.074 -58.176  1.00  0.00     0.117 A 
HETATM   24  N   UNL     1     -42.840  55.898 -57.955  1.00  0.00    -0.271 NA
HETATM   25  C   UNL     1     -42.850  55.441 -56.678  1.00  0.00     0.146 A 
ENDBRANCH   3  19
TORSDOF 6
ENDMDL
MODEL 4
REMARK VINA RESULT:      -7.5      1.578      1.793
REMARK  6 active torsions:
REMARK  status: ('A' for Active; 'I' for Inactive)
REMARK    1  A    between atoms: C_2  and  C_3 
REMARK    2  A    between atoms: C_3  and  O_4 
REMARK    3  A    between atoms: C_3  and  C_12 
REMARK    4  A    between atoms: O_4  and  C_5 
REMARK    5  A    between atoms: C_12  and  N_13 
REMARK       I    between atoms: N_13  and  C_14 
REMARK       I    between atoms: C_14  and  N_15 
REMARK    6  A    between atoms: N_15  and  C_16 
ROOT
HETATM    1  N   UNL     1     -43.895  55.828 -54.746  1.00  0.00    -0.340 N 
HETATM    2  C   UNL     1     -43.134  56.536 -55.643  1.00  0.00     0.320 C 
HETATM    3  N   UNL     1     -43.813  56.743 -56.823  1.00  0.00    -0.307 N 
HETATM    4  O   UNL     1     -41.999  56.931 -55.414  1.00  0.00    -0.247 OA
HETATM    5  H   UNL     1     -44.780  55.470 -55.069  1.00  0.00     0.164 HD
HETATM    6  H   UNL     1     -44.809  56.853 -56.733  1.00  0.00     0.170 HD
ENDROOT
BRANCH   1   7
HETATM    7  C   UNL     1     -43.599  55.660 -53.327  1.00  0.00     0.156 C 
BRANCH   7   8
HETATM    8  C   UNL     1     -43.120  54.284 -52.816  1.00  0.00     0.146 C 
BRANCH   8   9
HETATM    9  C   UNL     1     -43.556  53.964 -51.377  1.00  0.00     0.029 C 
HETATM   10  C   UNL     1     -43.745  55.185 -50.486  1.00  0.00     0.007 C 
ENDBRANCH   8   9
BRANCH   8  11
HETATM   11  O   UNL     1     -41.682  54.307 -52.882  1.00  0.00    -0.343 OA
BRANCH  11  12
HETATM   12  C   UNL     1     -40.981  53.148 -53.078  1.00  0.00     0.091 A 
HETATM   13  C   UNL     1     -40.120  52.756 -52.038  1.00  0.00     0.067 A 
HETATM   14 CL   UNL     1     -39.980  53.689 -50.586  1.00  0.00    -0.081 Cl
HETATM   15  C   UNL     1     -39.347  51.596 -52.145  1.00  0.00     0.026 A 
HETATM   16  C   UNL     1     -39.422  50.810 -53.292  1.00  0.00     0.002 A 
HETATM   17  C   UNL     1     -40.279  51.182 -54.326  1.00  0.00     0.003 A 
HETATM   18  C   UNL     1     -41.059  52.339 -54.216  1.00  0.00     0.038 A 
ENDBRANCH  11  12
ENDBRANCH   8  11
ENDBRANCH   7   8
ENDBRANCH   1   7
BRANCH   3  19
HETATM   19  C   UNL     1     -43.215  57.185 -58.027  1.00  0.00     0.059 A 
HETATM   20  C   UNL     1     -43.188  56.347 -59.154  1.00  0.00    -0.032 A 
HETATM   21  C   UNL     1     -43.873  55.011 -59.186  1.00  0.00     0.050 C 
HETATM   22  C   UNL     1     -42.534  56.802 -60.308  1.00  0.00     0.028 A 
HETATM   23  C   UNL     1     -41.931  58.051 -60.300  1.00  0.00     0.117 A 
HETATM   24  N   UNL     1     -41.937  58.874 -59.236  1.00  0.00    -0.271 NA
HETATM   25  C   UNL     1     -42.582  58.427 -58.130  1.00  0.00     0.146 A 
ENDBRANCH   3  19
TORSDOF 6
ENDMDL
MODEL 5
REMARK VINA RESULT:      -7.4      4.985      5.807
REMARK  6 active torsions:
REMARK  status: ('A' for Active; 'I' for Inactive)
REMARK    1  A    between atoms: C_2  and  C_3 
REMARK    2  A    between atoms: C_3  and  O_4 
REMARK    3  A    between atoms: C_3  and  C_12 
REMARK    4  A    between atoms: O_4  and  C_5 
REMARK    5  A    between atoms: C_12  and  N_13 
REMARK       I    between atoms: N_13  and  C_14 
REMARK       I    between atoms: C_14  and  N_15 
REMARK    6  A    between atoms: N_15  and  C_16 
ROOT
HETATM    1  N   UNL     1     -42.769  55.299 -50.933  1.00  0.00    -0.340 N 
HETATM    2  C   UNL     1     -42.629  56.503 -51.577  1.00  0.00     0.320 C 
HETATM    3  N   UNL     1     -43.081  57.545 -50.799  1.00  0.00    -0.307 N 
HETATM    4  O   UNL     1     -42.159  56.626 -52.700  1.00  0.00    -0.247 OA
HETATM    5  H   UNL     1     -43.254  55.300 -50.048  1.00  0.00     0.164 HD
HETATM    6  H   UNL     1     -42.952  57.428 -49.807  1.00  0.00     0.170 HD
ENDROOT
BRANCH   1   7
HETATM    7  C   UNL     1     -42.163  54.038 -51.346  1.00  0.00     0.156 C 
BRANCH   7   8
HETATM    8  C   UNL     1     -40.886  53.546 -50.630  1.00  0.00     0.146 C 
BRANCH   8   9
HETATM    9  C   UNL     1     -40.308  54.551 -49.619  1.00  0.00     0.029 C 
HETATM   10  C   UNL     1     -40.391  54.105 -48.165  1.00  0.00     0.007 C 
ENDBRANCH   8   9
BRANCH   8  11
HETATM   11  O   UNL     1     -39.914  53.300 -51.662  1.00  0.00    -0.343 OA
BRANCH  11  12
HETATM   12  C   UNL     1     -39.824  52.064 -52.246  1.00  0.00     0.091 A 
HETATM   13  C   UNL     1     -39.985  52.020 -53.641  1.00  0.00     0.067 A 
HETATM   14 CL   UNL     1     -40.262  53.460 -54.561  1.00  0.00    -0.081 Cl
HETATM   15  C   UNL     1     -39.927  50.806 -54.332  1.00  0.00     0.026 A 
HETATM   16  C   UNL     1     -39.709  49.618 -53.640  1.00  0.00     0.002 A 
HETATM   17  C   UNL     1     -39.537  49.650 -52.257  1.00  0.00     0.003 A 
HETATM   18  C   UNL     1     -39.587  50.865 -51.566  1.00  0.00     0.038 A 
ENDBRANCH  11  12
ENDBRANCH   8  11
ENDBRANCH   7   8
ENDBRANCH   1   7
BRANCH   3  19
HETATM   19  C   UNL     1     -43.331  58.853 -51.274  1.00  0.00     0.059 A 
HETATM   20  C   UNL     1     -42.449  59.901 -50.962  1.00  0.00    -0.032 A 
HETATM   21  C   UNL     1     -41.162  59.682 -50.221  1.00  0.00     0.050 C 
HETATM   22  C   UNL     1     -42.766  61.194 -51.404  1.00  0.00     0.028 A 
HETATM   23  C   UNL     1     -43.934  61.399 -52.122  1.00  0.00     0.117 A 
HETATM   24  N   UNL     1     -44.799  60.418 -52.434  1.00  0.00    -0.271 NA
HETATM   25  C   UNL     1     -44.476  59.170 -52.010  1.00  0.00     0.146 A 
ENDBRANCH   3  19
TORSDOF 6
ENDMDL
MODEL 6
REMARK VINA RESULT:      -7.4      1.124      1.279
REMARK  6 active torsions:
REMARK  status: ('A' for Active; 'I' for Inactive)
REMARK    1  A    between atoms: C_2  and  C_3 
REMARK    2  A    between atoms: C_3  and  O_4 
REMARK    3  A    between atoms: C_3  and  C_12 
REMARK    4  A    between atoms: O_4  and  C_5 
REMARK    5  A    between atoms: C_12  and  N_13 
REMARK       I    between atoms: N_13  and  C_14 
REMARK       I    between atoms: C_14  and  N_15 
REMARK    6  A    between atoms: N_15  and  C_16 
ROOT
HETATM    1  N   UNL     1     -42.076  55.292 -56.258  1.00  0.00    -0.340 N 
HETATM    2  C   UNL     1     -42.655  56.452 -56.709  1.00  0.00     0.320 C 
HETATM    3  N   UNL     1     -43.574  56.202 -57.704  1.00  0.00    -0.307 N 
HETATM    4  O   UNL     1     -42.385  57.564 -56.275  1.00  0.00    -0.247 OA
HETATM    5  H   UNL     1     -42.302  54.440 -56.749  1.00  0.00     0.164 HD
HETATM    6  H   UNL     1     -44.070  55.330 -57.621  1.00  0.00     0.170 HD
ENDROOT
BRANCH   1   7
HETATM    7  C   UNL     1     -41.268  55.158 -55.051  1.00  0.00     0.156 C 
BRANCH   7   8
HETATM    8  C   UNL     1     -41.754  54.226 -53.920  1.00  0.00     0.146 C 
BRANCH   8   9
HETATM    9  C   UNL     1     -42.678  54.910 -52.898  1.00  0.00     0.029 C 
HETATM   10  C   UNL     1     -43.141  54.008 -51.761  1.00  0.00     0.007 C 
ENDBRANCH   8   9
BRANCH   8  11
HETATM   11  O   UNL     1     -40.571  53.755 -53.249  1.00  0.00    -0.343 OA
BRANCH  11  12
HETATM   12  C   UNL     1     -40.275  52.419 -53.228  1.00  0.00     0.091 A 
HETATM   13  C   UNL     1     -39.904  51.880 -51.984  1.00  0.00     0.067 A 
HETATM   14 CL   UNL     1     -39.849  52.863 -50.559  1.00  0.00    -0.081 Cl
HETATM   15  C   UNL     1     -39.566  50.530 -51.857  1.00  0.00     0.026 A 
HETATM   16  C   UNL     1     -39.593  49.697 -52.972  1.00  0.00     0.002 A 
HETATM   17  C   UNL     1     -39.969  50.215 -54.210  1.00  0.00     0.003 A 
HETATM   18  C   UNL     1     -40.314  51.565 -54.336  1.00  0.00     0.038 A 
ENDBRANCH  11  12
ENDBRANCH   8  11
ENDBRANCH   7   8
ENDBRANCH   1   7
BRANCH   3  19
HETATM   19  C   UNL     1     -44.126  57.187 -58.555  1.00  0.00     0.059 A 
HETATM   20  C   UNL     1     -43.420  57.621 -59.689  1.00  0.00    -0.032 A 
HETATM   21  C   UNL     1     -42.122  57.001 -60.120  1.00  0.00     0.050 C 
HETATM   22  C   UNL     1     -43.978  58.642 -60.472  1.00  0.00     0.028 A 
HETATM   23  C   UNL     1     -45.195  59.195 -60.102  1.00  0.00     0.117 A 
HETATM   24  N   UNL     1     -45.893  58.803 -59.021  1.00  0.00    -0.271 NA
HETATM   25  C   UNL     1     -45.348  57.808 -58.278  1.00  0.00     0.146 A 
ENDBRANCH   3  19
TORSDOF 6
ENDMDL
MODEL 7
REMARK VINA RESULT:      -7.1      2.110      3.585
REMARK  6 active torsions:
REMARK  status: ('A' for Active; 'I' for Inactive)
REMARK    1  A    between atoms: C_2  and  C_3 
REMARK    2  A    between atoms: C_3  and  O_4 
REMARK    3  A    between atoms: C_3  and  C_12 
REMARK    4  A    between atoms: O_4  and  C_5 
REMARK    5  A    between atoms: C_12  and  N_13 
REMARK       I    between atoms: N_13  and  C_14 
REMARK       I    between atoms: C_14  and  N_15 
REMARK    6  A    between atoms: N_15  and  C_16 
ROOT
HETATM    1  N   UNL     1     -40.883  54.547 -55.450  1.00  0.00    -0.340 N 
HETATM    2  C   UNL     1     -42.129  54.888 -55.918  1.00  0.00     0.320 C 
HETATM    3  N   UNL     1     -42.125  56.140 -56.490  1.00  0.00    -0.307 N 
HETATM    4  O   UNL     1     -43.111  54.163 -55.836  1.00  0.00    -0.247 OA
HETATM    5  H   UNL     1     -40.165  55.255 -55.484  1.00  0.00     0.164 HD
HETATM    6  H   UNL     1     -41.269  56.400 -56.951  1.00  0.00     0.170 HD
ENDROOT
BRANCH   1   7
HETATM    7  C   UNL     1     -40.469  53.214 -55.030  1.00  0.00     0.156 C 
BRANCH   7   8
HETATM    8  C   UNL     1     -40.044  52.984 -53.563  1.00  0.00     0.146 C 
BRANCH   8   9
HETATM    9  C   UNL     1     -39.513  51.569 -53.278  1.00  0.00     0.029 C 
HETATM   10  C   UNL     1     -40.083  50.485 -54.186  1.00  0.00     0.007 C 
ENDBRANCH   8   9
BRANCH   8  11
HETATM   11  O   UNL     1     -41.216  53.221 -52.762  1.00  0.00    -0.343 OA
BRANCH  11  12
HETATM   12  C   UNL     1     -41.093  53.675 -51.476  1.00  0.00     0.091 A 
HETATM   13  C   UNL     1     -41.450  55.015 -51.250  1.00  0.00     0.067 A 
HETATM   14 CL   UNL     1     -42.032  56.020 -52.535  1.00  0.00    -0.081 Cl
HETATM   15  C   UNL     1     -41.347  55.581 -49.976  1.00  0.00     0.026 A 
HETATM   16  C   UNL     1     -40.884  54.817 -48.908  1.00  0.00     0.002 A 
HETATM   17  C   UNL     1     -40.536  53.484 -49.117  1.00  0.00     0.003 A 
HETATM   18  C   UNL     1     -40.647  52.915 -50.390  1.00  0.00     0.038 A 
ENDBRANCH  11  12
ENDBRANCH   8  11
ENDBRANCH   7   8
ENDBRANCH   1   7
BRANCH   3  19
HETATM   19  C   UNL     1     -43.286  56.882 -56.806  1.00  0.00     0.059 A 
HETATM   20  C   UNL     1     -43.784  56.895 -58.120  1.00  0.00    -0.032 A 
HETATM   21  C   UNL     1     -43.196  56.053 -59.216  1.00  0.00     0.050 C 
HETATM   22  C   UNL     1     -44.903  57.691 -58.402  1.00  0.00     0.028 A 
HETATM   23  C   UNL     1     -45.476  58.443 -57.387  1.00  0.00     0.117 A 
HETATM   24  N   UNL     1     -45.021  58.454 -56.121  1.00  0.00    -0.271 NA
HETATM   25  C   UNL     1     -43.945  57.672 -55.859  1.00  0.00     0.146 A 
ENDBRANCH   3  19
TORSDOF 6
ENDMDL
MODEL 8
REMARK VINA RESULT:      -6.9      1.704      2.137
REMARK  6 active torsions:
REMARK  status: ('A' for Active; 'I' for Inactive)
REMARK    1  A    between atoms: C_2  and  C_3 
REMARK    2  A    between atoms: C_3  and  O_4 
REMARK    3  A    between atoms: C_3  and  C_12 
REMARK    4  A    between atoms: O_4  and  C_5 
REMARK    5  A    between atoms: C_12  and  N_13 
REMARK       I    between atoms: N_13  and  C_14 
REMARK       I    between atoms: C_14  and  N_15 
REMARK    6  A    between atoms: N_15  and  C_16 
ROOT
HETATM    1  N   UNL     1     -41.258  55.225 -55.593  1.00  0.00    -0.340 N 
HETATM    2  C   UNL     1     -42.328  55.434 -56.429  1.00  0.00     0.320 C 
HETATM    3  N   UNL     1     -42.329  56.716 -56.933  1.00  0.00    -0.307 N 
HETATM    4  O   UNL     1     -43.166  54.583 -56.690  1.00  0.00    -0.247 OA
HETATM    5  H   UNL     1     -40.679  56.022 -55.373  1.00  0.00     0.164 HD
HETATM    6  H   UNL     1     -41.419  57.119 -57.085  1.00  0.00     0.170 HD
ENDROOT
BRANCH   1   7
HETATM    7  C   UNL     1     -40.804  53.930 -55.101  1.00  0.00     0.156 C 
BRANCH   7   8
HETATM    8  C   UNL     1     -41.246  53.461 -53.698  1.00  0.00     0.146 C 
BRANCH   8   9
HETATM    9  C   UNL     1     -42.029  54.519 -52.902  1.00  0.00     0.029 C 
HETATM   10  C   UNL     1     -41.159  55.490 -52.113  1.00  0.00     0.007 C 
ENDBRANCH   8   9
BRANCH   8  11
HETATM   11  O   UNL     1     -40.041  53.128 -52.985  1.00  0.00    -0.343 OA
BRANCH  11  12
HETATM   12  C   UNL     1     -39.998  52.022 -52.179  1.00  0.00     0.091 A 
HETATM   13  C   UNL     1     -39.674  50.806 -52.804  1.00  0.00     0.067 A 
HETATM   14 CL   UNL     1     -39.329  50.730 -54.500  1.00  0.00    -0.081 Cl
HETATM   15  C   UNL     1     -39.618  49.615 -52.074  1.00  0.00     0.026 A 
HETATM   16  C   UNL     1     -39.888  49.621 -50.708  1.00  0.00     0.002 A 
HETATM   17  C   UNL     1     -40.201  50.822 -50.074  1.00  0.00     0.003 A 
HETATM   18  C   UNL     1     -40.248  52.016 -50.803  1.00  0.00     0.038 A 
ENDBRANCH  11  12
ENDBRANCH   8  11
ENDBRANCH   7   8
ENDBRANCH   1   7
BRANCH   3  19
HETATM   19  C   UNL     1     -43.427  57.321 -57.586  1.00  0.00     0.059 A 
HETATM   20  C   UNL     1     -43.462  57.400 -58.989  1.00  0.00    -0.032 A 
HETATM   21  C   UNL     1     -42.419  56.764 -59.861  1.00  0.00     0.050 C 
HETATM   22  C   UNL     1     -44.541  58.061 -59.593  1.00  0.00     0.028 A 
HETATM   23  C   UNL     1     -45.530  58.619 -58.795  1.00  0.00     0.117 A 
HETATM   24  N   UNL     1     -45.523  58.562 -57.452  1.00  0.00    -0.271 NA
HETATM   25  C   UNL     1     -44.479  57.911 -56.879  1.00  0.00     0.146 A 
ENDBRANCH   3  19
TORSDOF 6
ENDMDL
MODEL 9
REMARK VINA RESULT:      -6.8      3.899      4.856
REMARK  6 active torsions:
REMARK  status: ('A' for Active; 'I' for Inactive)
REMARK    1  A    between atoms: C_2  and  C_3 
REMARK    2  A    between atoms: C_3  and  O_4 
REMARK    3  A    between atoms: C_3  and  C_12 
REMARK    4  A    between atoms: O_4  and  C_5 
REMARK    5  A    between atoms: C_12  and  N_13 
REMARK       I    between atoms: N_13  and  C_14 
REMARK       I    between atoms: C_14  and  N_15 
REMARK    6  A    between atoms: N_15  and  C_16 
ROOT
HETATM    1  N   UNL     1     -43.894  55.640 -51.722  1.00  0.00    -0.340 N 
HETATM    2  C   UNL     1     -43.668  56.984 -51.893  1.00  0.00     0.320 C 
HETATM    3  N   UNL     1     -44.362  57.476 -52.976  1.00  0.00    -0.307 N 
HETATM    4  O   UNL     1     -42.944  57.652 -51.169  1.00  0.00    -0.247 OA
HETATM    5  H   UNL     1     -44.434  55.167 -52.430  1.00  0.00     0.164 HD
HETATM    6  H   UNL     1     -45.249  57.035 -53.155  1.00  0.00     0.170 HD
ENDROOT
BRANCH   1   7
HETATM    7  C   UNL     1     -43.538  54.862 -50.541  1.00  0.00     0.156 C 
BRANCH   7   8
HETATM    8  C   UNL     1     -42.091  54.345 -50.390  1.00  0.00     0.146 C 
BRANCH   8   9
HETATM    9  C   UNL     1     -41.251  55.123 -49.362  1.00  0.00     0.029 C 
HETATM   10  C   UNL     1     -40.529  54.250 -48.344  1.00  0.00     0.007 C 
ENDBRANCH   8   9
BRANCH   8  11
HETATM   11  O   UNL     1     -41.482  54.463 -51.688  1.00  0.00    -0.343 OA
BRANCH  11  12
HETATM   12  C   UNL     1     -40.850  53.388 -52.255  1.00  0.00     0.091 A 
HETATM   13  C   UNL     1     -41.171  53.111 -53.595  1.00  0.00     0.067 A 
HETATM   14 CL   UNL     1     -42.291  54.097 -54.474  1.00  0.00    -0.081 Cl
HETATM   15  C   UNL     1     -40.593  52.027 -54.262  1.00  0.00     0.026 A 
HETATM   16  C   UNL     1     -39.687  51.203 -53.601  1.00  0.00     0.002 A 
HETATM   17  C   UNL     1     -39.353  51.473 -52.275  1.00  0.00     0.003 A 
HETATM   18  C   UNL     1     -39.924  52.562 -51.609  1.00  0.00     0.038 A 
ENDBRANCH  11  12
ENDBRANCH   8  11
ENDBRANCH   7   8
ENDBRANCH   1   7
BRANCH   3  19
HETATM   19  C   UNL     1     -44.127  58.735 -53.576  1.00  0.00     0.059 A 
HETATM   20  C   UNL     1     -44.873  59.858 -53.183  1.00  0.00    -0.032 A 
HETATM   21  C   UNL     1     -45.861  59.818 -52.053  1.00  0.00     0.050 C 
HETATM   22  C   UNL     1     -44.649  61.073 -53.846  1.00  0.00     0.028 A 
HETATM   23  C   UNL     1     -43.711  61.128 -54.866  1.00  0.00     0.117 A 
HETATM   24  N   UNL     1     -42.984  60.071 -55.267  1.00  0.00    -0.271 NA
HETATM   25  C   UNL     1     -43.202  58.903 -54.611  1.00  0.00     0.146 A 
ENDBRANCH   3  19
TORSDOF 6
ENDMDL
MODEL 10
REMARK VINA RESULT:      -6.7      3.189      8.141
REMARK  6 active torsions:
REMARK  status: ('A' for Active; 'I' for Inactive)
REMARK    1  A    between atoms: C_2  and  C_3 
REMARK    2  A    between atoms: C_3  and  O_4 
REMARK    3  A    between atoms: C_3  and  C_12 
REMARK    4  A    between atoms: O_4  and  C_5 
REMARK    5  A    between atoms: C_12  and  N_13 
REMARK       I    between atoms: N_13  and  C_14 
REMARK       I    between atoms: C_14  and  N_15 
REMARK    6  A    between atoms: N_15  and  C_16 
ROOT
HETATM    1  N   UNL     1     -41.269  55.651 -54.391  1.00  0.00    -0.340 N 
HETATM    2  C   UNL     1     -41.439  54.418 -53.811  1.00  0.00     0.320 C 
HETATM    3  N   UNL     1     -40.235  53.771 -53.645  1.00  0.00    -0.307 N 
HETATM    4  O   UNL     1     -42.525  53.961 -53.485  1.00  0.00    -0.247 OA
HETATM    5  H   UNL     1     -40.341  55.891 -54.706  1.00  0.00     0.164 HD
HETATM    6  H   UNL     1     -39.447  54.369 -53.455  1.00  0.00     0.170 HD
ENDROOT
BRANCH   1   7
HETATM    7  C   UNL     1     -42.280  56.699 -54.472  1.00  0.00     0.156 C 
BRANCH   7   8
HETATM    8  C   UNL     1     -41.992  57.959 -55.316  1.00  0.00     0.146 C 
BRANCH   8   9
HETATM    9  C   UNL     1     -41.996  59.268 -54.509  1.00  0.00     0.029 C 
HETATM   10  C   UNL     1     -41.187  59.218 -53.219  1.00  0.00     0.007 C 
ENDBRANCH   8   9
BRANCH   8  11
HETATM   11  O   UNL     1     -43.022  58.017 -56.319  1.00  0.00    -0.343 OA
BRANCH  11  12
HETATM   12  C   UNL     1     -42.806  57.490 -57.564  1.00  0.00     0.091 A 
HETATM   13  C   UNL     1     -42.140  58.316 -58.485  1.00  0.00     0.067 A 
HETATM   14 CL   UNL     1     -41.609  59.905 -58.049  1.00  0.00    -0.081 Cl
HETATM   15  C   UNL     1     -41.883  57.878 -59.788  1.00  0.00     0.026 A 
HETATM   16  C   UNL     1     -42.290  56.609 -60.190  1.00  0.00     0.002 A 
HETATM   17  C   UNL     1     -42.943  55.776 -59.283  1.00  0.00     0.003 A 
HETATM   18  C   UNL     1     -43.192  56.210 -57.977  1.00  0.00     0.038 A 
ENDBRANCH  11  12
ENDBRANCH   8  11
ENDBRANCH   7   8
ENDBRANCH   1   7
BRANCH   3  19
HETATM   19  C   UNL     1     -40.096  52.397 -53.341  1.00  0.00     0.059 A 
HETATM   20  C   UNL     1     -39.813  51.985 -52.028  1.00  0.00    -0.032 A 
HETATM   21  C   UNL     1     -39.753  52.944 -50.875  1.00  0.00     0.050 C 
HETATM   22  C   UNL     1     -39.625  50.617 -51.784  1.00  0.00     0.028 A 
HETATM   23  C   UNL     1     -39.716  49.719 -52.837  1.00  0.00     0.117 A 
HETATM   24  N   UNL     1     -39.983  50.082 -54.104  1.00  0.00    -0.271 NA
HETATM   25  C   UNL     1     -40.173  51.407 -54.326  1.00  0.00     0.146 A 
ENDBRANCH   3  19
TORSDOF 6
ENDMDL
