MODEL 1
REMARK VINA RESULT:      -8.6      0.000      0.000
REMARK  7 active torsions:
REMARK  status: ('A' for Active; 'I' for Inactive)
REMARK    1  A    between atoms: O_2  and  C_3 
REMARK    2  A    between atoms: C_6  and  C_7 
REMARK    3  A    between atoms: N_9  and  C_10 
REMARK    4  A    between atoms: C_10  and  C_11 
REMARK    5  A    between atoms: C_18  and  C_19 
REMARK       I    between atoms: C_19  and  N_20 
REMARK    6  A    between atoms: N_20  and  N_21 
REMARK       I    between atoms: N_21  and  C_22 
REMARK    7  A    between atoms: C_22  and  C_23 
ROOT
HETATM    1  C   UNL     1     -41.312  55.609 -52.903  1.00  0.00     0.104 A 
HETATM    2  N   UNL     1     -41.090  56.504 -51.921  1.00  0.00    -0.171 NA
HETATM    3  N   UNL     1     -41.725  57.617 -52.310  1.00  0.00    -0.275 N 
HETATM    4  C   UNL     1     -42.269  57.516 -53.554  1.00  0.00     0.132 A 
HETATM    5  C   UNL     1     -42.057  56.212 -53.973  1.00  0.00     0.082 A 
ENDROOT
BRANCH   5   6
HETATM    6  C   UNL     1     -42.568  55.627 -55.205  1.00  0.00     0.274 C 
HETATM    7  N   UNL     1     -42.155  56.267 -56.357  1.00  0.00    -0.263 N 
HETATM    8  H   UNL     1     -41.587  57.110 -56.357  1.00  0.00     0.190 HD
HETATM    9  O   UNL     1     -43.311  54.648 -55.243  1.00  0.00    -0.266 OA
BRANCH   7  10
HETATM   10  N   UNL     1     -42.716  55.897 -57.586  1.00  0.00    -0.262 N 
HETATM   11  C   UNL     1     -43.774  56.640 -58.066  1.00  0.00     0.286 C 
HETATM   12  O   UNL     1     -44.133  57.681 -57.512  1.00  0.00    -0.264 OA
HETATM   13  H   UNL     1     -42.503  54.961 -57.921  1.00  0.00     0.190 HD
BRANCH  11  14
HETATM   14  C   UNL     1     -44.434  56.118 -59.239  1.00  0.00     0.102 A 
HETATM   15  N   UNL     1     -45.769  56.369 -59.483  1.00  0.00    -0.361 N 
HETATM   16  H   UNL     1     -46.357  56.923 -58.871  1.00  0.00     0.165 HD
HETATM   17  C   UNL     1     -46.162  55.767 -60.646  1.00  0.00     0.088 A 
HETATM   18  C   UNL     1     -45.071  55.119 -61.176  1.00  0.00     0.019 A 
HETATM   19  C   UNL     1     -43.983  55.338 -60.294  1.00  0.00     0.036 A 
ENDBRANCH  11  14
ENDBRANCH   7  10
ENDBRANCH   5   6
BRANCH   1  20
HETATM   20  C   UNL     1     -40.795  54.243 -52.744  1.00  0.00    -0.004 A 
HETATM   21  C   UNL     1     -40.433  53.505 -53.885  1.00  0.00     0.016 A 
HETATM   22  C   UNL     1     -39.950  52.196 -53.783  1.00  0.00     0.037 A 
HETATM   23  C   UNL     1     -39.817  51.598 -52.532  1.00  0.00     0.068 A 
HETATM   24  C   UNL     1     -40.187  52.317 -51.394  1.00  0.00     0.037 A 
HETATM   25  C   UNL     1     -40.680  53.624 -51.497  1.00  0.00     0.016 A 
BRANCH  23  26
HETATM   26  O   UNL     1     -39.353  50.335 -52.291  1.00  0.00    -0.356 OA
HETATM   27  C   UNL     1     -39.513  49.836 -50.968  1.00  0.00     0.210 C 
ENDBRANCH  23  26
ENDBRANCH   1  20
BRANCH   3  28
HETATM   28  C   UNL     1     -41.801  58.764 -51.415  1.00  0.00     0.189 C 
BRANCH  28  29
HETATM   29  C   UNL     1     -43.221  59.262 -51.287  1.00  0.00    -0.038 A 
HETATM   30  C   UNL     1     -44.270  58.358 -51.048  1.00  0.00     0.009 A 
HETATM   31  C   UNL     1     -45.587  58.808 -50.951  1.00  0.00     0.001 A 
HETATM   32  C   UNL     1     -45.871  60.164 -51.084  1.00  0.00     0.000 A 
HETATM   33  C   UNL     1     -44.839  61.073 -51.315  1.00  0.00     0.001 A 
HETATM   34  C   UNL     1     -43.520  60.626 -51.415  1.00  0.00     0.009 A 
ENDBRANCH  28  29
ENDBRANCH   3  28
TORSDOF 7
ENDMDL
MODEL 2
REMARK VINA RESULT:      -8.5      1.968      6.493
REMARK  7 active torsions:
REMARK  status: ('A' for Active; 'I' for Inactive)
REMARK    1  A    between atoms: O_2  and  C_3 
REMARK    2  A    between atoms: C_6  and  C_7 
REMARK    3  A    between atoms: N_9  and  C_10 
REMARK    4  A    between atoms: C_10  and  C_11 
REMARK    5  A    between atoms: C_18  and  C_19 
REMARK       I    between atoms: C_19  and  N_20 
REMARK    6  A    between atoms: N_20  and  N_21 
REMARK       I    between atoms: N_21  and  C_22 
REMARK    7  A    between atoms: C_22  and  C_23 
ROOT
HETATM    1  C   UNL     1     -41.793  55.896 -52.531  1.00  0.00     0.104 A 
HETATM    2  N   UNL     1     -41.004  55.476 -51.522  1.00  0.00    -0.171 NA
HETATM    3  N   UNL     1     -40.978  54.141 -51.629  1.00  0.00    -0.275 N 
HETATM    4  C   UNL     1     -41.799  53.666 -52.607  1.00  0.00     0.132 A 
HETATM    5  C   UNL     1     -42.329  54.774 -53.250  1.00  0.00     0.082 A 
ENDROOT
BRANCH   5   6
HETATM    6  C   UNL     1     -43.178  54.738 -54.432  1.00  0.00     0.274 C 
HETATM    7  N   UNL     1     -42.491  54.680 -55.629  1.00  0.00    -0.263 N 
HETATM    8  H   UNL     1     -41.477  54.713 -55.695  1.00  0.00     0.190 HD
HETATM    9  O   UNL     1     -44.407  54.763 -54.396  1.00  0.00    -0.266 OA
BRANCH   7  10
HETATM   10  N   UNL     1     -43.196  54.809 -56.832  1.00  0.00    -0.262 N 
HETATM   11  C   UNL     1     -43.110  56.010 -57.507  1.00  0.00     0.286 C 
HETATM   12  O   UNL     1     -42.333  56.896 -57.147  1.00  0.00    -0.264 OA
HETATM   13  H   UNL     1     -43.934  54.131 -57.004  1.00  0.00     0.190 HD
BRANCH  11  14
HETATM   14  C   UNL     1     -43.991  56.162 -58.641  1.00  0.00     0.102 A 
HETATM   15  N   UNL     1     -45.173  56.869 -58.542  1.00  0.00    -0.361 N 
HETATM   16  H   UNL     1     -45.490  57.316 -57.689  1.00  0.00     0.165 HD
HETATM   17  C   UNL     1     -45.830  56.868 -59.741  1.00  0.00     0.088 A 
HETATM   18  C   UNL     1     -45.068  56.159 -60.639  1.00  0.00     0.019 A 
HETATM   19  C   UNL     1     -43.911  55.715 -59.952  1.00  0.00     0.036 A 
ENDBRANCH  11  14
ENDBRANCH   7  10
ENDBRANCH   5   6
BRANCH   1  20
HETATM   20  C   UNL     1     -41.973  57.340 -52.732  1.00  0.00    -0.004 A 
HETATM   21  C   UNL     1     -41.281  57.983 -53.773  1.00  0.00     0.016 A 
HETATM   22  C   UNL     1     -41.410  59.359 -53.994  1.00  0.00     0.037 A 
HETATM   23  C   UNL     1     -42.239  60.121 -53.174  1.00  0.00     0.068 A 
HETATM   24  C   UNL     1     -42.920  59.494 -52.129  1.00  0.00     0.037 A 
HETATM   25  C   UNL     1     -42.784  58.118 -51.902  1.00  0.00     0.016 A 
BRANCH  23  26
HETATM   26  O   UNL     1     -42.461  61.465 -53.284  1.00  0.00    -0.356 OA
HETATM   27  C   UNL     1     -43.748  61.867 -53.738  1.00  0.00     0.210 C 
ENDBRANCH  23  26
ENDBRANCH   1  20
BRANCH   3  28
HETATM   28  C   UNL     1     -40.107  53.357 -50.764  1.00  0.00     0.189 C 
BRANCH  28  29
HETATM   29  C   UNL     1     -39.910  51.962 -51.309  1.00  0.00    -0.038 A 
HETATM   30  C   UNL     1     -39.578  51.770 -52.660  1.00  0.00     0.009 A 
HETATM   31  C   UNL     1     -39.417  50.483 -53.175  1.00  0.00     0.001 A 
HETATM   32  C   UNL     1     -39.578  49.376 -52.347  1.00  0.00     0.000 A 
HETATM   33  C   UNL     1     -39.902  49.554 -51.002  1.00  0.00     0.001 A 
HETATM   34  C   UNL     1     -40.067  50.839 -50.484  1.00  0.00     0.009 A 
ENDBRANCH  28  29
ENDBRANCH   3  28
TORSDOF 7
ENDMDL
MODEL 3
REMARK VINA RESULT:      -8.3      3.111      8.477
REMARK  7 active torsions:
REMARK  status: ('A' for Active; 'I' for Inactive)
REMARK    1  A    between atoms: O_2  and  C_3 
REMARK    2  A    between atoms: C_6  and  C_7 
REMARK    3  A    between atoms: N_9  and  C_10 
REMARK    4  A    between atoms: C_10  and  C_11 
REMARK    5  A    between atoms: C_18  and  C_19 
REMARK       I    between atoms: C_19  and  N_20 
REMARK    6  A    between atoms: N_20  and  N_21 
REMARK       I    between atoms: N_21  and  C_22 
REMARK    7  A    between atoms: C_22  and  C_23 
ROOT
HETATM    1  C   UNL     1     -41.622  55.389 -52.948  1.00  0.00     0.104 A 
HETATM    2  N   UNL     1     -40.682  54.427 -52.866  1.00  0.00    -0.171 NA
HETATM    3  N   UNL     1     -40.544  54.182 -51.556  1.00  0.00    -0.275 N 
HETATM    4  C   UNL     1     -41.285  55.016 -50.774  1.00  0.00     0.132 A 
HETATM    5  C   UNL     1     -42.034  55.803 -51.635  1.00  0.00     0.082 A 
ENDROOT
BRANCH   5   6
HETATM    6  C   UNL     1     -43.050  56.765 -51.233  1.00  0.00     0.274 C 
HETATM    7  N   UNL     1     -42.605  58.071 -51.163  1.00  0.00    -0.263 N 
HETATM    8  H   UNL     1     -41.640  58.344 -51.325  1.00  0.00     0.190 HD
HETATM    9  O   UNL     1     -44.211  56.465 -50.964  1.00  0.00    -0.266 OA
BRANCH   7  10
HETATM   10  N   UNL     1     -43.447  59.055 -50.627  1.00  0.00    -0.262 N 
HETATM   11  C   UNL     1     -42.904  60.293 -50.355  1.00  0.00     0.286 C 
HETATM   12  O   UNL     1     -41.756  60.583 -50.698  1.00  0.00    -0.264 OA
HETATM   13  H   UNL     1     -44.321  58.734 -50.218  1.00  0.00     0.190 HD
BRANCH  11  14
HETATM   14  C   UNL     1     -43.756  61.214 -49.640  1.00  0.00     0.102 A 
HETATM   15  N   UNL     1     -44.350  60.861 -48.445  1.00  0.00    -0.361 N 
HETATM   16  H   UNL     1     -44.229  59.957 -48.003  1.00  0.00     0.165 HD
HETATM   17  C   UNL     1     -45.108  61.894 -47.967  1.00  0.00     0.088 A 
HETATM   18  C   UNL     1     -45.005  62.939 -48.854  1.00  0.00     0.019 A 
HETATM   19  C   UNL     1     -44.155  62.516 -49.907  1.00  0.00     0.036 A 
ENDBRANCH  11  14
ENDBRANCH   7  10
ENDBRANCH   5   6
BRANCH   1  20
HETATM   20  C   UNL     1     -42.055  55.840 -54.277  1.00  0.00    -0.004 A 
HETATM   21  C   UNL     1     -42.401  54.886 -55.250  1.00  0.00     0.016 A 
HETATM   22  C   UNL     1     -42.806  55.268 -56.534  1.00  0.00     0.037 A 
HETATM   23  C   UNL     1     -42.874  56.618 -56.870  1.00  0.00     0.068 A 
HETATM   24  C   UNL     1     -42.520  57.573 -55.915  1.00  0.00     0.037 A 
HETATM   25  C   UNL     1     -42.105  57.190 -54.633  1.00  0.00     0.016 A 
BRANCH  23  26
HETATM   26  O   UNL     1     -43.260  57.126 -58.080  1.00  0.00    -0.356 OA
HETATM   27  C   UNL     1     -44.443  57.915 -58.094  1.00  0.00     0.210 C 
ENDBRANCH  23  26
ENDBRANCH   1  20
BRANCH   3  28
HETATM   28  C   UNL     1     -39.689  53.093 -51.104  1.00  0.00     0.189 C 
BRANCH  28  29
HETATM   29  C   UNL     1     -39.757  51.918 -52.051  1.00  0.00    -0.038 A 
HETATM   30  C   UNL     1     -39.595  50.609 -51.569  1.00  0.00     0.009 A 
HETATM   31  C   UNL     1     -39.635  49.520 -52.440  1.00  0.00     0.001 A 
HETATM   32  C   UNL     1     -39.843  49.726 -53.801  1.00  0.00     0.000 A 
HETATM   33  C   UNL     1     -40.013  51.020 -54.292  1.00  0.00     0.001 A 
HETATM   34  C   UNL     1     -39.971  52.112 -53.423  1.00  0.00     0.009 A 
ENDBRANCH  28  29
ENDBRANCH   3  28
TORSDOF 7
ENDMDL
MODEL 4
REMARK VINA RESULT:      -8.0      2.199      7.217
REMARK  7 active torsions:
REMARK  status: ('A' for Active; 'I' for Inactive)
REMARK    1  A    between atoms: O_2  and  C_3 
REMARK    2  A    between atoms: C_6  and  C_7 
REMARK    3  A    between atoms: N_9  and  C_10 
REMARK    4  A    between atoms: C_10  and  C_11 
REMARK    5  A    between atoms: C_18  and  C_19 
REMARK       I    between atoms: C_19  and  N_20 
REMARK    6  A    between atoms: N_20  and  N_21 
REMARK       I    between atoms: N_21  and  C_22 
REMARK    7  A    between atoms: C_22  and  C_23 
ROOT
HETATM    1  C   UNL     1     -42.083  56.256 -55.722  1.00  0.00     0.104 A 
HETATM    2  N   UNL     1     -42.304  56.002 -57.027  1.00  0.00    -0.171 NA
HETATM    3  N   UNL     1     -42.673  57.176 -57.556  1.00  0.00    -0.275 N 
HETATM    4  C   UNL     1     -42.800  58.165 -56.628  1.00  0.00     0.132 A 
HETATM    5  C   UNL     1     -42.393  57.625 -55.418  1.00  0.00     0.082 A 
ENDROOT
BRANCH   5   6
HETATM    6  C   UNL     1     -42.261  58.360 -54.167  1.00  0.00     0.274 C 
HETATM    7  N   UNL     1     -43.444  58.522 -53.472  1.00  0.00    -0.263 N 
HETATM    8  H   UNL     1     -44.346  58.207 -53.819  1.00  0.00     0.190 HD
HETATM    9  O   UNL     1     -41.199  58.814 -53.746  1.00  0.00    -0.266 OA
BRANCH   7  10
HETATM   10  N   UNL     1     -43.468  59.352 -52.344  1.00  0.00    -0.262 N 
HETATM   11  C   UNL     1     -44.466  59.151 -51.413  1.00  0.00     0.286 C 
HETATM   12  O   UNL     1     -45.232  58.188 -51.487  1.00  0.00    -0.264 OA
HETATM   13  H   UNL     1     -42.932  60.215 -52.401  1.00  0.00     0.190 HD
BRANCH  11  14
HETATM   14  C   UNL     1     -44.561  60.140 -50.364  1.00  0.00     0.102 A 
HETATM   15  N   UNL     1     -45.419  59.971 -49.296  1.00  0.00    -0.361 N 
HETATM   16  H   UNL     1     -46.021  59.164 -49.181  1.00  0.00     0.165 HD
HETATM   17  C   UNL     1     -45.333  61.037 -48.444  1.00  0.00     0.088 A 
HETATM   18  C   UNL     1     -44.403  61.911 -48.954  1.00  0.00     0.019 A 
HETATM   19  C   UNL     1     -43.915  61.350 -50.161  1.00  0.00     0.036 A 
ENDBRANCH  11  14
ENDBRANCH   7  10
ENDBRANCH   5   6
BRANCH   1  20
HETATM   20  C   UNL     1     -41.592  55.170 -54.865  1.00  0.00    -0.004 A 
HETATM   21  C   UNL     1     -42.188  54.959 -53.609  1.00  0.00     0.016 A 
HETATM   22  C   UNL     1     -41.744  53.946 -52.751  1.00  0.00     0.037 A 
HETATM   23  C   UNL     1     -40.692  53.118 -53.138  1.00  0.00     0.068 A 
HETATM   24  C   UNL     1     -40.084  53.328 -54.377  1.00  0.00     0.037 A 
HETATM   25  C   UNL     1     -40.522  54.349 -55.231  1.00  0.00     0.016 A 
BRANCH  23  26
HETATM   26  O   UNL     1     -40.168  52.090 -52.404  1.00  0.00    -0.356 OA
HETATM   27  C   UNL     1     -40.105  52.276 -50.995  1.00  0.00     0.210 C 
ENDBRANCH  23  26
ENDBRANCH   1  20
BRANCH   3  28
HETATM   28  C   UNL     1     -42.871  57.298 -58.994  1.00  0.00     0.189 C 
BRANCH  28  29
HETATM   29  C   UNL     1     -44.277  56.911 -59.386  1.00  0.00    -0.038 A 
HETATM   30  C   UNL     1     -44.498  55.829 -60.253  1.00  0.00     0.009 A 
HETATM   31  C   UNL     1     -45.793  55.479 -60.637  1.00  0.00     0.001 A 
HETATM   32  C   UNL     1     -46.881  56.202 -60.155  1.00  0.00     0.000 A 
HETATM   33  C   UNL     1     -46.676  57.275 -59.287  1.00  0.00     0.001 A 
HETATM   34  C   UNL     1     -45.381  57.629 -58.904  1.00  0.00     0.009 A 
ENDBRANCH  28  29
ENDBRANCH   3  28
TORSDOF 7
ENDMDL
MODEL 5
REMARK VINA RESULT:      -7.9      2.261      6.734
REMARK  7 active torsions:
REMARK  status: ('A' for Active; 'I' for Inactive)
REMARK    1  A    between atoms: O_2  and  C_3 
REMARK    2  A    between atoms: C_6  and  C_7 
REMARK    3  A    between atoms: N_9  and  C_10 
REMARK    4  A    between atoms: C_10  and  C_11 
REMARK    5  A    between atoms: C_18  and  C_19 
REMARK       I    between atoms: C_19  and  N_20 
REMARK    6  A    between atoms: N_20  and  N_21 
REMARK       I    between atoms: N_21  and  C_22 
REMARK    7  A    between atoms: C_22  and  C_23 
ROOT
HETATM    1  C   UNL     1     -42.164  55.788 -51.931  1.00  0.00     0.104 A 
HETATM    2  N   UNL     1     -41.289  55.235 -51.069  1.00  0.00    -0.171 NA
HETATM    3  N   UNL     1     -40.957  54.057 -51.614  1.00  0.00    -0.275 N 
HETATM    4  C   UNL     1     -41.657  53.775 -52.747  1.00  0.00     0.132 A 
HETATM    5  C   UNL     1     -42.436  54.889 -53.018  1.00  0.00     0.082 A 
ENDROOT
BRANCH   5   6
HETATM    6  C   UNL     1     -43.267  55.071 -54.199  1.00  0.00     0.274 C 
HETATM    7  N   UNL     1     -42.930  56.165 -54.973  1.00  0.00    -0.263 N 
HETATM    8  H   UNL     1     -42.199  56.825 -54.721  1.00  0.00     0.190 HD
HETATM    9  O   UNL     1     -44.201  54.332 -54.502  1.00  0.00    -0.266 OA
BRANCH   7  10
HETATM   10  N   UNL     1     -43.761  56.535 -56.038  1.00  0.00    -0.262 N 
HETATM   11  C   UNL     1     -44.381  57.765 -55.978  1.00  0.00     0.286 C 
HETATM   12  O   UNL     1     -44.112  58.580 -55.093  1.00  0.00    -0.264 OA
HETATM   13  H   UNL     1     -44.076  55.787 -56.652  1.00  0.00     0.190 HD
BRANCH  11  14
HETATM   14  C   UNL     1     -45.365  58.029 -57.003  1.00  0.00     0.102 A 
HETATM   15  N   UNL     1     -46.610  58.533 -56.688  1.00  0.00    -0.361 N 
HETATM   16  H   UNL     1     -46.907  58.747 -55.743  1.00  0.00     0.165 HD
HETATM   17  C   UNL     1     -47.359  58.692 -57.821  1.00  0.00     0.088 A 
HETATM   18  C   UNL     1     -46.595  58.293 -58.892  1.00  0.00     0.019 A 
HETATM   19  C   UNL     1     -45.340  57.877 -58.381  1.00  0.00     0.036 A 
ENDBRANCH  11  14
ENDBRANCH   7  10
ENDBRANCH   5   6
BRANCH   1  20
HETATM   20  C   UNL     1     -42.675  57.136 -51.651  1.00  0.00    -0.004 A 
HETATM   21  C   UNL     1     -41.766  58.178 -51.391  1.00  0.00     0.016 A 
HETATM   22  C   UNL     1     -42.206  59.475 -51.104  1.00  0.00     0.037 A 
HETATM   23  C   UNL     1     -43.569  59.757 -51.073  1.00  0.00     0.068 A 
HETATM   24  C   UNL     1     -44.480  58.727 -51.316  1.00  0.00     0.037 A 
HETATM   25  C   UNL     1     -44.040  57.426 -51.593  1.00  0.00     0.016 A 
BRANCH  23  26
HETATM   26  O   UNL     1     -44.132  60.976 -50.816  1.00  0.00    -0.356 OA
HETATM   27  C   UNL     1     -43.241  62.079 -50.693  1.00  0.00     0.210 C 
ENDBRANCH  23  26
ENDBRANCH   1  20
BRANCH   3  28
HETATM   28  C   UNL     1     -39.919  53.238 -51.002  1.00  0.00     0.189 C 
BRANCH  28  29
HETATM   29  C   UNL     1     -39.800  51.902 -51.697  1.00  0.00    -0.038 A 
HETATM   30  C   UNL     1     -39.858  50.710 -50.956  1.00  0.00     0.009 A 
HETATM   31  C   UNL     1     -39.727  49.473 -51.587  1.00  0.00     0.001 A 
HETATM   32  C   UNL     1     -39.542  49.411 -52.965  1.00  0.00     0.000 A 
HETATM   33  C   UNL     1     -39.488  50.587 -53.714  1.00  0.00     0.001 A 
HETATM   34  C   UNL     1     -39.616  51.826 -53.085  1.00  0.00     0.009 A 
ENDBRANCH  28  29
ENDBRANCH   3  28
TORSDOF 7
ENDMDL
MODEL 6
REMARK VINA RESULT:      -7.9      2.790      6.925
REMARK  7 active torsions:
REMARK  status: ('A' for Active; 'I' for Inactive)
REMARK    1  A    between atoms: O_2  and  C_3 
REMARK    2  A    between atoms: C_6  and  C_7 
REMARK    3  A    between atoms: N_9  and  C_10 
REMARK    4  A    between atoms: C_10  and  C_11 
REMARK    5  A    between atoms: C_18  and  C_19 
REMARK       I    between atoms: C_19  and  N_20 
REMARK    6  A    between atoms: N_20  and  N_21 
REMARK       I    between atoms: N_21  and  C_22 
REMARK    7  A    between atoms: C_22  and  C_23 
ROOT
HETATM    1  C   UNL     1     -42.644  57.378 -51.947  1.00  0.00     0.104 A 
HETATM    2  N   UNL     1     -42.363  56.303 -51.185  1.00  0.00    -0.171 NA
HETATM    3  N   UNL     1     -41.424  55.629 -51.861  1.00  0.00    -0.275 N 
HETATM    4  C   UNL     1     -41.152  56.168 -53.081  1.00  0.00     0.132 A 
HETATM    5  C   UNL     1     -41.898  57.333 -53.174  1.00  0.00     0.082 A 
ENDROOT
BRANCH   5   6
HETATM    6  C   UNL     1     -41.836  58.291 -54.268  1.00  0.00     0.274 C 
HETATM    7  N   UNL     1     -42.701  58.024 -55.312  1.00  0.00    -0.263 N 
HETATM    8  H   UNL     1     -43.297  57.202 -55.349  1.00  0.00     0.190 HD
HETATM    9  O   UNL     1     -41.081  59.261 -54.290  1.00  0.00    -0.266 OA
BRANCH   7  10
HETATM   10  N   UNL     1     -42.611  58.780 -56.488  1.00  0.00    -0.262 N 
HETATM   11  C   UNL     1     -42.536  58.104 -57.688  1.00  0.00     0.286 C 
HETATM   12  O   UNL     1     -42.685  56.881 -57.749  1.00  0.00    -0.264 OA
HETATM   13  H   UNL     1     -42.333  59.753 -56.385  1.00  0.00     0.190 HD
BRANCH  11  14
HETATM   14  C   UNL     1     -42.263  58.911 -58.854  1.00  0.00     0.102 A 
HETATM   15  N   UNL     1     -41.986  60.259 -58.744  1.00  0.00    -0.361 N 
HETATM   16  H   UNL     1     -41.954  60.755 -57.861  1.00  0.00     0.165 HD
HETATM   17  C   UNL     1     -41.767  60.802 -59.979  1.00  0.00     0.088 A 
HETATM   18  C   UNL     1     -41.897  59.799 -60.910  1.00  0.00     0.019 A 
HETATM   19  C   UNL     1     -42.207  58.609 -60.206  1.00  0.00     0.036 A 
ENDBRANCH  11  14
ENDBRANCH   7  10
ENDBRANCH   5   6
BRANCH   1  20
HETATM   20  C   UNL     1     -43.605  58.369 -51.444  1.00  0.00    -0.004 A 
HETATM   21  C   UNL     1     -43.148  59.646 -51.072  1.00  0.00     0.016 A 
HETATM   22  C   UNL     1     -44.024  60.617 -50.574  1.00  0.00     0.037 A 
HETATM   23  C   UNL     1     -45.380  60.329 -50.439  1.00  0.00     0.068 A 
HETATM   24  C   UNL     1     -45.841  59.059 -50.793  1.00  0.00     0.037 A 
HETATM   25  C   UNL     1     -44.963  58.084 -51.283  1.00  0.00     0.016 A 
BRANCH  23  26
HETATM   26  O   UNL     1     -46.341  61.184 -49.976  1.00  0.00    -0.356 OA
HETATM   27  C   UNL     1     -45.906  62.227 -49.111  1.00  0.00     0.210 C 
ENDBRANCH  23  26
ENDBRANCH   1  20
BRANCH   3  28
HETATM   28  C   UNL     1     -40.789  54.463 -51.261  1.00  0.00     0.189 C 
BRANCH  28  29
HETATM   29  C   UNL     1     -40.589  53.367 -52.280  1.00  0.00    -0.038 A 
HETATM   30  C   UNL     1     -41.363  53.339 -53.451  1.00  0.00     0.009 A 
HETATM   31  C   UNL     1     -41.200  52.317 -54.387  1.00  0.00     0.001 A 
HETATM   32  C   UNL     1     -40.259  51.316 -54.167  1.00  0.00     0.000 A 
HETATM   33  C   UNL     1     -39.479  51.335 -53.011  1.00  0.00     0.001 A 
HETATM   34  C   UNL     1     -39.642  52.355 -52.071  1.00  0.00     0.009 A 
ENDBRANCH  28  29
ENDBRANCH   3  28
TORSDOF 7
ENDMDL
MODEL 7
REMARK VINA RESULT:      -7.9      3.037      7.726
REMARK  7 active torsions:
REMARK  status: ('A' for Active; 'I' for Inactive)
REMARK    1  A    between atoms: O_2  and  C_3 
REMARK    2  A    between atoms: C_6  and  C_7 
REMARK    3  A    between atoms: N_9  and  C_10 
REMARK    4  A    between atoms: C_10  and  C_11 
REMARK    5  A    between atoms: C_18  and  C_19 
REMARK       I    between atoms: C_19  and  N_20 
REMARK    6  A    between atoms: N_20  and  N_21 
REMARK       I    between atoms: N_21  and  C_22 
REMARK    7  A    between atoms: C_22  and  C_23 
ROOT
HETATM    1  C   UNL     1     -43.431  56.537 -54.160  1.00  0.00     0.104 A 
HETATM    2  N   UNL     1     -43.798  56.550 -55.457  1.00  0.00    -0.171 NA
HETATM    3  N   UNL     1     -44.556  57.646 -55.595  1.00  0.00    -0.275 N 
HETATM    4  C   UNL     1     -44.780  58.295 -54.419  1.00  0.00     0.132 A 
HETATM    5  C   UNL     1     -44.039  57.630 -53.455  1.00  0.00     0.082 A 
ENDROOT
BRANCH   5   6
HETATM    6  C   UNL     1     -43.893  58.045 -52.067  1.00  0.00     0.274 C 
HETATM    7  N   UNL     1     -45.072  58.432 -51.459  1.00  0.00    -0.263 N 
HETATM    8  H   UNL     1     -45.964  58.479 -51.944  1.00  0.00     0.190 HD
HETATM    9  O   UNL     1     -42.822  58.066 -51.464  1.00  0.00    -0.266 OA
BRANCH   7  10
HETATM   10  N   UNL     1     -45.029  59.008 -50.182  1.00  0.00    -0.262 N 
HETATM   11  C   UNL     1     -45.687  60.205 -49.989  1.00  0.00     0.286 C 
HETATM   12  O   UNL     1     -46.408  60.691 -50.862  1.00  0.00    -0.264 OA
HETATM   13  H   UNL     1     -44.307  58.667 -49.552  1.00  0.00     0.190 HD
BRANCH  11  14
HETATM   14  C   UNL     1     -45.467  60.849 -48.715  1.00  0.00     0.102 A 
HETATM   15  N   UNL     1     -45.659  60.174 -47.527  1.00  0.00    -0.361 N 
HETATM   16  H   UNL     1     -45.957  59.207 -47.473  1.00  0.00     0.165 HD
HETATM   17  C   UNL     1     -45.392  60.993 -46.466  1.00  0.00     0.088 A 
HETATM   18  C   UNL     1     -45.014  62.218 -46.962  1.00  0.00     0.019 A 
HETATM   19  C   UNL     1     -45.059  62.131 -48.376  1.00  0.00     0.036 A 
ENDBRANCH  11  14
ENDBRANCH   7  10
ENDBRANCH   5   6
BRANCH   1  20
HETATM   20  C   UNL     1     -42.524  55.479 -53.695  1.00  0.00    -0.004 A 
HETATM   21  C   UNL     1     -41.302  55.276 -54.361  1.00  0.00     0.016 A 
HETATM   22  C   UNL     1     -40.413  54.271 -53.962  1.00  0.00     0.037 A 
HETATM   23  C   UNL     1     -40.730  53.448 -52.884  1.00  0.00     0.068 A 
HETATM   24  C   UNL     1     -41.947  53.633 -52.225  1.00  0.00     0.037 A 
HETATM   25  C   UNL     1     -42.841  54.633 -52.630  1.00  0.00     0.016 A 
BRANCH  23  26
HETATM   26  O   UNL     1     -39.952  52.439 -52.388  1.00  0.00    -0.356 OA
HETATM   27  C   UNL     1     -39.713  51.333 -53.249  1.00  0.00     0.210 C 
ENDBRANCH  23  26
ENDBRANCH   1  20
BRANCH   3  28
HETATM   28  C   UNL     1     -45.026  58.045 -56.916  1.00  0.00     0.189 C 
BRANCH  28  29
HETATM   29  C   UNL     1     -44.014  57.698 -57.982  1.00  0.00    -0.038 A 
HETATM   30  C   UNL     1     -42.916  58.540 -58.217  1.00  0.00     0.009 A 
HETATM   31  C   UNL     1     -41.989  58.238 -59.215  1.00  0.00     0.001 A 
HETATM   32  C   UNL     1     -42.145  57.088 -59.984  1.00  0.00     0.000 A 
HETATM   33  C   UNL     1     -43.228  56.239 -59.757  1.00  0.00     0.001 A 
HETATM   34  C   UNL     1     -44.158  56.541 -58.761  1.00  0.00     0.009 A 
ENDBRANCH  28  29
ENDBRANCH   3  28
TORSDOF 7
ENDMDL
MODEL 8
REMARK VINA RESULT:      -7.9      1.728      2.261
REMARK  7 active torsions:
REMARK  status: ('A' for Active; 'I' for Inactive)
REMARK    1  A    between atoms: O_2  and  C_3 
REMARK    2  A    between atoms: C_6  and  C_7 
REMARK    3  A    between atoms: N_9  and  C_10 
REMARK    4  A    between atoms: C_10  and  C_11 
REMARK    5  A    between atoms: C_18  and  C_19 
REMARK       I    between atoms: C_19  and  N_20 
REMARK    6  A    between atoms: N_20  and  N_21 
REMARK       I    between atoms: N_21  and  C_22 
REMARK    7  A    between atoms: C_22  and  C_23 
ROOT
HETATM    1  C   UNL     1     -41.498  57.129 -53.569  1.00  0.00     0.104 A 
HETATM    2  N   UNL     1     -41.188  57.679 -52.378  1.00  0.00    -0.171 NA
HETATM    3  N   UNL     1     -41.577  58.958 -52.470  1.00  0.00    -0.275 N 
HETATM    4  C   UNL     1     -42.037  59.289 -53.708  1.00  0.00     0.132 A 
HETATM    5  C   UNL     1     -42.038  58.122 -54.455  1.00  0.00     0.082 A 
ENDROOT
BRANCH   5   6
HETATM    6  C   UNL     1     -42.555  57.986 -55.809  1.00  0.00     0.274 C 
HETATM    7  N   UNL     1     -43.797  57.387 -55.891  1.00  0.00    -0.263 N 
HETATM    8  H   UNL     1     -44.295  57.018 -55.085  1.00  0.00     0.190 HD
HETATM    9  O   UNL     1     -41.954  58.359 -56.814  1.00  0.00    -0.266 OA
BRANCH   7  10
HETATM   10  N   UNL     1     -44.317  57.053 -57.148  1.00  0.00    -0.262 N 
HETATM   11  C   UNL     1     -45.305  57.858 -57.674  1.00  0.00     0.286 C 
HETATM   12  O   UNL     1     -45.630  58.917 -57.133  1.00  0.00    -0.264 OA
HETATM   13  H   UNL     1     -44.143  56.106 -57.477  1.00  0.00     0.190 HD
BRANCH  11  14
HETATM   14  C   UNL     1     -45.937  57.378 -58.882  1.00  0.00     0.102 A 
HETATM   15  N   UNL     1     -45.595  56.160 -59.434  1.00  0.00    -0.361 N 
HETATM   16  H   UNL     1     -44.899  55.539 -59.037  1.00  0.00     0.165 HD
HETATM   17  C   UNL     1     -46.323  55.931 -60.568  1.00  0.00     0.088 A 
HETATM   18  C   UNL     1     -47.156  57.008 -60.760  1.00  0.00     0.019 A 
HETATM   19  C   UNL     1     -46.916  57.919 -59.701  1.00  0.00     0.036 A 
ENDBRANCH  11  14
ENDBRANCH   7  10
ENDBRANCH   5   6
BRANCH   1  20
HETATM   20  C   UNL     1     -41.254  55.694 -53.768  1.00  0.00    -0.004 A 
HETATM   21  C   UNL     1     -40.464  55.273 -54.852  1.00  0.00     0.016 A 
HETATM   22  C   UNL     1     -40.216  53.916 -55.091  1.00  0.00     0.037 A 
HETATM   23  C   UNL     1     -40.756  52.951 -54.244  1.00  0.00     0.068 A 
HETATM   24  C   UNL     1     -41.554  53.358 -53.173  1.00  0.00     0.037 A 
HETATM   25  C   UNL     1     -41.809  54.716 -52.940  1.00  0.00     0.016 A 
BRANCH  23  26
HETATM   26  O   UNL     1     -40.587  51.599 -54.357  1.00  0.00    -0.356 OA
HETATM   27  C   UNL     1     -39.564  51.013 -53.561  1.00  0.00     0.210 C 
ENDBRANCH  23  26
ENDBRANCH   1  20
BRANCH   3  28
HETATM   28  C   UNL     1     -41.507  59.827 -51.303  1.00  0.00     0.189 C 
BRANCH  28  29
HETATM   29  C   UNL     1     -42.887  60.233 -50.843  1.00  0.00    -0.038 A 
HETATM   30  C   UNL     1     -43.101  61.501 -50.279  1.00  0.00     0.009 A 
HETATM   31  C   UNL     1     -44.368  61.875 -49.831  1.00  0.00     0.001 A 
HETATM   32  C   UNL     1     -45.437  60.990 -49.948  1.00  0.00     0.000 A 
HETATM   33  C   UNL     1     -45.239  59.730 -50.512  1.00  0.00     0.001 A 
HETATM   34  C   UNL     1     -43.972  59.352 -50.958  1.00  0.00     0.009 A 
ENDBRANCH  28  29
ENDBRANCH   3  28
TORSDOF 7
ENDMDL
MODEL 9
REMARK VINA RESULT:      -7.9      2.443      7.179
REMARK  7 active torsions:
REMARK  status: ('A' for Active; 'I' for Inactive)
REMARK    1  A    between atoms: O_2  and  C_3 
REMARK    2  A    between atoms: C_6  and  C_7 
REMARK    3  A    between atoms: N_9  and  C_10 
REMARK    4  A    between atoms: C_10  and  C_11 
REMARK    5  A    between atoms: C_18  and  C_19 
REMARK       I    between atoms: C_19  and  N_20 
REMARK    6  A    between atoms: N_20  and  N_21 
REMARK       I    between atoms: N_21  and  C_22 
REMARK    7  A    between atoms: C_22  and  C_23 
ROOT
HETATM    1  C   UNL     1     -42.498  55.561 -55.682  1.00  0.00     0.104 A 
HETATM    2  N   UNL     1     -42.856  55.126 -56.906  1.00  0.00    -0.171 NA
HETATM    3  N   UNL     1     -43.395  56.192 -57.513  1.00  0.00    -0.275 N 
HETATM    4  C   UNL     1     -43.493  57.279 -56.699  1.00  0.00     0.132 A 
HETATM    5  C   UNL     1     -42.890  56.931 -55.501  1.00  0.00     0.082 A 
ENDROOT
BRANCH   5   6
HETATM    6  C   UNL     1     -42.670  57.827 -54.374  1.00  0.00     0.274 C 
HETATM    7  N   UNL     1     -43.808  58.127 -53.651  1.00  0.00    -0.263 N 
HETATM    8  H   UNL     1     -44.736  57.799 -53.905  1.00  0.00     0.190 HD
HETATM    9  O   UNL     1     -41.574  58.296 -54.074  1.00  0.00    -0.266 OA
BRANCH   7  10
HETATM   10  N   UNL     1     -43.747  59.106 -52.651  1.00  0.00    -0.262 N 
HETATM   11  C   UNL     1     -44.410  58.865 -51.466  1.00  0.00     0.286 C 
HETATM   12  O   UNL     1     -44.925  57.770 -51.228  1.00  0.00    -0.264 OA
HETATM   13  H   UNL     1     -43.458  60.037 -52.942  1.00  0.00     0.190 HD
BRANCH  11  14
HETATM   14  C   UNL     1     -44.473  59.971 -50.539  1.00  0.00     0.102 A 
HETATM   15  N   UNL     1     -45.351  59.965 -49.475  1.00  0.00    -0.361 N 
HETATM   16  H   UNL     1     -45.991  59.204 -49.279  1.00  0.00     0.165 HD
HETATM   17  C   UNL     1     -45.226  61.116 -48.748  1.00  0.00     0.088 A 
HETATM   18  C   UNL     1     -44.250  61.884 -49.338  1.00  0.00     0.019 A 
HETATM   19  C   UNL     1     -43.773  61.166 -50.464  1.00  0.00     0.036 A 
ENDBRANCH  11  14
ENDBRANCH   7  10
ENDBRANCH   5   6
BRANCH   1  20
HETATM   20  C   UNL     1     -41.806  54.633 -54.778  1.00  0.00    -0.004 A 
HETATM   21  C   UNL     1     -42.277  54.470 -53.464  1.00  0.00     0.016 A 
HETATM   22  C   UNL     1     -41.642  53.608 -52.562  1.00  0.00     0.037 A 
HETATM   23  C   UNL     1     -40.519  52.888 -52.962  1.00  0.00     0.068 A 
HETATM   24  C   UNL     1     -40.034  53.053 -54.261  1.00  0.00     0.037 A 
HETATM   25  C   UNL     1     -40.664  53.923 -55.160  1.00  0.00     0.016 A 
BRANCH  23  26
HETATM   26  O   UNL     1     -39.811  52.010 -52.189  1.00  0.00    -0.356 OA
HETATM   27  C   UNL     1     -39.559  50.725 -52.747  1.00  0.00     0.210 C 
ENDBRANCH  23  26
ENDBRANCH   1  20
BRANCH   3  28
HETATM   28  C   UNL     1     -43.781  56.114 -58.916  1.00  0.00     0.189 C 
BRANCH  28  29
HETATM   29  C   UNL     1     -43.459  57.399 -59.641  1.00  0.00    -0.038 A 
HETATM   30  C   UNL     1     -44.485  58.296 -59.982  1.00  0.00     0.009 A 
HETATM   31  C   UNL     1     -44.199  59.475 -60.671  1.00  0.00     0.001 A 
HETATM   32  C   UNL     1     -42.885  59.774 -61.023  1.00  0.00     0.000 A 
HETATM   33  C   UNL     1     -41.856  58.894 -60.686  1.00  0.00     0.001 A 
HETATM   34  C   UNL     1     -42.140  57.713 -59.998  1.00  0.00     0.009 A 
ENDBRANCH  28  29
ENDBRANCH   3  28
TORSDOF 7
ENDMDL
MODEL 10
REMARK VINA RESULT:      -7.8      3.823      7.406
REMARK  7 active torsions:
REMARK  status: ('A' for Active; 'I' for Inactive)
REMARK    1  A    between atoms: O_2  and  C_3 
REMARK    2  A    between atoms: C_6  and  C_7 
REMARK    3  A    between atoms: N_9  and  C_10 
REMARK    4  A    between atoms: C_10  and  C_11 
REMARK    5  A    between atoms: C_18  and  C_19 
REMARK       I    between atoms: C_19  and  N_20 
REMARK    6  A    between atoms: N_20  and  N_21 
REMARK       I    between atoms: N_21  and  C_22 
REMARK    7  A    between atoms: C_22  and  C_23 
ROOT
HETATM    1  C   UNL     1     -43.545  57.274 -54.038  1.00  0.00     0.104 A 
HETATM    2  N   UNL     1     -43.717  55.937 -54.009  1.00  0.00    -0.171 NA
HETATM    3  N   UNL     1     -42.850  55.452 -54.907  1.00  0.00    -0.275 N 
HETATM    4  C   UNL     1     -42.189  56.424 -55.593  1.00  0.00     0.132 A 
HETATM    5  C   UNL     1     -42.582  57.634 -55.041  1.00  0.00     0.082 A 
ENDROOT
BRANCH   5   6
HETATM    6  C   UNL     1     -42.042  58.939 -55.396  1.00  0.00     0.274 C 
HETATM    7  N   UNL     1     -42.454  59.413 -56.626  1.00  0.00    -0.263 N 
HETATM    8  H   UNL     1     -43.041  58.882 -57.263  1.00  0.00     0.190 HD
HETATM    9  O   UNL     1     -41.277  59.583 -54.681  1.00  0.00    -0.266 OA
BRANCH   7  10
HETATM   10  N   UNL     1     -41.870  60.577 -57.144  1.00  0.00    -0.262 N 
HETATM   11  C   UNL     1     -41.799  60.711 -58.514  1.00  0.00     0.286 C 
HETATM   12  O   UNL     1     -42.352  59.909 -59.270  1.00  0.00    -0.264 OA
HETATM   13  H   UNL     1     -41.295  61.121 -56.505  1.00  0.00     0.190 HD
BRANCH  11  14
HETATM   14  C   UNL     1     -41.031  61.834 -59.001  1.00  0.00     0.102 A 
HETATM   15  N   UNL     1     -40.465  62.746 -58.134  1.00  0.00    -0.361 N 
HETATM   16  H   UNL     1     -40.548  62.687 -57.125  1.00  0.00     0.165 HD
HETATM   17  C   UNL     1     -39.796  63.713 -58.830  1.00  0.00     0.088 A 
HETATM   18  C   UNL     1     -39.919  63.430 -60.170  1.00  0.00     0.019 A 
HETATM   19  C   UNL     1     -40.694  62.248 -60.281  1.00  0.00     0.036 A 
ENDBRANCH  11  14
ENDBRANCH   7  10
ENDBRANCH   5   6
BRANCH   1  20
HETATM   20  C   UNL     1     -44.315  58.105 -53.104  1.00  0.00    -0.004 A 
HETATM   21  C   UNL     1     -44.439  57.702 -51.763  1.00  0.00     0.016 A 
HETATM   22  C   UNL     1     -45.174  58.454 -50.840  1.00  0.00     0.037 A 
HETATM   23  C   UNL     1     -45.802  59.631 -51.243  1.00  0.00     0.068 A 
HETATM   24  C   UNL     1     -45.697  60.032 -52.576  1.00  0.00     0.037 A 
HETATM   25  C   UNL     1     -44.968  59.274 -53.502  1.00  0.00     0.016 A 
BRANCH  23  26
HETATM   26  O   UNL     1     -46.541  60.461 -50.446  1.00  0.00    -0.356 OA
HETATM   27  C   UNL     1     -46.143  61.826 -50.402  1.00  0.00     0.210 C 
ENDBRANCH  23  26
ENDBRANCH   1  20
BRANCH   3  28
HETATM   28  C   UNL     1     -42.675  54.012 -55.047  1.00  0.00     0.189 C 
BRANCH  28  29
HETATM   29  C   UNL     1     -41.706  53.479 -54.019  1.00  0.00    -0.038 A 
HETATM   30  C   UNL     1     -40.781  52.481 -54.367  1.00  0.00     0.009 A 
HETATM   31  C   UNL     1     -39.897  51.967 -53.418  1.00  0.00     0.001 A 
HETATM   32  C   UNL     1     -39.922  52.449 -52.112  1.00  0.00     0.000 A 
HETATM   33  C   UNL     1     -40.831  53.445 -51.754  1.00  0.00     0.001 A 
HETATM   34  C   UNL     1     -41.718  53.959 -52.701  1.00  0.00     0.009 A 
ENDBRANCH  28  29
ENDBRANCH   3  28
TORSDOF 7
ENDMDL
