MODEL 1
REMARK VINA RESULT:      -6.6      0.000      0.000
REMARK  8 active torsions:
REMARK  status: ('A' for Active; 'I' for Inactive)
REMARK    1  A    between atoms: C_4  and  C_5 
REMARK    2  A    between atoms: C_5  and  N_6 
REMARK    3  A    between atoms: N_6  and  C_9 
REMARK    4  A    between atoms: C_9  and  C_10 
REMARK    5  A    between atoms: C_10  and  C_11 
REMARK    6  A    between atoms: C_11  and  C_12 
REMARK    7  A    between atoms: C_17  and  O_18 
REMARK    8  A    between atoms: C_21  and  O_22 
ROOT
HETATM    1  C   UNL     1     -42.509  54.013 -54.444  1.00  0.00     0.010 C 
HETATM    2  N   UNL     1     -42.753  54.252 -53.112  1.00  0.00    -0.359 N 
HETATM    3  H   UNL     1     -43.490  54.837 -52.738  1.00  0.00     0.166 HD
HETATM    4  C   UNL     1     -41.799  53.632 -52.339  1.00  0.00     0.048 A 
HETATM    5  C   UNL     1     -41.000  52.872 -53.190  1.00  0.00     0.026 A 
HETATM    6  C   UNL     1     -39.947  52.109 -52.645  1.00  0.00     0.083 A 
HETATM    7  C   UNL     1     -39.703  52.177 -51.263  1.00  0.00     0.074 A 
HETATM    8  C   UNL     1     -40.511  52.954 -50.430  1.00  0.00     0.073 A 
HETATM    9  C   UNL     1     -41.585  53.681 -50.958  1.00  0.00     0.067 A 
HETATM   10  C   UNL     1     -41.488  53.087 -54.510  1.00  0.00     0.041 C 
ENDROOT
BRANCH   1  11
HETATM   11  C   UNL     1     -43.257  54.704 -55.533  1.00  0.00     0.059 C 
BRANCH  11  12
HETATM   12  C   UNL     1     -42.343  55.663 -56.309  1.00  0.00     0.033 C 
BRANCH  12  13
HETATM   13  C   UNL     1     -43.060  56.949 -56.721  1.00  0.00     0.233 C 
BRANCH  13  14
HETATM   14  N   UNL     1     -44.284  57.114 -55.879  1.00  0.00    -0.067 N 
HETATM   15  H   UNL     1     -44.451  56.261 -55.329  1.00  0.00     0.277 HD
HETATM   16  H   UNL     1     -45.104  57.210 -56.491  1.00  0.00     0.277 HD
BRANCH  14  17
HETATM   17  C   UNL     1     -44.289  58.280 -54.927  1.00  0.00     0.223 C 
HETATM   18  C   UNL     1     -43.557  59.470 -55.545  1.00  0.00     0.046 C 
BRANCH  17  19
HETATM   19  C   UNL     1     -43.681  57.894 -53.614  1.00  0.00     0.032 A 
HETATM   20  S   UNL     1     -42.015  58.147 -53.262  1.00  0.00    -0.076 SA
HETATM   21  C   UNL     1     -42.243  57.466 -51.701  1.00  0.00     0.071 A 
HETATM   22  C   UNL     1     -41.103  57.365 -50.748  1.00  0.00     0.078 C 
HETATM   23  N   UNL     1     -43.469  57.067 -51.443  1.00  0.00    -0.257 NA
HETATM   24  C   UNL     1     -44.292  57.321 -52.516  1.00  0.00     0.134 A 
ENDBRANCH  17  19
ENDBRANCH  14  17
ENDBRANCH  13  14
ENDBRANCH  12  13
ENDBRANCH  11  12
ENDBRANCH   1  11
BRANCH   6  25
HETATM   25  O   UNL     1     -39.160  51.391 -53.513  1.00  0.00    -0.355 OA
HETATM   26  C   UNL     1     -39.591  50.048 -53.726  1.00  0.00     0.210 C 
ENDBRANCH   6  25
BRANCH   8  27
HETATM   27  O   UNL     1     -40.358  53.101 -49.076  1.00  0.00    -0.356 OA
HETATM   28  C   UNL     1     -40.680  54.370 -48.518  1.00  0.00     0.210 C 
ENDBRANCH   8  27
TORSDOF 8
ENDMDL
MODEL 2
REMARK VINA RESULT:      -6.4      2.823      4.645
REMARK  8 active torsions:
REMARK  status: ('A' for Active; 'I' for Inactive)
REMARK    1  A    between atoms: C_4  and  C_5 
REMARK    2  A    between atoms: C_5  and  N_6 
REMARK    3  A    between atoms: N_6  and  C_9 
REMARK    4  A    between atoms: C_9  and  C_10 
REMARK    5  A    between atoms: C_10  and  C_11 
REMARK    6  A    between atoms: C_11  and  C_12 
REMARK    7  A    between atoms: C_17  and  O_18 
REMARK    8  A    between atoms: C_21  and  O_22 
ROOT
HETATM    1  C   UNL     1     -42.479  54.703 -54.306  1.00  0.00     0.010 C 
HETATM    2  N   UNL     1     -42.690  54.787 -52.949  1.00  0.00    -0.359 N 
HETATM    3  H   UNL     1     -43.358  55.390 -52.487  1.00  0.00     0.166 HD
HETATM    4  C   UNL     1     -41.803  53.973 -52.282  1.00  0.00     0.048 A 
HETATM    5  C   UNL     1     -41.094  53.254 -53.241  1.00  0.00     0.026 A 
HETATM    6  C   UNL     1     -40.124  52.319 -52.822  1.00  0.00     0.083 A 
HETATM    7  C   UNL     1     -39.867  52.177 -51.447  1.00  0.00     0.074 A 
HETATM    8  C   UNL     1     -40.585  52.916 -50.504  1.00  0.00     0.073 A 
HETATM    9  C   UNL     1     -41.578  53.815 -50.911  1.00  0.00     0.067 A 
HETATM   10  C   UNL     1     -41.562  53.693 -54.512  1.00  0.00     0.041 C 
ENDROOT
BRANCH   1  11
HETATM   11  C   UNL     1     -43.155  55.606 -55.279  1.00  0.00     0.059 C 
BRANCH  11  12
HETATM   12  C   UNL     1     -42.444  56.964 -55.359  1.00  0.00     0.033 C 
BRANCH  12  13
HETATM   13  C   UNL     1     -42.526  57.588 -56.752  1.00  0.00     0.233 C 
BRANCH  13  14
HETATM   14  N   UNL     1     -42.243  56.534 -57.773  1.00  0.00    -0.067 N 
HETATM   15  H   UNL     1     -42.822  55.703 -57.592  1.00  0.00     0.277 HD
HETATM   16  H   UNL     1     -41.270  56.218 -57.671  1.00  0.00     0.277 HD
BRANCH  14  17
HETATM   17  C   UNL     1     -42.443  56.925 -59.213  1.00  0.00     0.223 C 
HETATM   18  C   UNL     1     -42.301  58.439 -59.373  1.00  0.00     0.046 C 
BRANCH  17  19
HETATM   19  C   UNL     1     -43.774  56.452 -59.710  1.00  0.00     0.032 A 
HETATM   20  S   UNL     1     -45.061  57.537 -60.072  1.00  0.00    -0.076 SA
HETATM   21  C   UNL     1     -46.053  56.207 -60.521  1.00  0.00     0.071 A 
HETATM   22  C   UNL     1     -47.445  56.433 -60.999  1.00  0.00     0.078 C 
HETATM   23  N   UNL     1     -45.484  55.028 -60.409  1.00  0.00    -0.257 NA
HETATM   24  C   UNL     1     -44.187  55.159 -59.967  1.00  0.00     0.134 A 
ENDBRANCH  17  19
ENDBRANCH  14  17
ENDBRANCH  13  14
ENDBRANCH  12  13
ENDBRANCH  11  12
ENDBRANCH   1  11
BRANCH   6  25
HETATM   25  O   UNL     1     -39.422  51.645 -53.792  1.00  0.00    -0.355 OA
HETATM   26  C   UNL     1     -39.765  50.266 -53.916  1.00  0.00     0.210 C 
ENDBRANCH   6  25
BRANCH   8  27
HETATM   27  O   UNL     1     -40.410  52.866 -49.146  1.00  0.00    -0.356 OA
HETATM   28  C   UNL     1     -40.518  54.090 -48.429  1.00  0.00     0.210 C 
ENDBRANCH   8  27
TORSDOF 8
ENDMDL
MODEL 3
REMARK VINA RESULT:      -6.3      3.211      5.543
REMARK  8 active torsions:
REMARK  status: ('A' for Active; 'I' for Inactive)
REMARK    1  A    between atoms: C_4  and  C_5 
REMARK    2  A    between atoms: C_5  and  N_6 
REMARK    3  A    between atoms: N_6  and  C_9 
REMARK    4  A    between atoms: C_9  and  C_10 
REMARK    5  A    between atoms: C_10  and  C_11 
REMARK    6  A    between atoms: C_11  and  C_12 
REMARK    7  A    between atoms: C_17  and  O_18 
REMARK    8  A    between atoms: C_21  and  O_22 
ROOT
HETATM    1  C   UNL     1     -42.768  55.259 -54.139  1.00  0.00     0.010 C 
HETATM    2  N   UNL     1     -42.139  54.236 -54.809  1.00  0.00    -0.359 N 
HETATM    3  H   UNL     1     -42.271  53.993 -55.783  1.00  0.00     0.166 HD
HETATM    4  C   UNL     1     -41.340  53.525 -53.943  1.00  0.00     0.048 A 
HETATM    5  C   UNL     1     -41.358  54.188 -52.719  1.00  0.00     0.026 A 
HETATM    6  C   UNL     1     -40.594  53.677 -51.648  1.00  0.00     0.083 A 
HETATM    7  C   UNL     1     -39.877  52.483 -51.836  1.00  0.00     0.074 A 
HETATM    8  C   UNL     1     -39.881  51.830 -53.071  1.00  0.00     0.073 A 
HETATM    9  C   UNL     1     -40.603  52.355 -54.150  1.00  0.00     0.067 A 
HETATM   10  C   UNL     1     -42.227  55.305 -52.870  1.00  0.00     0.041 C 
ENDROOT
BRANCH   1  11
HETATM   11  C   UNL     1     -43.839  56.086 -54.762  1.00  0.00     0.059 C 
BRANCH  11  12
HETATM   12  C   UNL     1     -43.244  57.277 -55.526  1.00  0.00     0.033 C 
BRANCH  12  13
HETATM   13  C   UNL     1     -42.771  56.896 -56.928  1.00  0.00     0.233 C 
BRANCH  13  14
HETATM   14  N   UNL     1     -43.715  55.890 -57.503  1.00  0.00    -0.067 N 
HETATM   15  H   UNL     1     -44.678  56.101 -57.207  1.00  0.00     0.277 HD
HETATM   16  H   UNL     1     -43.504  54.965 -57.108  1.00  0.00     0.277 HD
BRANCH  14  17
HETATM   17  C   UNL     1     -43.718  55.753 -59.002  1.00  0.00     0.223 C 
HETATM   18  C   UNL     1     -42.517  56.484 -59.601  1.00  0.00     0.046 C 
BRANCH  17  19
HETATM   19  C   UNL     1     -45.003  56.263 -59.578  1.00  0.00     0.032 A 
HETATM   20  S   UNL     1     -45.748  55.538 -60.950  1.00  0.00    -0.076 SA
HETATM   21  C   UNL     1     -47.024  56.687 -60.861  1.00  0.00     0.071 A 
HETATM   22  C   UNL     1     -48.146  56.645 -61.839  1.00  0.00     0.078 C 
HETATM   23  N   UNL     1     -46.915  57.563 -59.887  1.00  0.00    -0.257 NA
HETATM   24  C   UNL     1     -45.781  57.319 -59.146  1.00  0.00     0.134 A 
ENDBRANCH  17  19
ENDBRANCH  14  17
ENDBRANCH  13  14
ENDBRANCH  12  13
ENDBRANCH  11  12
ENDBRANCH   1  11
BRANCH   6  25
HETATM   25  O   UNL     1     -40.654  54.337 -50.445  1.00  0.00    -0.355 OA
HETATM   26  C   UNL     1     -40.199  53.573 -49.330  1.00  0.00     0.210 C 
ENDBRANCH   6  25
BRANCH   8  27
HETATM   27  O   UNL     1     -39.229  50.660 -53.360  1.00  0.00    -0.356 OA
HETATM   28  C   UNL     1     -39.840  49.790 -54.305  1.00  0.00     0.210 C 
ENDBRANCH   8  27
TORSDOF 8
ENDMDL
MODEL 4
REMARK VINA RESULT:      -6.1      3.166      5.461
REMARK  8 active torsions:
REMARK  status: ('A' for Active; 'I' for Inactive)
REMARK    1  A    between atoms: C_4  and  C_5 
REMARK    2  A    between atoms: C_5  and  N_6 
REMARK    3  A    between atoms: N_6  and  C_9 
REMARK    4  A    between atoms: C_9  and  C_10 
REMARK    5  A    between atoms: C_10  and  C_11 
REMARK    6  A    between atoms: C_11  and  C_12 
REMARK    7  A    between atoms: C_17  and  O_18 
REMARK    8  A    between atoms: C_21  and  O_22 
ROOT
HETATM    1  C   UNL     1     -41.475  55.916 -55.146  1.00  0.00     0.010 C 
HETATM    2  N   UNL     1     -40.902  54.740 -55.568  1.00  0.00    -0.359 N 
HETATM    3  H   UNL     1     -40.744  54.467 -56.530  1.00  0.00     0.166 HD
HETATM    4  C   UNL     1     -40.629  53.933 -54.487  1.00  0.00     0.048 A 
HETATM    5  C   UNL     1     -40.916  54.664 -53.337  1.00  0.00     0.026 A 
HETATM    6  C   UNL     1     -40.700  54.073 -52.075  1.00  0.00     0.083 A 
HETATM    7  C   UNL     1     -40.249  52.743 -52.016  1.00  0.00     0.074 A 
HETATM    8  C   UNL     1     -39.977  52.026 -53.183  1.00  0.00     0.073 A 
HETATM    9  C   UNL     1     -40.149  52.621 -54.439  1.00  0.00     0.067 A 
HETATM   10  C   UNL     1     -41.406  55.929 -53.768  1.00  0.00     0.041 C 
ENDROOT
BRANCH   1  11
HETATM   11  C   UNL     1     -42.053  56.912 -56.092  1.00  0.00     0.059 C 
BRANCH  11  12
HETATM   12  C   UNL     1     -43.583  56.795 -56.150  1.00  0.00     0.033 C 
BRANCH  12  13
HETATM   13  C   UNL     1     -44.194  57.650 -57.260  1.00  0.00     0.233 C 
BRANCH  13  14
HETATM   14  N   UNL     1     -44.864  56.754 -58.250  1.00  0.00    -0.067 N 
HETATM   15  H   UNL     1     -45.838  57.055 -58.395  1.00  0.00     0.277 HD
HETATM   16  H   UNL     1     -44.926  55.805 -57.859  1.00  0.00     0.277 HD
BRANCH  14  17
HETATM   17  C   UNL     1     -44.213  56.645 -59.603  1.00  0.00     0.223 C 
HETATM   18  C   UNL     1     -43.008  55.708 -59.535  1.00  0.00     0.046 C 
BRANCH  17  19
HETATM   19  C   UNL     1     -43.818  57.998 -60.111  1.00  0.00     0.032 A 
HETATM   20  S   UNL     1     -42.173  58.458 -60.320  1.00  0.00    -0.076 SA
HETATM   21  C   UNL     1     -42.678  60.002 -60.881  1.00  0.00     0.071 A 
HETATM   22  C   UNL     1     -41.673  61.021 -61.294  1.00  0.00     0.078 C 
HETATM   23  N   UNL     1     -43.980  60.183 -60.911  1.00  0.00    -0.257 NA
HETATM   24  C   UNL     1     -44.633  59.046 -60.492  1.00  0.00     0.134 A 
ENDBRANCH  17  19
ENDBRANCH  14  17
ENDBRANCH  13  14
ENDBRANCH  12  13
ENDBRANCH  11  12
ENDBRANCH   1  11
BRANCH   6  25
HETATM   25  O   UNL     1     -41.018  54.809 -50.959  1.00  0.00    -0.355 OA
HETATM   26  C   UNL     1     -40.164  54.581 -49.840  1.00  0.00     0.210 C 
ENDBRANCH   6  25
BRANCH   8  27
HETATM   27  O   UNL     1     -39.546  50.726 -53.243  1.00  0.00    -0.356 OA
HETATM   28  C   UNL     1     -39.896  49.976 -54.399  1.00  0.00     0.210 C 
ENDBRANCH   8  27
TORSDOF 8
ENDMDL
MODEL 5
REMARK VINA RESULT:      -6.1      2.576      5.026
REMARK  8 active torsions:
REMARK  status: ('A' for Active; 'I' for Inactive)
REMARK    1  A    between atoms: C_4  and  C_5 
REMARK    2  A    between atoms: C_5  and  N_6 
REMARK    3  A    between atoms: N_6  and  C_9 
REMARK    4  A    between atoms: C_9  and  C_10 
REMARK    5  A    between atoms: C_10  and  C_11 
REMARK    6  A    between atoms: C_11  and  C_12 
REMARK    7  A    between atoms: C_17  and  O_18 
REMARK    8  A    between atoms: C_21  and  O_22 
ROOT
HETATM    1  C   UNL     1     -42.797  55.288 -53.879  1.00  0.00     0.010 C 
HETATM    2  N   UNL     1     -42.121  54.358 -54.634  1.00  0.00    -0.359 N 
HETATM    3  H   UNL     1     -42.203  54.231 -55.634  1.00  0.00     0.166 HD
HETATM    4  C   UNL     1     -41.352  53.558 -53.820  1.00  0.00     0.048 A 
HETATM    5  C   UNL     1     -41.438  54.071 -52.528  1.00  0.00     0.026 A 
HETATM    6  C   UNL     1     -40.717  53.445 -51.490  1.00  0.00     0.083 A 
HETATM    7  C   UNL     1     -39.971  52.290 -51.782  1.00  0.00     0.074 A 
HETATM    8  C   UNL     1     -39.907  51.788 -53.084  1.00  0.00     0.073 A 
HETATM    9  C   UNL     1     -40.586  52.429 -54.127  1.00  0.00     0.067 A 
HETATM   10  C   UNL     1     -42.317  55.189 -52.589  1.00  0.00     0.041 C 
ENDROOT
BRANCH   1  11
HETATM   11  C   UNL     1     -43.851  56.172 -54.451  1.00  0.00     0.059 C 
BRANCH  11  12
HETATM   12  C   UNL     1     -43.259  57.509 -54.918  1.00  0.00     0.033 C 
BRANCH  12  13
HETATM   13  C   UNL     1     -42.597  57.408 -56.292  1.00  0.00     0.233 C 
BRANCH  13  14
HETATM   14  N   UNL     1     -42.387  58.786 -56.831  1.00  0.00    -0.067 N 
HETATM   15  H   UNL     1     -41.394  58.926 -57.065  1.00  0.00     0.277 HD
HETATM   16  H   UNL     1     -42.594  59.472 -56.094  1.00  0.00     0.277 HD
BRANCH  14  17
HETATM   17  C   UNL     1     -43.198  59.162 -58.042  1.00  0.00     0.223 C 
HETATM   18  C   UNL     1     -44.559  59.712 -57.616  1.00  0.00     0.046 C 
BRANCH  17  19
HETATM   19  C   UNL     1     -43.353  57.990 -58.961  1.00  0.00     0.032 A 
HETATM   20  S   UNL     1     -44.851  57.165 -59.156  1.00  0.00    -0.076 SA
HETATM   21  C   UNL     1     -44.114  56.097 -60.283  1.00  0.00     0.071 A 
HETATM   22  C   UNL     1     -44.910  55.018 -60.932  1.00  0.00     0.078 C 
HETATM   23  N   UNL     1     -42.838  56.320 -60.506  1.00  0.00    -0.257 NA
HETATM   24  C   UNL     1     -42.404  57.401 -59.774  1.00  0.00     0.134 A 
ENDBRANCH  17  19
ENDBRANCH  14  17
ENDBRANCH  13  14
ENDBRANCH  12  13
ENDBRANCH  11  12
ENDBRANCH   1  11
BRANCH   6  25
HETATM   25  O   UNL     1     -40.843  53.958 -50.222  1.00  0.00    -0.355 OA
HETATM   26  C   UNL     1     -39.605  54.276 -49.589  1.00  0.00     0.210 C 
ENDBRANCH   6  25
BRANCH   8  27
HETATM   27  O   UNL     1     -39.223  50.668 -53.477  1.00  0.00    -0.356 OA
HETATM   28  C   UNL     1     -39.787  49.897 -54.532  1.00  0.00     0.210 C 
ENDBRANCH   8  27
TORSDOF 8
ENDMDL
MODEL 6
REMARK VINA RESULT:      -6.0      3.782      7.780
REMARK  8 active torsions:
REMARK  status: ('A' for Active; 'I' for Inactive)
REMARK    1  A    between atoms: C_4  and  C_5 
REMARK    2  A    between atoms: C_5  and  N_6 
REMARK    3  A    between atoms: N_6  and  C_9 
REMARK    4  A    between atoms: C_9  and  C_10 
REMARK    5  A    between atoms: C_10  and  C_11 
REMARK    6  A    between atoms: C_11  and  C_12 
REMARK    7  A    between atoms: C_17  and  O_18 
REMARK    8  A    between atoms: C_21  and  O_22 
ROOT
HETATM    1  C   UNL     1     -42.048  56.486 -55.432  1.00  0.00     0.010 C 
HETATM    2  N   UNL     1     -41.985  55.696 -56.557  1.00  0.00    -0.359 N 
HETATM    3  H   UNL     1     -41.368  54.907 -56.696  1.00  0.00     0.166 HD
HETATM    4  C   UNL     1     -42.847  56.175 -57.518  1.00  0.00     0.048 A 
HETATM    5  C   UNL     1     -43.571  57.218 -56.947  1.00  0.00     0.026 A 
HETATM    6  C   UNL     1     -44.552  57.877 -57.718  1.00  0.00     0.083 A 
HETATM    7  C   UNL     1     -44.733  57.493 -59.058  1.00  0.00     0.074 A 
HETATM    8  C   UNL     1     -43.988  56.449 -59.612  1.00  0.00     0.073 A 
HETATM    9  C   UNL     1     -43.043  55.763 -58.839  1.00  0.00     0.067 A 
HETATM   10  C   UNL     1     -43.088  57.373 -55.617  1.00  0.00     0.041 C 
ENDROOT
BRANCH   1  11
HETATM   11  C   UNL     1     -41.099  56.335 -54.294  1.00  0.00     0.059 C 
BRANCH  11  12
HETATM   12  C   UNL     1     -41.386  57.367 -53.194  1.00  0.00     0.033 C 
BRANCH  12  13
HETATM   13  C   UNL     1     -41.942  56.727 -51.922  1.00  0.00     0.233 C 
BRANCH  13  14
HETATM   14  N   UNL     1     -42.021  55.248 -52.117  1.00  0.00    -0.067 N 
HETATM   15  H   UNL     1     -41.538  54.980 -52.985  1.00  0.00     0.277 HD
HETATM   16  H   UNL     1     -43.004  54.978 -52.256  1.00  0.00     0.277 HD
BRANCH  14  17
HETATM   17  C   UNL     1     -41.471  54.395 -51.006  1.00  0.00     0.223 C 
HETATM   18  C   UNL     1     -40.525  55.215 -50.130  1.00  0.00     0.046 C 
BRANCH  17  19
HETATM   19  C   UNL     1     -40.782  53.185 -51.559  1.00  0.00     0.032 A 
HETATM   20  S   UNL     1     -40.735  52.843 -53.245  1.00  0.00    -0.076 SA
HETATM   21  C   UNL     1     -39.827  51.419 -52.930  1.00  0.00     0.071 A 
HETATM   22  C   UNL     1     -39.383  50.543 -54.049  1.00  0.00     0.078 C 
HETATM   23  N   UNL     1     -39.572  51.193 -51.660  1.00  0.00    -0.257 NA
HETATM   24  C   UNL     1     -40.095  52.199 -50.879  1.00  0.00     0.134 A 
ENDBRANCH  17  19
ENDBRANCH  14  17
ENDBRANCH  13  14
ENDBRANCH  12  13
ENDBRANCH  11  12
ENDBRANCH   1  11
BRANCH   6  25
HETATM   25  O   UNL     1     -45.231  58.920 -57.136  1.00  0.00    -0.355 OA
HETATM   26  C   UNL     1     -46.586  59.050 -57.560  1.00  0.00     0.210 C 
ENDBRANCH   6  25
BRANCH   8  27
HETATM   27  O   UNL     1     -44.075  56.002 -60.904  1.00  0.00    -0.356 OA
HETATM   28  C   UNL     1     -45.078  55.035 -61.193  1.00  0.00     0.210 C 
ENDBRANCH   8  27
TORSDOF 8
ENDMDL
MODEL 7
REMARK VINA RESULT:      -5.9     14.525     17.156
REMARK  8 active torsions:
REMARK  status: ('A' for Active; 'I' for Inactive)
REMARK    1  A    between atoms: C_4  and  C_5 
REMARK    2  A    between atoms: C_5  and  N_6 
REMARK    3  A    between atoms: N_6  and  C_9 
REMARK    4  A    between atoms: C_9  and  C_10 
REMARK    5  A    between atoms: C_10  and  C_11 
REMARK    6  A    between atoms: C_11  and  C_12 
REMARK    7  A    between atoms: C_17  and  O_18 
REMARK    8  A    between atoms: C_21  and  O_22 
ROOT
HETATM    1  C   UNL     1     -35.103  41.726 -52.126  1.00  0.00     0.010 C 
HETATM    2  N   UNL     1     -34.817  41.996 -53.444  1.00  0.00    -0.359 N 
HETATM    3  H   UNL     1     -33.926  42.306 -53.808  1.00  0.00     0.166 HD
HETATM    4  C   UNL     1     -35.951  41.851 -54.211  1.00  0.00     0.048 A 
HETATM    5  C   UNL     1     -36.954  41.351 -53.385  1.00  0.00     0.026 A 
HETATM    6  C   UNL     1     -38.227  41.086 -53.931  1.00  0.00     0.083 A 
HETATM    7  C   UNL     1     -38.459  41.382 -55.285  1.00  0.00     0.074 A 
HETATM    8  C   UNL     1     -37.440  41.891 -56.093  1.00  0.00     0.073 A 
HETATM    9  C   UNL     1     -36.162  42.117 -55.567  1.00  0.00     0.067 A 
HETATM   10  C   UNL     1     -36.391  41.235 -52.082  1.00  0.00     0.041 C 
ENDROOT
BRANCH   1  11
HETATM   11  C   UNL     1     -34.129  41.978 -51.027  1.00  0.00     0.059 C 
BRANCH  11  12
HETATM   12  C   UNL     1     -33.502  40.667 -50.530  1.00  0.00     0.033 C 
BRANCH  12  13
HETATM   13  C   UNL     1     -32.370  40.181 -51.434  1.00  0.00     0.233 C 
BRANCH  13  14
HETATM   14  N   UNL     1     -32.754  38.865 -52.029  1.00  0.00    -0.067 N 
HETATM   15  H   UNL     1     -33.721  38.629 -51.768  1.00  0.00     0.277 HD
HETATM   16  H   UNL     1     -32.171  38.125 -51.617  1.00  0.00     0.277 HD
BRANCH  14  17
HETATM   17  C   UNL     1     -32.644  38.749 -53.526  1.00  0.00     0.223 C 
HETATM   18  C   UNL     1     -31.975  39.996 -54.104  1.00  0.00     0.046 C 
BRANCH  17  19
HETATM   19  C   UNL     1     -33.991  38.524 -54.140  1.00  0.00     0.032 A 
HETATM   20  S   UNL     1     -34.299  38.803 -55.811  1.00  0.00    -0.076 SA
HETATM   21  C   UNL     1     -35.933  38.317 -55.588  1.00  0.00     0.071 A 
HETATM   22  C   UNL     1     -36.878  38.301 -56.739  1.00  0.00     0.078 C 
HETATM   23  N   UNL     1     -36.247  37.973 -54.359  1.00  0.00    -0.257 NA
HETATM   24  C   UNL     1     -35.148  38.072 -53.536  1.00  0.00     0.134 A 
ENDBRANCH  17  19
ENDBRANCH  14  17
ENDBRANCH  13  14
ENDBRANCH  12  13
ENDBRANCH  11  12
ENDBRANCH   1  11
BRANCH   6  25
HETATM   25  O   UNL     1     -39.203  40.619 -53.085  1.00  0.00    -0.355 OA
HETATM   26  C   UNL     1     -40.271  41.536 -52.856  1.00  0.00     0.210 C 
ENDBRANCH   6  25
BRANCH   8  27
HETATM   27  O   UNL     1     -37.559  42.225 -57.417  1.00  0.00    -0.356 OA
HETATM   28  C   UNL     1     -36.558  41.739 -58.303  1.00  0.00     0.210 C 
ENDBRANCH   8  27
TORSDOF 8
ENDMDL
MODEL 8
REMARK VINA RESULT:      -5.9     14.893     17.332
REMARK  8 active torsions:
REMARK  status: ('A' for Active; 'I' for Inactive)
REMARK    1  A    between atoms: C_4  and  C_5 
REMARK    2  A    between atoms: C_5  and  N_6 
REMARK    3  A    between atoms: N_6  and  C_9 
REMARK    4  A    between atoms: C_9  and  C_10 
REMARK    5  A    between atoms: C_10  and  C_11 
REMARK    6  A    between atoms: C_11  and  C_12 
REMARK    7  A    between atoms: C_17  and  O_18 
REMARK    8  A    between atoms: C_21  and  O_22 
ROOT
HETATM    1  C   UNL     1     -33.082  40.278 -54.709  1.00  0.00     0.010 C 
HETATM    2  N   UNL     1     -33.507  41.449 -55.292  1.00  0.00    -0.359 N 
HETATM    3  H   UNL     1     -33.211  42.382 -55.036  1.00  0.00     0.166 HD
HETATM    4  C   UNL     1     -34.462  41.181 -56.246  1.00  0.00     0.048 A 
HETATM    5  C   UNL     1     -34.557  39.797 -56.366  1.00  0.00     0.026 A 
HETATM    6  C   UNL     1     -35.456  39.247 -57.303  1.00  0.00     0.083 A 
HETATM    7  C   UNL     1     -36.269  40.115 -58.053  1.00  0.00     0.074 A 
HETATM    8  C   UNL     1     -36.163  41.500 -57.909  1.00  0.00     0.073 A 
HETATM    9  C   UNL     1     -35.241  42.053 -57.012  1.00  0.00     0.067 A 
HETATM   10  C   UNL     1     -33.648  39.241 -55.421  1.00  0.00     0.041 C 
ENDROOT
BRANCH   1  11
HETATM   11  C   UNL     1     -32.192  40.254 -53.514  1.00  0.00     0.059 C 
BRANCH  11  12
HETATM   12  C   UNL     1     -32.060  38.832 -52.950  1.00  0.00     0.033 C 
BRANCH  12  13
HETATM   13  C   UNL     1     -32.456  38.748 -51.476  1.00  0.00     0.233 C 
BRANCH  13  14
HETATM   14  N   UNL     1     -33.942  38.617 -51.380  1.00  0.00    -0.067 N 
HETATM   15  H   UNL     1     -34.187  37.788 -50.822  1.00  0.00     0.277 HD
HETATM   16  H   UNL     1     -34.326  38.440 -52.316  1.00  0.00     0.277 HD
BRANCH  14  17
HETATM   17  C   UNL     1     -34.681  39.793 -50.800  1.00  0.00     0.223 C 
HETATM   18  C   UNL     1     -35.595  39.335 -49.665  1.00  0.00     0.046 C 
BRANCH  17  19
HETATM   19  C   UNL     1     -35.458  40.506 -51.864  1.00  0.00     0.032 A 
HETATM   20  S   UNL     1     -36.620  39.704 -52.849  1.00  0.00    -0.076 SA
HETATM   21  C   UNL     1     -36.942  41.181 -53.668  1.00  0.00     0.071 A 
HETATM   22  C   UNL     1     -37.957  41.235 -54.755  1.00  0.00     0.078 C 
HETATM   23  N   UNL     1     -36.236  42.210 -53.255  1.00  0.00    -0.257 NA
HETATM   24  C   UNL     1     -35.405  41.839 -52.222  1.00  0.00     0.134 A 
ENDBRANCH  17  19
ENDBRANCH  14  17
ENDBRANCH  13  14
ENDBRANCH  12  13
ENDBRANCH  11  12
ENDBRANCH   1  11
BRANCH   6  25
HETATM   25  O   UNL     1     -35.547  37.879 -57.378  1.00  0.00    -0.355 OA
HETATM   26  C   UNL     1     -36.577  37.311 -56.571  1.00  0.00     0.210 C 
ENDBRANCH   6  25
BRANCH   8  27
HETATM   27  O   UNL     1     -36.909  42.434 -58.579  1.00  0.00    -0.356 OA
HETATM   28  C   UNL     1     -37.311  42.117 -59.906  1.00  0.00     0.210 C 
ENDBRANCH   8  27
TORSDOF 8
ENDMDL
MODEL 9
REMARK VINA RESULT:      -5.8      2.153      4.566
REMARK  8 active torsions:
REMARK  status: ('A' for Active; 'I' for Inactive)
REMARK    1  A    between atoms: C_4  and  C_5 
REMARK    2  A    between atoms: C_5  and  N_6 
REMARK    3  A    between atoms: N_6  and  C_9 
REMARK    4  A    between atoms: C_9  and  C_10 
REMARK    5  A    between atoms: C_10  and  C_11 
REMARK    6  A    between atoms: C_11  and  C_12 
REMARK    7  A    between atoms: C_17  and  O_18 
REMARK    8  A    between atoms: C_21  and  O_22 
ROOT
HETATM    1  C   UNL     1     -41.362  56.226 -51.560  1.00  0.00     0.010 C 
HETATM    2  N   UNL     1     -40.897  55.049 -51.022  1.00  0.00    -0.359 N 
HETATM    3  H   UNL     1     -40.673  54.886 -50.049  1.00  0.00     0.166 HD
HETATM    4  C   UNL     1     -40.709  54.118 -52.019  1.00  0.00     0.048 A 
HETATM    5  C   UNL     1     -41.185  54.672 -53.204  1.00  0.00     0.026 A 
HETATM    6  C   UNL     1     -41.132  53.910 -54.390  1.00  0.00     0.083 A 
HETATM    7  C   UNL     1     -40.552  52.630 -54.349  1.00  0.00     0.074 A 
HETATM    8  C   UNL     1     -40.072  52.099 -53.150  1.00  0.00     0.073 A 
HETATM    9  C   UNL     1     -40.160  52.833 -51.961  1.00  0.00     0.067 A 
HETATM   10  C   UNL     1     -41.635  55.986 -52.890  1.00  0.00     0.041 C 
ENDROOT
BRANCH   1  11
HETATM   11  C   UNL     1     -41.483  57.479 -50.761  1.00  0.00     0.059 C 
BRANCH  11  12
HETATM   12  C   UNL     1     -42.554  58.408 -51.350  1.00  0.00     0.033 C 
BRANCH  12  13
HETATM   13  C   UNL     1     -41.970  59.727 -51.856  1.00  0.00     0.233 C 
BRANCH  13  14
HETATM   14  N   UNL     1     -41.469  59.533 -53.250  1.00  0.00    -0.067 N 
HETATM   15  H   UNL     1     -41.510  58.536 -53.504  1.00  0.00     0.277 HD
HETATM   16  H   UNL     1     -40.472  59.784 -53.288  1.00  0.00     0.277 HD
BRANCH  14  17
HETATM   17  C   UNL     1     -42.173  60.310 -54.330  1.00  0.00     0.223 C 
HETATM   18  C   UNL     1     -43.580  60.693 -53.872  1.00  0.00     0.046 C 
BRANCH  17  19
HETATM   19  C   UNL     1     -42.215  59.525 -55.605  1.00  0.00     0.032 A 
HETATM   20  S   UNL     1     -42.022  60.265 -57.147  1.00  0.00    -0.076 SA
HETATM   21  C   UNL     1     -42.197  58.731 -57.903  1.00  0.00     0.071 A 
HETATM   22  C   UNL     1     -42.119  58.606 -59.384  1.00  0.00     0.078 C 
HETATM   23  N   UNL     1     -42.393  57.726 -57.079  1.00  0.00    -0.257 NA
HETATM   24  C   UNL     1     -42.387  58.165 -55.774  1.00  0.00     0.134 A 
ENDBRANCH  17  19
ENDBRANCH  14  17
ENDBRANCH  13  14
ENDBRANCH  12  13
ENDBRANCH  11  12
ENDBRANCH   1  11
BRANCH   6  25
HETATM   25  O   UNL     1     -41.585  54.494 -55.548  1.00  0.00    -0.355 OA
HETATM   26  C   UNL     1     -42.987  54.351 -55.770  1.00  0.00     0.210 C 
ENDBRANCH   6  25
BRANCH   8  27
HETATM   27  O   UNL     1     -39.480  50.872 -52.998  1.00  0.00    -0.356 OA
HETATM   28  C   UNL     1     -39.729  49.899 -54.006  1.00  0.00     0.210 C 
ENDBRANCH   8  27
TORSDOF 8
ENDMDL
MODEL 10
REMARK VINA RESULT:      -5.8      3.735      5.084
REMARK  8 active torsions:
REMARK  status: ('A' for Active; 'I' for Inactive)
REMARK    1  A    between atoms: C_4  and  C_5 
REMARK    2  A    between atoms: C_5  and  N_6 
REMARK    3  A    between atoms: N_6  and  C_9 
REMARK    4  A    between atoms: C_9  and  C_10 
REMARK    5  A    between atoms: C_10  and  C_11 
REMARK    6  A    between atoms: C_11  and  C_12 
REMARK    7  A    between atoms: C_17  and  O_18 
REMARK    8  A    between atoms: C_21  and  O_22 
ROOT
HETATM    1  C   UNL     1     -42.537  55.595 -52.751  1.00  0.00     0.010 C 
HETATM    2  N   UNL     1     -42.196  54.617 -53.656  1.00  0.00    -0.359 N 
HETATM    3  H   UNL     1     -42.577  54.510 -54.587  1.00  0.00     0.166 HD
HETATM    4  C   UNL     1     -41.297  53.742 -53.090  1.00  0.00     0.048 A 
HETATM    5  C   UNL     1     -40.956  54.246 -51.837  1.00  0.00     0.026 A 
HETATM    6  C   UNL     1     -40.023  53.546 -51.044  1.00  0.00     0.083 A 
HETATM    7  C   UNL     1     -39.501  52.332 -51.524  1.00  0.00     0.074 A 
HETATM    8  C   UNL     1     -39.863  51.842 -52.780  1.00  0.00     0.073 A 
HETATM    9  C   UNL     1     -40.758  52.553 -53.590  1.00  0.00     0.067 A 
HETATM   10  C   UNL     1     -41.713  55.438 -51.655  1.00  0.00     0.041 C 
ENDROOT
BRANCH   1  11
HETATM   11  C   UNL     1     -43.629  56.576 -53.004  1.00  0.00     0.059 C 
BRANCH  11  12
HETATM   12  C   UNL     1     -43.489  57.806 -52.096  1.00  0.00     0.033 C 
BRANCH  12  13
HETATM   13  C   UNL     1     -44.840  58.354 -51.638  1.00  0.00     0.233 C 
BRANCH  13  14
HETATM   14  N   UNL     1     -44.656  59.087 -50.349  1.00  0.00    -0.067 N 
HETATM   15  H   UNL     1     -43.834  58.721 -49.850  1.00  0.00     0.277 HD
HETATM   16  H   UNL     1     -45.457  58.895 -49.735  1.00  0.00     0.277 HD
BRANCH  14  17
HETATM   17  C   UNL     1     -44.505  60.581 -50.444  1.00  0.00     0.223 C 
HETATM   18  C   UNL     1     -43.046  60.980 -50.225  1.00  0.00     0.046 C 
BRANCH  17  19
HETATM   19  C   UNL     1     -45.405  61.268 -49.464  1.00  0.00     0.032 A 
HETATM   20  S   UNL     1     -45.241  61.061 -47.763  1.00  0.00    -0.076 SA
HETATM   21  C   UNL     1     -46.565  62.127 -47.507  1.00  0.00     0.071 A 
HETATM   22  C   UNL     1     -47.018  62.450 -46.126  1.00  0.00     0.078 C 
HETATM   23  N   UNL     1     -47.109  62.608 -48.603  1.00  0.00    -0.257 NA
HETATM   24  C   UNL     1     -46.446  62.139 -49.715  1.00  0.00     0.134 A 
ENDBRANCH  17  19
ENDBRANCH  14  17
ENDBRANCH  13  14
ENDBRANCH  12  13
ENDBRANCH  11  12
ENDBRANCH   1  11
BRANCH   6  25
HETATM   25  O   UNL     1     -39.728  54.053 -49.802  1.00  0.00    -0.355 OA
HETATM   26  C   UNL     1     -40.534  53.533 -48.747  1.00  0.00     0.210 C 
ENDBRANCH   6  25
BRANCH   8  27
HETATM   27  O   UNL     1     -39.426  50.670 -53.339  1.00  0.00    -0.356 OA
HETATM   28  C   UNL     1     -40.202  50.124 -54.399  1.00  0.00     0.210 C 
ENDBRANCH   8  27
TORSDOF 8
ENDMDL
