MODEL 1
REMARK VINA RESULT:      -8.2      0.000      0.000
REMARK  6 active torsions:
REMARK  status: ('A' for Active; 'I' for Inactive)
REMARK    1  A    between atoms: C_6  and  C_7 
REMARK    2  A    between atoms: C_7  and  N_8 
REMARK       I    between atoms: N_8  and  C_9 
REMARK       I    between atoms: C_9  and  N_10 
REMARK    3  A    between atoms: N_10  and  C_11 
REMARK    4  A    between atoms: C_11  and  C_12 
REMARK       I    between atoms: C_12  and  N_13 
REMARK    5  A    between atoms: N_13  and  N_14 
REMARK       I    between atoms: N_14  and  C_15 
REMARK    6  A    between atoms: C_15  and  C_16 
ROOT
HETATM    1  C   UNL     1     -43.269  56.487 -58.766  1.00  0.00     0.117 C 
HETATM    2  C   UNL     1     -43.845  55.680 -59.941  1.00  0.00     0.041 C 
HETATM    3  C   UNL     1     -45.014  56.524 -60.423  1.00  0.00     0.003 C 
HETATM    4  C   UNL     1     -45.640  57.074 -59.151  1.00  0.00     0.003 C 
HETATM    5  C   UNL     1     -44.551  57.014 -58.078  1.00  0.00     0.041 C 
ENDROOT
BRANCH   1   6
HETATM    6  N   UNL     1     -42.525  55.666 -57.798  1.00  0.00    -0.325 N 
HETATM    7  C   UNL     1     -42.193  56.116 -56.551  1.00  0.00     0.317 C 
HETATM    8  N   UNL     1     -41.508  55.167 -55.844  1.00  0.00    -0.339 N 
HETATM    9  O   UNL     1     -42.495  57.221 -56.121  1.00  0.00    -0.247 OA
HETATM   10  H   UNL     1     -40.868  54.624 -56.405  1.00  0.00     0.164 HD
HETATM   11  H   UNL     1     -42.722  54.674 -57.823  1.00  0.00     0.165 HD
BRANCH   8  12
HETATM   12  C   UNL     1     -41.074  55.479 -54.499  1.00  0.00     0.162 C 
BRANCH  12  13
HETATM   13  C   UNL     1     -40.679  54.255 -53.710  1.00  0.00    -0.039 A 
HETATM   14  C   UNL     1     -40.434  53.018 -54.326  1.00  0.00     0.027 A 
HETATM   15  C   UNL     1     -40.092  51.904 -53.559  1.00  0.00     0.011 A 
HETATM   16  C   UNL     1     -40.011  51.995 -52.172  1.00  0.00     0.019 A 
HETATM   17 BR   UNL     1     -39.731  50.255 -54.411  1.00  0.00    -0.051 Br
HETATM   18  C   UNL     1     -40.282  53.210 -51.545  1.00  0.00     0.002 A 
HETATM   19  C   UNL     1     -40.615  54.331 -52.309  1.00  0.00     0.009 A 
ENDBRANCH  12  13
ENDBRANCH   8  12
ENDBRANCH   1   6
BRANCH   1  20
HETATM   20  C   UNL     1     -42.373  57.676 -59.242  1.00  0.00     0.264 C 
HETATM   21  N   UNL     1     -42.675  58.901 -58.678  1.00  0.00    -0.265 N 
HETATM   22  H   UNL     1     -43.581  59.060 -58.217  1.00  0.00     0.190 HD
HETATM   23  O   UNL     1     -41.487  57.559 -60.091  1.00  0.00    -0.269 OA
BRANCH  21  24
HETATM   24  N   UNL     1     -42.005  60.032 -59.160  1.00  0.00    -0.262 N 
HETATM   25  C   UNL     1     -41.428  60.912 -58.269  1.00  0.00     0.286 C 
HETATM   26  O   UNL     1     -41.496  60.756 -57.051  1.00  0.00    -0.264 OA
HETATM   27  H   UNL     1     -41.969  60.146 -60.168  1.00  0.00     0.190 HD
BRANCH  25  28
HETATM   28  C   UNL     1     -40.737  62.037 -58.863  1.00  0.00     0.102 A 
HETATM   29  N   UNL     1     -40.244  63.061 -58.082  1.00  0.00    -0.361 N 
HETATM   30  H   UNL     1     -40.335  63.089 -57.073  1.00  0.00     0.165 HD
HETATM   31  C   UNL     1     -39.630  64.002 -58.862  1.00  0.00     0.088 A 
HETATM   32  C   UNL     1     -39.722  63.589 -60.171  1.00  0.00     0.019 A 
HETATM   33  C   UNL     1     -40.418  62.354 -60.174  1.00  0.00     0.036 A 
ENDBRANCH  25  28
ENDBRANCH  21  24
ENDBRANCH   1  20
TORSDOF 6
ENDMDL
MODEL 2
REMARK VINA RESULT:      -8.1      4.639      9.328
REMARK  6 active torsions:
REMARK  status: ('A' for Active; 'I' for Inactive)
REMARK    1  A    between atoms: C_6  and  C_7 
REMARK    2  A    between atoms: C_7  and  N_8 
REMARK       I    between atoms: N_8  and  C_9 
REMARK       I    between atoms: C_9  and  N_10 
REMARK    3  A    between atoms: N_10  and  C_11 
REMARK    4  A    between atoms: C_11  and  C_12 
REMARK       I    between atoms: C_12  and  N_13 
REMARK    5  A    between atoms: N_13  and  N_14 
REMARK       I    between atoms: N_14  and  C_15 
REMARK    6  A    between atoms: C_15  and  C_16 
ROOT
HETATM    1  C   UNL     1     -42.845  56.929 -53.121  1.00  0.00     0.117 C 
HETATM    2  C   UNL     1     -41.628  57.868 -53.111  1.00  0.00     0.041 C 
HETATM    3  C   UNL     1     -41.527  58.316 -51.662  1.00  0.00     0.003 C 
HETATM    4  C   UNL     1     -42.969  58.499 -51.216  1.00  0.00     0.003 C 
HETATM    5  C   UNL     1     -43.822  57.656 -52.166  1.00  0.00     0.041 C 
ENDROOT
BRANCH   1   6
HETATM    6  N   UNL     1     -43.486  56.812 -54.441  1.00  0.00    -0.325 N 
HETATM    7  C   UNL     1     -42.805  56.416 -55.558  1.00  0.00     0.317 C 
HETATM    8  N   UNL     1     -43.621  56.386 -56.655  1.00  0.00    -0.339 N 
HETATM    9  O   UNL     1     -41.621  56.107 -55.563  1.00  0.00    -0.247 OA
HETATM   10  H   UNL     1     -44.300  57.133 -56.678  1.00  0.00     0.164 HD
HETATM   11  H   UNL     1     -44.450  56.507 -54.434  1.00  0.00     0.165 HD
BRANCH   8  12
HETATM   12  C   UNL     1     -43.061  55.990 -57.929  1.00  0.00     0.162 C 
BRANCH  12  13
HETATM   13  C   UNL     1     -44.085  55.953 -59.037  1.00  0.00    -0.039 A 
HETATM   14  C   UNL     1     -44.997  56.999 -59.242  1.00  0.00     0.027 A 
HETATM   15  C   UNL     1     -45.944  56.918 -60.265  1.00  0.00     0.011 A 
HETATM   16  C   UNL     1     -46.014  55.791 -61.079  1.00  0.00     0.019 A 
HETATM   17 BR   UNL     1     -47.141  58.354 -60.549  1.00  0.00    -0.051 Br
HETATM   18  C   UNL     1     -45.133  54.732 -60.866  1.00  0.00     0.002 A 
HETATM   19  C   UNL     1     -44.177  54.812 -59.851  1.00  0.00     0.009 A 
ENDBRANCH  12  13
ENDBRANCH   8  12
ENDBRANCH   1   6
BRANCH   1  20
HETATM   20  C   UNL     1     -42.503  55.504 -52.578  1.00  0.00     0.264 C 
HETATM   21  N   UNL     1     -41.207  55.084 -52.808  1.00  0.00    -0.265 N 
HETATM   22  H   UNL     1     -40.621  55.546 -53.516  1.00  0.00     0.190 HD
HETATM   23  O   UNL     1     -43.328  54.774 -52.023  1.00  0.00    -0.269 OA
BRANCH  21  24
HETATM   24  N   UNL     1     -40.871  53.767 -52.472  1.00  0.00    -0.262 N 
HETATM   25  C   UNL     1     -40.303  52.946 -53.424  1.00  0.00     0.286 C 
HETATM   26  O   UNL     1     -40.096  53.319 -54.577  1.00  0.00    -0.264 OA
HETATM   27  H   UNL     1     -41.058  53.477 -51.517  1.00  0.00     0.190 HD
BRANCH  25  28
HETATM   28  C   UNL     1     -39.968  51.611 -52.975  1.00  0.00     0.102 A 
HETATM   29  N   UNL     1     -39.686  51.358 -51.648  1.00  0.00    -0.361 N 
HETATM   30  H   UNL     1     -39.695  52.071 -50.929  1.00  0.00     0.165 HD
HETATM   31  C   UNL     1     -39.405  50.032 -51.466  1.00  0.00     0.088 A 
HETATM   32  C   UNL     1     -39.503  49.409 -52.688  1.00  0.00     0.019 A 
HETATM   33  C   UNL     1     -39.856  50.400 -53.638  1.00  0.00     0.036 A 
ENDBRANCH  25  28
ENDBRANCH  21  24
ENDBRANCH   1  20
TORSDOF 6
ENDMDL
MODEL 3
REMARK VINA RESULT:      -8.1      3.955      6.348
REMARK  6 active torsions:
REMARK  status: ('A' for Active; 'I' for Inactive)
REMARK    1  A    between atoms: C_6  and  C_7 
REMARK    2  A    between atoms: C_7  and  N_8 
REMARK       I    between atoms: N_8  and  C_9 
REMARK       I    between atoms: C_9  and  N_10 
REMARK    3  A    between atoms: N_10  and  C_11 
REMARK    4  A    between atoms: C_11  and  C_12 
REMARK       I    between atoms: C_12  and  N_13 
REMARK    5  A    between atoms: N_13  and  N_14 
REMARK       I    between atoms: N_14  and  C_15 
REMARK    6  A    between atoms: C_15  and  C_16 
ROOT
HETATM    1  C   UNL     1     -42.452  59.375 -51.206  1.00  0.00     0.117 C 
HETATM    2  C   UNL     1     -43.929  59.564 -50.821  1.00  0.00     0.041 C 
HETATM    3  C   UNL     1     -44.180  61.044 -51.062  1.00  0.00     0.003 C 
HETATM    4  C   UNL     1     -42.903  61.730 -50.602  1.00  0.00     0.003 C 
HETATM    5  C   UNL     1     -41.805  60.665 -50.647  1.00  0.00     0.041 C 
ENDROOT
BRANCH   1   6
HETATM    6  N   UNL     1     -41.819  58.217 -50.554  1.00  0.00    -0.325 N 
HETATM    7  C   UNL     1     -42.335  56.954 -50.633  1.00  0.00     0.317 C 
HETATM    8  N   UNL     1     -41.565  56.057 -49.947  1.00  0.00    -0.339 N 
HETATM    9  O   UNL     1     -43.347  56.668 -51.259  1.00  0.00    -0.247 OA
HETATM   10  H   UNL     1     -41.176  56.424 -49.091  1.00  0.00     0.164 HD
HETATM   11  H   UNL     1     -40.808  58.232 -50.521  1.00  0.00     0.165 HD
BRANCH   8  12
HETATM   12  C   UNL     1     -41.969  54.667 -49.923  1.00  0.00     0.162 C 
BRANCH  12  13
HETATM   13  C   UNL     1     -41.205  53.814 -50.906  1.00  0.00    -0.039 A 
HETATM   14  C   UNL     1     -41.148  54.126 -52.273  1.00  0.00     0.027 A 
HETATM   15  C   UNL     1     -40.448  53.300 -53.155  1.00  0.00     0.011 A 
HETATM   16  C   UNL     1     -39.819  52.145 -52.698  1.00  0.00     0.019 A 
HETATM   17 BR   UNL     1     -40.351  53.756 -54.987  1.00  0.00    -0.051 Br
HETATM   18  C   UNL     1     -39.894  51.809 -51.347  1.00  0.00     0.002 A 
HETATM   19  C   UNL     1     -40.584  52.637 -50.459  1.00  0.00     0.009 A 
ENDBRANCH  12  13
ENDBRANCH   8  12
ENDBRANCH   1   6
BRANCH   1  20
HETATM   20  C   UNL     1     -42.246  59.283 -52.752  1.00  0.00     0.264 C 
HETATM   21  N   UNL     1     -43.261  58.646 -53.442  1.00  0.00    -0.265 N 
HETATM   22  H   UNL     1     -43.935  58.044 -52.950  1.00  0.00     0.190 HD
HETATM   23  O   UNL     1     -41.239  59.700 -53.328  1.00  0.00    -0.269 OA
BRANCH  21  24
HETATM   24  N   UNL     1     -43.079  58.406 -54.809  1.00  0.00    -0.262 N 
HETATM   25  C   UNL     1     -43.173  57.117 -55.291  1.00  0.00     0.286 C 
HETATM   26  O   UNL     1     -43.392  56.153 -54.559  1.00  0.00    -0.264 OA
HETATM   27  H   UNL     1     -42.891  59.213 -55.394  1.00  0.00     0.190 HD
BRANCH  25  28
HETATM   28  C   UNL     1     -42.995  56.972 -56.720  1.00  0.00     0.102 A 
HETATM   29  N   UNL     1     -43.476  55.864 -57.387  1.00  0.00    -0.361 N 
HETATM   30  H   UNL     1     -43.966  55.105 -56.929  1.00  0.00     0.165 HD
HETATM   31  C   UNL     1     -43.194  55.953 -58.723  1.00  0.00     0.088 A 
HETATM   32  C   UNL     1     -42.521  57.134 -58.933  1.00  0.00     0.019 A 
HETATM   33  C   UNL     1     -42.394  57.775 -57.676  1.00  0.00     0.036 A 
ENDBRANCH  25  28
ENDBRANCH  21  24
ENDBRANCH   1  20
TORSDOF 6
ENDMDL
MODEL 4
REMARK VINA RESULT:      -8.1      3.633      5.727
REMARK  6 active torsions:
REMARK  status: ('A' for Active; 'I' for Inactive)
REMARK    1  A    between atoms: C_6  and  C_7 
REMARK    2  A    between atoms: C_7  and  N_8 
REMARK       I    between atoms: N_8  and  C_9 
REMARK       I    between atoms: C_9  and  N_10 
REMARK    3  A    between atoms: N_10  and  C_11 
REMARK    4  A    between atoms: C_11  and  C_12 
REMARK       I    between atoms: C_12  and  N_13 
REMARK    5  A    between atoms: N_13  and  N_14 
REMARK       I    between atoms: N_14  and  C_15 
REMARK    6  A    between atoms: C_15  and  C_16 
ROOT
HETATM    1  C   UNL     1     -43.625  58.342 -53.320  1.00  0.00     0.117 C 
HETATM    2  C   UNL     1     -44.644  58.650 -52.210  1.00  0.00     0.041 C 
HETATM    3  C   UNL     1     -45.462  59.800 -52.777  1.00  0.00     0.003 C 
HETATM    4  C   UNL     1     -44.448  60.665 -53.510  1.00  0.00     0.003 C 
HETATM    5  C   UNL     1     -43.256  59.759 -53.822  1.00  0.00     0.041 C 
ENDROOT
BRANCH   1   6
HETATM    6  N   UNL     1     -42.401  57.689 -52.828  1.00  0.00    -0.325 N 
HETATM    7  C   UNL     1     -42.427  56.550 -52.074  1.00  0.00     0.317 C 
HETATM    8  N   UNL     1     -41.164  56.142 -51.745  1.00  0.00    -0.339 N 
HETATM    9  O   UNL     1     -43.452  55.964 -51.756  1.00  0.00    -0.247 OA
HETATM   10  H   UNL     1     -40.528  56.901 -51.548  1.00  0.00     0.164 HD
HETATM   11  H   UNL     1     -41.601  57.740 -53.444  1.00  0.00     0.165 HD
BRANCH   8  12
HETATM   12  C   UNL     1     -41.004  54.948 -50.942  1.00  0.00     0.162 C 
BRANCH  12  13
HETATM   13  C   UNL     1     -40.613  53.739 -51.755  1.00  0.00    -0.039 A 
HETATM   14  C   UNL     1     -40.253  52.523 -51.154  1.00  0.00     0.027 A 
HETATM   15  C   UNL     1     -39.877  51.432 -51.940  1.00  0.00     0.011 A 
HETATM   16  C   UNL     1     -39.828  51.541 -53.327  1.00  0.00     0.019 A 
HETATM   17 BR   UNL     1     -39.431  49.792 -51.113  1.00  0.00    -0.051 Br
HETATM   18  C   UNL     1     -40.153  52.753 -53.934  1.00  0.00     0.002 A 
HETATM   19  C   UNL     1     -40.541  53.844 -53.154  1.00  0.00     0.009 A 
ENDBRANCH  12  13
ENDBRANCH   8  12
ENDBRANCH   1   6
BRANCH   1  20
HETATM   20  C   UNL     1     -44.243  57.493 -54.477  1.00  0.00     0.264 C 
HETATM   21  N   UNL     1     -43.730  57.753 -55.734  1.00  0.00    -0.265 N 
HETATM   22  H   UNL     1     -43.205  58.618 -55.921  1.00  0.00     0.190 HD
HETATM   23  O   UNL     1     -45.154  56.679 -54.309  1.00  0.00    -0.269 OA
BRANCH  21  24
HETATM   24  N   UNL     1     -44.332  57.130 -56.834  1.00  0.00    -0.262 N 
HETATM   25  C   UNL     1     -43.595  56.914 -57.980  1.00  0.00     0.286 C 
HETATM   26  O   UNL     1     -42.423  57.269 -58.088  1.00  0.00    -0.264 OA
HETATM   27  H   UNL     1     -45.302  56.853 -56.727  1.00  0.00     0.190 HD
BRANCH  25  28
HETATM   28  C   UNL     1     -44.297  56.241 -59.053  1.00  0.00     0.102 A 
HETATM   29  N   UNL     1     -45.626  56.509 -59.311  1.00  0.00    -0.361 N 
HETATM   30  H   UNL     1     -46.175  57.172 -58.778  1.00  0.00     0.165 HD
HETATM   31  C   UNL     1     -46.065  55.760 -60.368  1.00  0.00     0.088 A 
HETATM   32  C   UNL     1     -45.012  54.993 -60.808  1.00  0.00     0.019 A 
HETATM   33  C   UNL     1     -43.899  55.293 -59.982  1.00  0.00     0.036 A 
ENDBRANCH  25  28
ENDBRANCH  21  24
ENDBRANCH   1  20
TORSDOF 6
ENDMDL
MODEL 5
REMARK VINA RESULT:      -8.0      6.557      8.361
REMARK  6 active torsions:
REMARK  status: ('A' for Active; 'I' for Inactive)
REMARK    1  A    between atoms: C_6  and  C_7 
REMARK    2  A    between atoms: C_7  and  N_8 
REMARK       I    between atoms: N_8  and  C_9 
REMARK       I    between atoms: C_9  and  N_10 
REMARK    3  A    between atoms: N_10  and  C_11 
REMARK    4  A    between atoms: C_11  and  C_12 
REMARK       I    between atoms: C_12  and  N_13 
REMARK    5  A    between atoms: N_13  and  N_14 
REMARK       I    between atoms: N_14  and  C_15 
REMARK    6  A    between atoms: C_15  and  C_16 
ROOT
HETATM    1  C   UNL     1     -42.803  59.579 -52.558  1.00  0.00     0.117 C 
HETATM    2  C   UNL     1     -42.454  60.656 -53.600  1.00  0.00     0.041 C 
HETATM    3  C   UNL     1     -43.721  61.490 -53.698  1.00  0.00     0.003 C 
HETATM    4  C   UNL     1     -44.854  60.479 -53.606  1.00  0.00     0.003 C 
HETATM    5  C   UNL     1     -44.269  59.241 -52.921  1.00  0.00     0.041 C 
ENDROOT
BRANCH   1   6
HETATM    6  N   UNL     1     -41.998  58.354 -52.687  1.00  0.00    -0.325 N 
HETATM    7  C   UNL     1     -42.174  57.268 -51.876  1.00  0.00     0.317 C 
HETATM    8  N   UNL     1     -41.307  56.261 -52.198  1.00  0.00    -0.339 N 
HETATM    9  O   UNL     1     -43.018  57.205 -50.993  1.00  0.00    -0.247 OA
HETATM   10  H   UNL     1     -40.390  56.583 -52.469  1.00  0.00     0.164 HD
HETATM   11  H   UNL     1     -41.725  58.107 -53.629  1.00  0.00     0.165 HD
BRANCH   8  12
HETATM   12  C   UNL     1     -41.354  55.032 -51.435  1.00  0.00     0.162 C 
BRANCH  12  13
HETATM   13  C   UNL     1     -40.824  53.843 -52.199  1.00  0.00    -0.039 A 
HETATM   14  C   UNL     1     -40.414  52.667 -51.554  1.00  0.00     0.027 A 
HETATM   15  C   UNL     1     -39.909  51.596 -52.294  1.00  0.00     0.011 A 
HETATM   16  C   UNL     1     -39.782  51.688 -53.678  1.00  0.00     0.019 A 
HETATM   17 BR   UNL     1     -39.395  50.006 -51.410  1.00  0.00    -0.051 Br
HETATM   18  C   UNL     1     -40.158  52.863 -54.327  1.00  0.00     0.002 A 
HETATM   19  C   UNL     1     -40.673  53.933 -53.592  1.00  0.00     0.009 A 
ENDBRANCH  12  13
ENDBRANCH   8  12
ENDBRANCH   1   6
BRANCH   1  20
HETATM   20  C   UNL     1     -42.710  60.115 -51.093  1.00  0.00     0.264 C 
HETATM   21  N   UNL     1     -43.881  60.035 -50.363  1.00  0.00    -0.265 N 
HETATM   22  H   UNL     1     -44.787  59.904 -50.833  1.00  0.00     0.190 HD
HETATM   23  O   UNL     1     -41.689  60.619 -50.619  1.00  0.00    -0.269 OA
BRANCH  21  24
HETATM   24  N   UNL     1     -43.907  60.622 -49.093  1.00  0.00    -0.262 N 
HETATM   25  C   UNL     1     -45.118  60.825 -48.462  1.00  0.00     0.286 C 
HETATM   26  O   UNL     1     -46.191  60.528 -48.984  1.00  0.00    -0.264 OA
HETATM   27  H   UNL     1     -43.011  60.867 -48.683  1.00  0.00     0.190 HD
BRANCH  25  28
HETATM   28  C   UNL     1     -45.041  61.414 -47.142  1.00  0.00     0.102 A 
HETATM   29  N   UNL     1     -44.627  60.670 -46.056  1.00  0.00    -0.361 N 
HETATM   30  H   UNL     1     -44.361  59.695 -46.115  1.00  0.00     0.165 HD
HETATM   31  C   UNL     1     -44.631  61.439 -44.924  1.00  0.00     0.088 A 
HETATM   32  C   UNL     1     -45.052  62.701 -45.273  1.00  0.00     0.019 A 
HETATM   33  C   UNL     1     -45.312  62.687 -46.667  1.00  0.00     0.036 A 
ENDBRANCH  25  28
ENDBRANCH  21  24
ENDBRANCH   1  20
TORSDOF 6
ENDMDL
MODEL 6
REMARK VINA RESULT:      -7.9     16.944     19.012
REMARK  6 active torsions:
REMARK  status: ('A' for Active; 'I' for Inactive)
REMARK    1  A    between atoms: C_6  and  C_7 
REMARK    2  A    between atoms: C_7  and  N_8 
REMARK       I    between atoms: N_8  and  C_9 
REMARK       I    between atoms: C_9  and  N_10 
REMARK    3  A    between atoms: N_10  and  C_11 
REMARK    4  A    between atoms: C_11  and  C_12 
REMARK       I    between atoms: C_12  and  N_13 
REMARK    5  A    between atoms: N_13  and  N_14 
REMARK       I    between atoms: N_14  and  C_15 
REMARK    6  A    between atoms: C_15  and  C_16 
ROOT
HETATM    1  C   UNL     1     -36.750  41.160 -57.240  1.00  0.00     0.117 C 
HETATM    2  C   UNL     1     -37.994  40.388 -57.710  1.00  0.00     0.041 C 
HETATM    3  C   UNL     1     -37.851  40.358 -59.224  1.00  0.00     0.003 C 
HETATM    4  C   UNL     1     -37.295  41.727 -59.584  1.00  0.00     0.003 C 
HETATM    5  C   UNL     1     -36.630  42.266 -58.316  1.00  0.00     0.041 C 
ENDROOT
BRANCH   1   6
HETATM    6  N   UNL     1     -36.920  41.804 -55.927  1.00  0.00    -0.325 N 
HETATM    7  C   UNL     1     -37.114  41.092 -54.777  1.00  0.00     0.317 C 
HETATM    8  N   UNL     1     -37.242  41.918 -53.695  1.00  0.00    -0.339 N 
HETATM    9  O   UNL     1     -37.145  39.870 -54.728  1.00  0.00    -0.247 OA
HETATM   10  H   UNL     1     -37.748  42.770 -53.890  1.00  0.00     0.164 HD
HETATM   11  H   UNL     1     -36.390  42.653 -55.785  1.00  0.00     0.165 HD
BRANCH   8  12
HETATM   12  C   UNL     1     -37.457  41.329 -52.391  1.00  0.00     0.162 C 
BRANCH  12  13
HETATM   13  C   UNL     1     -36.171  40.992 -51.677  1.00  0.00    -0.039 A 
HETATM   14  C   UNL     1     -36.074  39.908 -50.792  1.00  0.00     0.027 A 
HETATM   15  C   UNL     1     -34.872  39.641 -50.134  1.00  0.00     0.011 A 
HETATM   16  C   UNL     1     -33.761  40.458 -50.326  1.00  0.00     0.019 A 
HETATM   17 BR   UNL     1     -34.750  38.154 -48.973  1.00  0.00    -0.051 Br
HETATM   18  C   UNL     1     -33.855  41.556 -51.180  1.00  0.00     0.002 A 
HETATM   19  C   UNL     1     -35.051  41.822 -51.848  1.00  0.00     0.009 A 
ENDBRANCH  12  13
ENDBRANCH   8  12
ENDBRANCH   1   6
BRANCH   1  20
HETATM   20  C   UNL     1     -35.467  40.269 -57.223  1.00  0.00     0.264 C 
HETATM   21  N   UNL     1     -34.307  40.917 -56.841  1.00  0.00    -0.265 N 
HETATM   22  H   UNL     1     -34.250  41.944 -56.849  1.00  0.00     0.190 HD
HETATM   23  O   UNL     1     -35.459  39.085 -57.566  1.00  0.00    -0.269 OA
BRANCH  21  24
HETATM   24  N   UNL     1     -33.099  40.217 -56.935  1.00  0.00    -0.262 N 
HETATM   25  C   UNL     1     -32.239  40.194 -55.856  1.00  0.00     0.286 C 
HETATM   26  O   UNL     1     -32.483  40.787 -54.806  1.00  0.00    -0.264 OA
HETATM   27  H   UNL     1     -32.913  39.742 -57.813  1.00  0.00     0.190 HD
BRANCH  25  28
HETATM   28  C   UNL     1     -31.028  39.423 -56.041  1.00  0.00     0.102 A 
HETATM   29  N   UNL     1     -30.131  39.740 -57.041  1.00  0.00    -0.361 N 
HETATM   30  H   UNL     1     -30.263  40.508 -57.688  1.00  0.00     0.165 HD
HETATM   31  C   UNL     1     -29.067  38.880 -57.016  1.00  0.00     0.088 A 
HETATM   32  C   UNL     1     -29.270  37.989 -55.987  1.00  0.00     0.019 A 
HETATM   33  C   UNL     1     -30.503  38.328 -55.374  1.00  0.00     0.036 A 
ENDBRANCH  25  28
ENDBRANCH  21  24
ENDBRANCH   1  20
TORSDOF 6
ENDMDL
MODEL 7
REMARK VINA RESULT:      -7.6      4.870      7.496
REMARK  6 active torsions:
REMARK  status: ('A' for Active; 'I' for Inactive)
REMARK    1  A    between atoms: C_6  and  C_7 
REMARK    2  A    between atoms: C_7  and  N_8 
REMARK       I    between atoms: N_8  and  C_9 
REMARK       I    between atoms: C_9  and  N_10 
REMARK    3  A    between atoms: N_10  and  C_11 
REMARK    4  A    between atoms: C_11  and  C_12 
REMARK       I    between atoms: C_12  and  N_13 
REMARK    5  A    between atoms: N_13  and  N_14 
REMARK       I    between atoms: N_14  and  C_15 
REMARK    6  A    between atoms: C_15  and  C_16 
ROOT
HETATM    1  C   UNL     1     -41.678  54.940 -53.873  1.00  0.00     0.117 C 
HETATM    2  C   UNL     1     -40.321  55.061 -54.586  1.00  0.00     0.041 C 
HETATM    3  C   UNL     1     -40.072  53.665 -55.133  1.00  0.00     0.003 C 
HETATM    4  C   UNL     1     -40.581  52.731 -54.045  1.00  0.00     0.003 C 
HETATM    5  C   UNL     1     -41.571  53.546 -53.210  1.00  0.00     0.041 C 
ENDROOT
BRANCH   1   6
HETATM    6  N   UNL     1     -41.877  55.944 -52.815  1.00  0.00    -0.325 N 
HETATM    7  C   UNL     1     -41.906  57.286 -53.070  1.00  0.00     0.317 C 
HETATM    8  N   UNL     1     -42.106  58.006 -51.925  1.00  0.00    -0.339 N 
HETATM    9  O   UNL     1     -41.790  57.772 -54.187  1.00  0.00    -0.247 OA
HETATM   10  H   UNL     1     -41.638  57.625 -51.116  1.00  0.00     0.164 HD
HETATM   11  H   UNL     1     -42.493  55.669 -52.062  1.00  0.00     0.165 HD
BRANCH   8  12
HETATM   12  C   UNL     1     -42.161  59.450 -52.011  1.00  0.00     0.162 C 
BRANCH  12  13
HETATM   13  C   UNL     1     -43.298  60.045 -51.218  1.00  0.00    -0.039 A 
HETATM   14  C   UNL     1     -43.200  61.304 -50.606  1.00  0.00     0.027 A 
HETATM   15  C   UNL     1     -44.267  61.812 -49.863  1.00  0.00     0.011 A 
HETATM   16  C   UNL     1     -45.433  61.068 -49.696  1.00  0.00     0.019 A 
HETATM   17 BR   UNL     1     -44.129  63.525 -49.076  1.00  0.00    -0.051 Br
HETATM   18  C   UNL     1     -45.531  59.804 -50.274  1.00  0.00     0.002 A 
HETATM   19  C   UNL     1     -44.470  59.295 -51.027  1.00  0.00     0.009 A 
ENDBRANCH  12  13
ENDBRANCH   8  12
ENDBRANCH   1   6
BRANCH   1  20
HETATM   20  C   UNL     1     -42.881  54.983 -54.869  1.00  0.00     0.264 C 
HETATM   21  N   UNL     1     -42.594  55.516 -56.112  1.00  0.00    -0.265 N 
HETATM   22  H   UNL     1     -41.751  56.088 -56.259  1.00  0.00     0.190 HD
HETATM   23  O   UNL     1     -44.020  54.617 -54.574  1.00  0.00    -0.269 OA
BRANCH  21  24
HETATM   24  N   UNL     1     -43.654  55.713 -57.005  1.00  0.00    -0.262 N 
HETATM   25  C   UNL     1     -43.554  56.690 -57.975  1.00  0.00     0.286 C 
HETATM   26  O   UNL     1     -42.569  57.420 -58.077  1.00  0.00    -0.264 OA
HETATM   27  H   UNL     1     -44.460  55.106 -56.899  1.00  0.00     0.190 HD
BRANCH  25  28
HETATM   28  C   UNL     1     -44.689  56.801 -58.867  1.00  0.00     0.102 A 
HETATM   29  N   UNL     1     -45.210  55.688 -59.494  1.00  0.00    -0.361 N 
HETATM   30  H   UNL     1     -44.840  54.753 -59.373  1.00  0.00     0.165 HD
HETATM   31  C   UNL     1     -46.275  56.039 -60.278  1.00  0.00     0.088 A 
HETATM   32  C   UNL     1     -46.454  57.398 -60.162  1.00  0.00     0.019 A 
HETATM   33  C   UNL     1     -45.457  57.879 -59.276  1.00  0.00     0.036 A 
ENDBRANCH  25  28
ENDBRANCH  21  24
ENDBRANCH   1  20
TORSDOF 6
ENDMDL
MODEL 8
REMARK VINA RESULT:      -7.5      4.004      9.462
REMARK  6 active torsions:
REMARK  status: ('A' for Active; 'I' for Inactive)
REMARK    1  A    between atoms: C_6  and  C_7 
REMARK    2  A    between atoms: C_7  and  N_8 
REMARK       I    between atoms: N_8  and  C_9 
REMARK       I    between atoms: C_9  and  N_10 
REMARK    3  A    between atoms: N_10  and  C_11 
REMARK    4  A    between atoms: C_11  and  C_12 
REMARK       I    between atoms: C_12  and  N_13 
REMARK    5  A    between atoms: N_13  and  N_14 
REMARK       I    between atoms: N_14  and  C_15 
REMARK    6  A    between atoms: C_15  and  C_16 
ROOT
HETATM    1  C   UNL     1     -43.203  56.545 -53.810  1.00  0.00     0.117 C 
HETATM    2  C   UNL     1     -42.041  57.550 -53.738  1.00  0.00     0.041 C 
HETATM    3  C   UNL     1     -41.973  57.920 -52.265  1.00  0.00     0.003 C 
HETATM    4  C   UNL     1     -43.425  57.996 -51.821  1.00  0.00     0.003 C 
HETATM    5  C   UNL     1     -44.224  57.160 -52.823  1.00  0.00     0.041 C 
ENDROOT
BRANCH   1   6
HETATM    6  N   UNL     1     -43.830  56.467 -55.139  1.00  0.00    -0.325 N 
HETATM    7  C   UNL     1     -43.108  56.282 -56.285  1.00  0.00     0.317 C 
HETATM    8  N   UNL     1     -43.919  56.243 -57.385  1.00  0.00    -0.339 N 
HETATM    9  O   UNL     1     -41.893  56.147 -56.312  1.00  0.00    -0.247 OA
HETATM   10  H   UNL     1     -44.698  56.884 -57.340  1.00  0.00     0.164 HD
HETATM   11  H   UNL     1     -44.741  56.028 -55.169  1.00  0.00     0.165 HD
BRANCH   8  12
HETATM   12  C   UNL     1     -43.318  56.056 -58.688  1.00  0.00     0.162 C 
BRANCH  12  13
HETATM   13  C   UNL     1     -43.237  57.333 -59.488  1.00  0.00    -0.039 A 
HETATM   14  C   UNL     1     -44.382  58.060 -59.848  1.00  0.00     0.027 A 
HETATM   15  C   UNL     1     -44.267  59.226 -60.606  1.00  0.00     0.011 A 
HETATM   16  C   UNL     1     -43.020  59.672 -61.038  1.00  0.00     0.019 A 
HETATM   17 BR   UNL     1     -45.818  60.211 -61.051  1.00  0.00    -0.051 Br
HETATM   18  C   UNL     1     -41.878  58.942 -60.712  1.00  0.00     0.002 A 
HETATM   19  C   UNL     1     -41.986  57.781 -59.944  1.00  0.00     0.009 A 
ENDBRANCH  12  13
ENDBRANCH   8  12
ENDBRANCH   1   6
BRANCH   1  20
HETATM   20  C   UNL     1     -42.783  55.114 -53.345  1.00  0.00     0.264 C 
HETATM   21  N   UNL     1     -41.466  54.779 -53.595  1.00  0.00    -0.265 N 
HETATM   22  H   UNL     1     -40.907  55.310 -54.276  1.00  0.00     0.190 HD
HETATM   23  O   UNL     1     -43.565  54.311 -52.832  1.00  0.00    -0.269 OA
BRANCH  21  24
HETATM   24  N   UNL     1     -41.057  53.466 -53.331  1.00  0.00    -0.262 N 
HETATM   25  C   UNL     1     -40.421  53.178 -52.142  1.00  0.00     0.286 C 
HETATM   26  O   UNL     1     -40.174  54.040 -51.300  1.00  0.00    -0.264 OA
HETATM   27  H   UNL     1     -41.264  52.772 -54.042  1.00  0.00     0.190 HD
BRANCH  25  28
HETATM   28  C   UNL     1     -40.060  51.789 -51.949  1.00  0.00     0.102 A 
HETATM   29  N   UNL     1     -39.788  50.970 -53.025  1.00  0.00    -0.361 N 
HETATM   30  H   UNL     1     -39.825  51.282 -53.988  1.00  0.00     0.165 HD
HETATM   31  C   UNL     1     -39.468  49.711 -52.596  1.00  0.00     0.088 A 
HETATM   32  C   UNL     1     -39.531  49.705 -51.222  1.00  0.00     0.019 A 
HETATM   33  C   UNL     1     -39.904  51.010 -50.813  1.00  0.00     0.036 A 
ENDBRANCH  25  28
ENDBRANCH  21  24
ENDBRANCH   1  20
TORSDOF 6
ENDMDL
MODEL 9
REMARK VINA RESULT:      -7.4      5.411      8.386
REMARK  6 active torsions:
REMARK  status: ('A' for Active; 'I' for Inactive)
REMARK    1  A    between atoms: C_6  and  C_7 
REMARK    2  A    between atoms: C_7  and  N_8 
REMARK       I    between atoms: N_8  and  C_9 
REMARK       I    between atoms: C_9  and  N_10 
REMARK    3  A    between atoms: N_10  and  C_11 
REMARK    4  A    between atoms: C_11  and  C_12 
REMARK       I    between atoms: C_12  and  N_13 
REMARK    5  A    between atoms: N_13  and  N_14 
REMARK       I    between atoms: N_14  and  C_15 
REMARK    6  A    between atoms: C_15  and  C_16 
ROOT
HETATM    1  C   UNL     1     -43.143  55.572 -52.103  1.00  0.00     0.117 C 
HETATM    2  C   UNL     1     -43.392  54.249 -51.359  1.00  0.00     0.041 C 
HETATM    3  C   UNL     1     -42.355  54.256 -50.248  1.00  0.00     0.003 C 
HETATM    4  C   UNL     1     -41.112  54.856 -50.888  1.00  0.00     0.003 C 
HETATM    5  C   UNL     1     -41.598  55.660 -52.096  1.00  0.00     0.041 C 
ENDROOT
BRANCH   1   6
HETATM    6  N   UNL     1     -43.602  55.555 -53.501  1.00  0.00    -0.325 N 
HETATM    7  C   UNL     1     -43.144  56.439 -54.437  1.00  0.00     0.317 C 
HETATM    8  N   UNL     1     -43.719  56.216 -55.657  1.00  0.00    -0.339 N 
HETATM    9  O   UNL     1     -42.308  57.303 -54.209  1.00  0.00    -0.247 OA
HETATM   10  H   UNL     1     -44.691  55.945 -55.606  1.00  0.00     0.164 HD
HETATM   11  H   UNL     1     -43.806  54.641 -53.884  1.00  0.00     0.165 HD
BRANCH   8  12
HETATM   12  C   UNL     1     -43.350  57.067 -56.768  1.00  0.00     0.162 C 
BRANCH  12  13
HETATM   13  C   UNL     1     -43.958  56.625 -58.076  1.00  0.00    -0.039 A 
HETATM   14  C   UNL     1     -45.071  57.272 -58.635  1.00  0.00     0.027 A 
HETATM   15  C   UNL     1     -45.617  56.820 -59.838  1.00  0.00     0.011 A 
HETATM   16  C   UNL     1     -45.085  55.709 -60.487  1.00  0.00     0.019 A 
HETATM   17 BR   UNL     1     -47.094  57.727 -60.594  1.00  0.00    -0.051 Br
HETATM   18  C   UNL     1     -43.998  55.040 -59.925  1.00  0.00     0.002 A 
HETATM   19  C   UNL     1     -43.441  55.494 -58.728  1.00  0.00     0.009 A 
ENDBRANCH  12  13
ENDBRANCH   8  12
ENDBRANCH   1   6
BRANCH   1  20
HETATM   20  C   UNL     1     -43.767  56.798 -51.362  1.00  0.00     0.264 C 
HETATM   21  N   UNL     1     -42.974  57.929 -51.328  1.00  0.00    -0.265 N 
HETATM   22  H   UNL     1     -41.965  57.871 -51.520  1.00  0.00     0.190 HD
HETATM   23  O   UNL     1     -44.865  56.765 -50.802  1.00  0.00    -0.269 OA
BRANCH  21  24
HETATM   24  N   UNL     1     -43.410  59.018 -50.564  1.00  0.00    -0.262 N 
HETATM   25  C   UNL     1     -43.012  60.294 -50.908  1.00  0.00     0.286 C 
HETATM   26  O   UNL     1     -42.263  60.517 -51.857  1.00  0.00    -0.264 OA
HETATM   27  H   UNL     1     -44.021  58.811 -49.781  1.00  0.00     0.190 HD
BRANCH  25  28
HETATM   28  C   UNL     1     -43.535  61.355 -50.074  1.00  0.00     0.102 A 
HETATM   29  N   UNL     1     -44.320  61.074 -48.975  1.00  0.00    -0.361 N 
HETATM   30  H   UNL     1     -44.573  60.134 -48.695  1.00  0.00     0.165 HD
HETATM   31  C   UNL     1     -44.689  62.231 -48.345  1.00  0.00     0.088 A 
HETATM   32  C   UNL     1     -44.137  63.282 -49.039  1.00  0.00     0.019 A 
HETATM   33  C   UNL     1     -43.412  62.734 -50.127  1.00  0.00     0.036 A 
ENDBRANCH  25  28
ENDBRANCH  21  24
ENDBRANCH   1  20
TORSDOF 6
ENDMDL
MODEL 10
REMARK VINA RESULT:      -7.4      2.830      3.342
REMARK  6 active torsions:
REMARK  status: ('A' for Active; 'I' for Inactive)
REMARK    1  A    between atoms: C_6  and  C_7 
REMARK    2  A    between atoms: C_7  and  N_8 
REMARK       I    between atoms: N_8  and  C_9 
REMARK       I    between atoms: C_9  and  N_10 
REMARK    3  A    between atoms: N_10  and  C_11 
REMARK    4  A    between atoms: C_11  and  C_12 
REMARK       I    between atoms: C_12  and  N_13 
REMARK    5  A    between atoms: N_13  and  N_14 
REMARK       I    between atoms: N_14  and  C_15 
REMARK    6  A    between atoms: C_15  and  C_16 
ROOT
HETATM    1  C   UNL     1     -42.655  57.715 -58.150  1.00  0.00     0.117 C 
HETATM    2  C   UNL     1     -42.079  57.766 -59.575  1.00  0.00     0.041 C 
HETATM    3  C   UNL     1     -43.109  58.568 -60.354  1.00  0.00     0.003 C 
HETATM    4  C   UNL     1     -44.449  58.107 -59.805  1.00  0.00     0.003 C 
HETATM    5  C   UNL     1     -44.166  57.521 -58.420  1.00  0.00     0.041 C 
ENDROOT
BRANCH   1   6
HETATM    6  N   UNL     1     -42.172  56.569 -57.363  1.00  0.00    -0.325 N 
HETATM    7  C   UNL     1     -42.746  56.194 -56.180  1.00  0.00     0.317 C 
HETATM    8  N   UNL     1     -42.118  55.103 -55.646  1.00  0.00    -0.339 N 
HETATM    9  O   UNL     1     -43.712  56.754 -55.682  1.00  0.00    -0.247 OA
HETATM   10  H   UNL     1     -41.118  55.101 -55.780  1.00  0.00     0.164 HD
HETATM   11  H   UNL     1     -41.818  55.788 -57.898  1.00  0.00     0.165 HD
BRANCH   8  12
HETATM   12  C   UNL     1     -42.596  54.571 -54.388  1.00  0.00     0.162 C 
BRANCH  12  13
HETATM   13  C   UNL     1     -41.588  53.680 -53.704  1.00  0.00    -0.039 A 
HETATM   14  C   UNL     1     -41.151  52.475 -54.276  1.00  0.00     0.027 A 
HETATM   15  C   UNL     1     -40.233  51.668 -53.603  1.00  0.00     0.011 A 
HETATM   16  C   UNL     1     -39.757  52.031 -52.345  1.00  0.00     0.019 A 
HETATM   17 BR   UNL     1     -39.629  50.066 -54.405  1.00  0.00    -0.051 Br
HETATM   18  C   UNL     1     -40.207  53.210 -51.754  1.00  0.00     0.002 A 
HETATM   19  C   UNL     1     -41.117  54.027 -52.428  1.00  0.00     0.009 A 
ENDBRANCH  12  13
ENDBRANCH   8  12
ENDBRANCH   1   6
BRANCH   1  20
HETATM   20  C   UNL     1     -42.403  59.038 -57.358  1.00  0.00     0.264 C 
HETATM   21  N   UNL     1     -43.452  59.452 -56.559  1.00  0.00    -0.265 N 
HETATM   22  H   UNL     1     -44.401  59.080 -56.700  1.00  0.00     0.190 HD
HETATM   23  O   UNL     1     -41.370  59.703 -57.459  1.00  0.00    -0.269 OA
BRANCH  21  24
HETATM   24  N   UNL     1     -43.349  60.698 -55.929  1.00  0.00    -0.262 N 
HETATM   25  C   UNL     1     -43.392  60.770 -54.552  1.00  0.00     0.286 C 
HETATM   26  O   UNL     1     -43.539  59.775 -53.844  1.00  0.00    -0.264 OA
HETATM   27  H   UNL     1     -43.237  61.507 -56.532  1.00  0.00     0.190 HD
BRANCH  25  28
HETATM   28  C   UNL     1     -43.253  62.098 -53.993  1.00  0.00     0.102 A 
HETATM   29  N   UNL     1     -43.014  63.189 -54.805  1.00  0.00    -0.361 N 
HETATM   30  H   UNL     1     -42.923  63.127 -55.811  1.00  0.00     0.165 HD
HETATM   31  C   UNL     1     -42.926  64.330 -54.055  1.00  0.00     0.088 A 
HETATM   32  C   UNL     1     -43.110  63.982 -52.736  1.00  0.00     0.019 A 
HETATM   33  C   UNL     1     -43.314  62.580 -52.695  1.00  0.00     0.036 A 
ENDBRANCH  25  28
ENDBRANCH  21  24
ENDBRANCH   1  20
TORSDOF 6
ENDMDL
