MODEL 1
REMARK VINA RESULT:      -9.8      0.000      0.000
REMARK  7 active torsions:
REMARK  status: ('A' for Active; 'I' for Inactive)
REMARK    1  A    between atoms: C_4  and  C_5 
REMARK    2  A    between atoms: C_5  and  N_6 
REMARK    3  A    between atoms: C_14  and  C_15 
REMARK    4  A    between atoms: C_18  and  O_19 
REMARK    5  A    between atoms: O_19  and  C_20 
REMARK    6  A    between atoms: C_20  and  C_21 
REMARK    7  A    between atoms: C_22  and  C_23 
ROOT
HETATM    1  N   UNL     1     -40.771  54.126 -51.564  1.00  0.00    -0.063 N 
HETATM    2  H   UNL     1     -40.134  54.759 -52.059  1.00  0.00     0.280 HD
HETATM    3  C   UNL     1     -41.812  53.720 -52.600  1.00  0.00     0.282 C 
HETATM    4  C   UNL     1     -42.621  54.907 -52.996  1.00  0.00     0.018 A 
HETATM    5  C   UNL     1     -42.686  56.095 -52.289  1.00  0.00    -0.023 A 
HETATM    6  C   UNL     1     -43.539  57.039 -52.946  1.00  0.00     0.073 A 
HETATM    7  C   UNL     1     -44.142  56.496 -54.054  1.00  0.00     0.088 A 
HETATM    8  N   UNL     1     -45.040  57.156 -54.810  1.00  0.00    -0.358 N 
HETATM    9  C   UNL     1     -45.173  58.595 -54.688  1.00  0.00     0.219 C 
HETATM   10  N   UNL     1     -44.679  59.077 -53.425  1.00  0.00    -0.332 N 
HETATM   11  C   UNL     1     -43.832  58.413 -52.586  1.00  0.00     0.256 C 
HETATM   12  O   UNL     1     -43.346  58.952 -51.598  1.00  0.00    -0.267 OA
HETATM   13  S   UNL     1     -43.626  54.906 -54.369  1.00  0.00    -0.074 SA
HETATM   14  C   UNL     1     -41.912  56.298 -51.019  1.00  0.00     0.068 C 
HETATM   15  C   UNL     1     -41.400  54.959 -50.453  1.00  0.00     0.240 C 
HETATM   16  H   UNL     1     -45.298  56.785 -55.719  1.00  0.00     0.162 HD
HETATM   17  H   UNL     1     -44.829  60.050 -53.201  1.00  0.00     0.165 HD
ENDROOT
BRANCH   9  18
HETATM   18  C   UNL     1     -44.519  59.270 -55.879  1.00  0.00    -0.016 A 
HETATM   19  C   UNL     1     -45.320  59.918 -56.838  1.00  0.00     0.014 A 
HETATM   20  C   UNL     1     -44.753  60.458 -57.994  1.00  0.00     0.038 A 
HETATM   21  C   UNL     1     -43.378  60.360 -58.199  1.00  0.00     0.079 A 
HETATM   22  C   UNL     1     -42.563  59.732 -57.262  1.00  0.00     0.038 A 
HETATM   23  C   UNL     1     -43.132  59.197 -56.104  1.00  0.00     0.014 A 
BRANCH  21  24
HETATM   24  O   UNL     1     -42.915  60.796 -59.457  1.00  0.00    -0.276 OA
BRANCH  24  25
HETATM   25  C   UNL     1     -42.542  59.907 -60.454  1.00  0.00     0.288 C 
HETATM   26  O   UNL     1     -41.683  60.075 -61.307  1.00  0.00    -0.260 OA
BRANCH  25  27
HETATM   27  C   UNL     1     -43.305  58.646 -60.339  1.00  0.00     0.085 C 
HETATM   28  C   UNL     1     -42.743  57.441 -60.161  1.00  0.00     0.043 C 
BRANCH  28  29
HETATM   29  C   UNL     1     -43.535  56.261 -60.137  1.00  0.00     0.075 A 
HETATM   30  O   UNL     1     -44.332  55.841 -61.178  1.00  0.00    -0.323 OA
HETATM   31  C   UNL     1     -44.918  54.672 -60.825  1.00  0.00     0.142 A 
HETATM   32  C   UNL     1     -44.531  54.304 -59.563  1.00  0.00     0.027 A 
HETATM   33  C   UNL     1     -43.650  55.319 -59.120  1.00  0.00     0.039 A 
ENDBRANCH  28  29
ENDBRANCH  25  27
ENDBRANCH  24  25
ENDBRANCH  21  24
ENDBRANCH   9  18
BRANCH   1  34
HETATM   34  C   UNL     1     -39.910  52.985 -51.084  1.00  0.00     0.273 C 
BRANCH  34  35
HETATM   35  C   UNL     1     -39.787  51.815 -52.020  1.00  0.00    -0.033 A 
HETATM   36  C   UNL     1     -39.814  52.018 -53.411  1.00  0.00     0.009 A 
HETATM   37  C   UNL     1     -39.731  50.935 -54.287  1.00  0.00     0.001 A 
HETATM   38  C   UNL     1     -39.617  49.641 -53.787  1.00  0.00     0.000 A 
HETATM   39  C   UNL     1     -39.577  49.426 -52.412  1.00  0.00     0.001 A 
HETATM   40  C   UNL     1     -39.659  50.507 -51.531  1.00  0.00     0.009 A 
ENDBRANCH  34  35
ENDBRANCH   1  34
TORSDOF 7
ENDMDL
MODEL 2
REMARK VINA RESULT:      -9.6      2.224      2.963
REMARK  7 active torsions:
REMARK  status: ('A' for Active; 'I' for Inactive)
REMARK    1  A    between atoms: C_4  and  C_5 
REMARK    2  A    between atoms: C_5  and  N_6 
REMARK    3  A    between atoms: C_14  and  C_15 
REMARK    4  A    between atoms: C_18  and  O_19 
REMARK    5  A    between atoms: O_19  and  C_20 
REMARK    6  A    between atoms: C_20  and  C_21 
REMARK    7  A    between atoms: C_22  and  C_23 
ROOT
HETATM    1  N   UNL     1     -40.611  53.722 -50.675  1.00  0.00    -0.063 N 
HETATM    2  H   UNL     1     -40.288  53.962 -51.619  1.00  0.00     0.280 HD
HETATM    3  C   UNL     1     -42.118  53.941 -50.703  1.00  0.00     0.282 C 
HETATM    4  C   UNL     1     -42.416  55.389 -50.894  1.00  0.00     0.018 A 
HETATM    5  C   UNL     1     -41.509  56.417 -50.705  1.00  0.00    -0.023 A 
HETATM    6  C   UNL     1     -42.105  57.687 -50.987  1.00  0.00     0.073 A 
HETATM    7  C   UNL     1     -43.441  57.568 -51.283  1.00  0.00     0.088 A 
HETATM    8  N   UNL     1     -44.245  58.622 -51.523  1.00  0.00    -0.358 N 
HETATM    9  C   UNL     1     -43.672  59.923 -51.808  1.00  0.00     0.219 C 
HETATM   10  N   UNL     1     -42.325  60.039 -51.312  1.00  0.00    -0.332 N 
HETATM   11  C   UNL     1     -41.499  59.005 -50.979  1.00  0.00     0.256 C 
HETATM   12  O   UNL     1     -40.318  59.184 -50.701  1.00  0.00    -0.267 OA
HETATM   13  S   UNL     1     -43.964  55.951 -51.321  1.00  0.00    -0.074 SA
HETATM   14  C   UNL     1     -40.094  56.150 -50.282  1.00  0.00     0.068 C 
HETATM   15  C   UNL     1     -39.930  54.715 -49.740  1.00  0.00     0.240 C 
HETATM   16  H   UNL     1     -45.163  58.469 -51.930  1.00  0.00     0.162 HD
HETATM   17  H   UNL     1     -41.881  60.944 -51.364  1.00  0.00     0.165 HD
ENDROOT
BRANCH   9  18
HETATM   18  C   UNL     1     -43.787  60.218 -53.292  1.00  0.00    -0.016 A 
HETATM   19  C   UNL     1     -44.953  59.847 -53.986  1.00  0.00     0.014 A 
HETATM   20  C   UNL     1     -45.043  60.014 -55.369  1.00  0.00     0.038 A 
HETATM   21  C   UNL     1     -43.969  60.559 -56.070  1.00  0.00     0.079 A 
HETATM   22  C   UNL     1     -42.807  60.942 -55.405  1.00  0.00     0.038 A 
HETATM   23  C   UNL     1     -42.722  60.779 -54.021  1.00  0.00     0.014 A 
BRANCH  21  24
HETATM   24  O   UNL     1     -44.087  60.551 -57.475  1.00  0.00    -0.276 OA
BRANCH  24  25
HETATM   25  C   UNL     1     -43.652  59.483 -58.245  1.00  0.00     0.288 C 
HETATM   26  O   UNL     1     -43.804  59.335 -59.449  1.00  0.00    -0.260 OA
BRANCH  25  27
HETATM   27  C   UNL     1     -42.902  58.515 -57.417  1.00  0.00     0.085 C 
HETATM   28  C   UNL     1     -43.368  57.306 -57.067  1.00  0.00     0.043 C 
BRANCH  28  29
HETATM   29  C   UNL     1     -42.622  56.459 -56.203  1.00  0.00     0.075 A 
HETATM   30  O   UNL     1     -42.353  55.133 -56.462  1.00  0.00    -0.323 OA
HETATM   31  C   UNL     1     -41.600  54.642 -55.448  1.00  0.00     0.142 A 
HETATM   32  C   UNL     1     -41.365  55.616 -54.512  1.00  0.00     0.027 A 
HETATM   33  C   UNL     1     -42.019  56.776 -54.991  1.00  0.00     0.039 A 
ENDBRANCH  28  29
ENDBRANCH  25  27
ENDBRANCH  24  25
ENDBRANCH  21  24
ENDBRANCH   9  18
BRANCH   1  34
HETATM   34  C   UNL     1     -40.206  52.284 -50.467  1.00  0.00     0.273 C 
BRANCH  34  35
HETATM   35  C   UNL     1     -39.961  51.483 -51.717  1.00  0.00    -0.033 A 
HETATM   36  C   UNL     1     -40.050  52.098 -52.978  1.00  0.00     0.009 A 
HETATM   37  C   UNL     1     -39.854  51.357 -54.144  1.00  0.00     0.001 A 
HETATM   38  C   UNL     1     -39.564  49.997 -54.064  1.00  0.00     0.000 A 
HETATM   39  C   UNL     1     -39.460  49.378 -52.821  1.00  0.00     0.001 A 
HETATM   40  C   UNL     1     -39.655  50.116 -51.652  1.00  0.00     0.009 A 
ENDBRANCH  34  35
ENDBRANCH   1  34
TORSDOF 7
ENDMDL
MODEL 3
REMARK VINA RESULT:      -9.6      3.461      9.951
REMARK  7 active torsions:
REMARK  status: ('A' for Active; 'I' for Inactive)
REMARK    1  A    between atoms: C_4  and  C_5 
REMARK    2  A    between atoms: C_5  and  N_6 
REMARK    3  A    between atoms: C_14  and  C_15 
REMARK    4  A    between atoms: C_18  and  O_19 
REMARK    5  A    between atoms: O_19  and  C_20 
REMARK    6  A    between atoms: C_20  and  C_21 
REMARK    7  A    between atoms: C_22  and  C_23 
ROOT
HETATM    1  N   UNL     1     -41.884  60.949 -60.408  1.00  0.00    -0.063 N 
HETATM    2  H   UNL     1     -41.044  60.767 -59.846  1.00  0.00     0.280 HD
HETATM    3  C   UNL     1     -42.983  61.241 -59.394  1.00  0.00     0.282 C 
HETATM    4  C   UNL     1     -43.270  60.017 -58.592  1.00  0.00     0.018 A 
HETATM    5  C   UNL     1     -42.885  58.734 -58.938  1.00  0.00    -0.023 A 
HETATM    6  C   UNL     1     -43.301  57.787 -57.948  1.00  0.00     0.073 A 
HETATM    7  C   UNL     1     -44.048  58.380 -56.959  1.00  0.00     0.088 A 
HETATM    8  N   UNL     1     -44.613  57.697 -55.945  1.00  0.00    -0.358 N 
HETATM    9  C   UNL     1     -44.185  56.341 -55.656  1.00  0.00     0.219 C 
HETATM   10  N   UNL     1     -43.565  55.717 -56.795  1.00  0.00    -0.332 N 
HETATM   11  C   UNL     1     -43.051  56.360 -57.884  1.00  0.00     0.256 C 
HETATM   12  O   UNL     1     -42.412  55.765 -58.745  1.00  0.00    -0.267 OA
HETATM   13  S   UNL     1     -44.176  60.065 -57.153  1.00  0.00    -0.074 SA
HETATM   14  C   UNL     1     -42.113  58.455 -60.195  1.00  0.00     0.068 C 
HETATM   15  C   UNL     1     -42.163  59.655 -61.163  1.00  0.00     0.240 C 
HETATM   16  H   UNL     1     -44.978  58.202 -55.144  1.00  0.00     0.162 HD
HETATM   17  H   UNL     1     -43.335  54.737 -56.727  1.00  0.00     0.165 HD
ENDROOT
BRANCH   9  18
HETATM   18  C   UNL     1     -43.303  56.336 -54.421  1.00  0.00    -0.016 A 
HETATM   19  C   UNL     1     -41.936  56.031 -54.546  1.00  0.00     0.014 A 
HETATM   20  C   UNL     1     -41.124  55.919 -53.415  1.00  0.00     0.038 A 
HETATM   21  C   UNL     1     -41.673  56.117 -52.149  1.00  0.00     0.079 A 
HETATM   22  C   UNL     1     -43.021  56.428 -52.000  1.00  0.00     0.038 A 
HETATM   23  C   UNL     1     -43.829  56.545 -53.133  1.00  0.00     0.014 A 
BRANCH  21  24
HETATM   24  O   UNL     1     -40.820  55.836 -51.062  1.00  0.00    -0.276 OA
BRANCH  24  25
HETATM   25  C   UNL     1     -41.004  54.730 -50.247  1.00  0.00     0.288 C 
HETATM   26  O   UNL     1     -41.247  54.730 -49.049  1.00  0.00    -0.260 OA
BRANCH  25  27
HETATM   27  C   UNL     1     -40.917  53.482 -51.036  1.00  0.00     0.085 C 
HETATM   28  C   UNL     1     -39.767  52.953 -51.481  1.00  0.00     0.043 C 
BRANCH  28  29
HETATM   29  C   UNL     1     -39.767  51.791 -52.300  1.00  0.00     0.075 A 
HETATM   30  O   UNL     1     -39.542  50.515 -51.835  1.00  0.00    -0.323 OA
HETATM   31  C   UNL     1     -39.643  49.654 -52.877  1.00  0.00     0.142 A 
HETATM   32  C   UNL     1     -39.927  50.334 -54.033  1.00  0.00     0.027 A 
HETATM   33  C   UNL     1     -40.004  51.699 -53.668  1.00  0.00     0.039 A 
ENDBRANCH  28  29
ENDBRANCH  25  27
ENDBRANCH  24  25
ENDBRANCH  21  24
ENDBRANCH   9  18
BRANCH   1  34
HETATM   34  C   UNL     1     -41.533  62.125 -61.284  1.00  0.00     0.273 C 
BRANCH  34  35
HETATM   35  C   UNL     1     -40.302  62.895 -60.889  1.00  0.00    -0.033 A 
HETATM   36  C   UNL     1     -40.051  63.178 -59.534  1.00  0.00     0.009 A 
HETATM   37  C   UNL     1     -38.929  63.917 -59.161  1.00  0.00     0.001 A 
HETATM   38  C   UNL     1     -38.044  64.379 -60.132  1.00  0.00     0.000 A 
HETATM   39  C   UNL     1     -38.274  64.096 -61.475  1.00  0.00     0.001 A 
HETATM   40  C   UNL     1     -39.396  63.356 -61.854  1.00  0.00     0.009 A 
ENDBRANCH  34  35
ENDBRANCH   1  34
TORSDOF 7
ENDMDL
MODEL 4
REMARK VINA RESULT:      -9.1      4.111      9.265
REMARK  7 active torsions:
REMARK  status: ('A' for Active; 'I' for Inactive)
REMARK    1  A    between atoms: C_4  and  C_5 
REMARK    2  A    between atoms: C_5  and  N_6 
REMARK    3  A    between atoms: C_14  and  C_15 
REMARK    4  A    between atoms: C_18  and  O_19 
REMARK    5  A    between atoms: O_19  and  C_20 
REMARK    6  A    between atoms: C_20  and  C_21 
REMARK    7  A    between atoms: C_22  and  C_23 
ROOT
HETATM    1  N   UNL     1     -43.608  61.519 -50.738  1.00  0.00    -0.063 N 
HETATM    2  H   UNL     1     -42.626  61.231 -50.812  1.00  0.00     0.280 HD
HETATM    3  C   UNL     1     -44.382  60.228 -50.500  1.00  0.00     0.282 C 
HETATM    4  C   UNL     1     -44.288  59.353 -51.703  1.00  0.00     0.018 A 
HETATM    5  C   UNL     1     -43.893  59.773 -52.961  1.00  0.00    -0.023 A 
HETATM    6  C   UNL     1     -43.895  58.685 -53.892  1.00  0.00     0.073 A 
HETATM    7  C   UNL     1     -44.373  57.530 -53.323  1.00  0.00     0.088 A 
HETATM    8  N   UNL     1     -44.537  56.380 -54.004  1.00  0.00    -0.358 N 
HETATM    9  C   UNL     1     -43.905  56.205 -55.297  1.00  0.00     0.219 C 
HETATM   10  N   UNL     1     -43.589  57.466 -55.917  1.00  0.00    -0.332 N 
HETATM   11  C   UNL     1     -43.490  58.671 -55.284  1.00  0.00     0.256 C 
HETATM   12  O   UNL     1     -43.077  59.672 -55.859  1.00  0.00    -0.267 OA
HETATM   13  S   UNL     1     -44.727  57.709 -51.669  1.00  0.00    -0.074 SA
HETATM   14  C   UNL     1     -43.504  61.198 -53.228  1.00  0.00     0.068 C 
HETATM   15  C   UNL     1     -43.963  62.130 -52.089  1.00  0.00     0.240 C 
HETATM   16  H   UNL     1     -44.699  55.516 -53.495  1.00  0.00     0.162 HD
HETATM   17  H   UNL     1     -43.248  57.451 -56.867  1.00  0.00     0.165 HD
ENDROOT
BRANCH   9  18
HETATM   18  C   UNL     1     -42.701  55.293 -55.159  1.00  0.00    -0.016 A 
HETATM   19  C   UNL     1     -42.879  53.897 -55.187  1.00  0.00     0.014 A 
HETATM   20  C   UNL     1     -41.804  53.036 -54.960  1.00  0.00     0.038 A 
HETATM   21  C   UNL     1     -40.539  53.563 -54.708  1.00  0.00     0.079 A 
HETATM   22  C   UNL     1     -40.334  54.939 -54.683  1.00  0.00     0.038 A 
HETATM   23  C   UNL     1     -41.411  55.798 -54.916  1.00  0.00     0.014 A 
BRANCH  21  24
HETATM   24  O   UNL     1     -39.549  52.628 -54.341  1.00  0.00    -0.276 OA
BRANCH  24  25
HETATM   25  C   UNL     1     -39.753  51.692 -53.339  1.00  0.00     0.288 C 
HETATM   26  O   UNL     1     -39.843  50.481 -53.470  1.00  0.00    -0.260 OA
BRANCH  25  27
HETATM   27  C   UNL     1     -39.804  52.350 -52.015  1.00  0.00     0.085 C 
HETATM   28  C   UNL     1     -40.919  52.864 -51.474  1.00  0.00     0.043 C 
BRANCH  28  29
HETATM   29  C   UNL     1     -40.878  53.551 -50.231  1.00  0.00     0.075 A 
HETATM   30  O   UNL     1     -40.362  53.021 -49.069  1.00  0.00    -0.323 OA
HETATM   31  C   UNL     1     -40.457  53.954 -48.092  1.00  0.00     0.142 A 
HETATM   32  C   UNL     1     -41.033  55.100 -48.579  1.00  0.00     0.027 A 
HETATM   33  C   UNL     1     -41.304  54.844 -49.943  1.00  0.00     0.039 A 
ENDBRANCH  28  29
ENDBRANCH  25  27
ENDBRANCH  24  25
ENDBRANCH  21  24
ENDBRANCH   9  18
BRANCH   1  34
HETATM   34  C   UNL     1     -43.657  62.483 -49.580  1.00  0.00     0.273 C 
BRANCH  34  35
HETATM   35  C   UNL     1     -44.798  62.297 -48.617  1.00  0.00    -0.033 A 
HETATM   36  C   UNL     1     -44.645  61.466 -47.493  1.00  0.00     0.009 A 
HETATM   37  C   UNL     1     -45.707  61.264 -46.612  1.00  0.00     0.001 A 
HETATM   38  C   UNL     1     -46.930  61.889 -46.838  1.00  0.00     0.000 A 
HETATM   39  C   UNL     1     -47.092  62.725 -47.941  1.00  0.00     0.001 A 
HETATM   40  C   UNL     1     -46.031  62.931 -48.826  1.00  0.00     0.009 A 
ENDBRANCH  34  35
ENDBRANCH   1  34
TORSDOF 7
ENDMDL
MODEL 5
REMARK VINA RESULT:      -9.1      3.358      9.240
REMARK  7 active torsions:
REMARK  status: ('A' for Active; 'I' for Inactive)
REMARK    1  A    between atoms: C_4  and  C_5 
REMARK    2  A    between atoms: C_5  and  N_6 
REMARK    3  A    between atoms: C_14  and  C_15 
REMARK    4  A    between atoms: C_18  and  O_19 
REMARK    5  A    between atoms: O_19  and  C_20 
REMARK    6  A    between atoms: C_20  and  C_21 
REMARK    7  A    between atoms: C_22  and  C_23 
ROOT
HETATM    1  N   UNL     1     -44.974  59.691 -58.426  1.00  0.00    -0.063 N 
HETATM    2  H   UNL     1     -45.197  58.742 -58.106  1.00  0.00     0.280 HD
HETATM    3  C   UNL     1     -43.521  59.914 -58.026  1.00  0.00     0.282 C 
HETATM    4  C   UNL     1     -43.401  59.930 -56.541  1.00  0.00     0.018 A 
HETATM    5  C   UNL     1     -44.458  60.093 -55.662  1.00  0.00    -0.023 A 
HETATM    6  C   UNL     1     -44.009  60.046 -54.303  1.00  0.00     0.073 A 
HETATM    7  C   UNL     1     -42.642  59.942 -54.222  1.00  0.00     0.088 A 
HETATM    8  N   UNL     1     -41.964  59.943 -53.058  1.00  0.00    -0.358 N 
HETATM    9  C   UNL     1     -42.667  59.720 -51.809  1.00  0.00     0.219 C 
HETATM   10  N   UNL     1     -44.071  60.018 -51.920  1.00  0.00    -0.332 N 
HETATM   11  C   UNL     1     -44.785  60.107 -53.080  1.00  0.00     0.256 C 
HETATM   12  O   UNL     1     -46.006  60.223 -53.081  1.00  0.00    -0.267 OA
HETATM   13  S   UNL     1     -41.901  59.805 -55.747  1.00  0.00    -0.074 SA
HETATM   14  C   UNL     1     -45.867  60.267 -56.149  1.00  0.00     0.068 C 
HETATM   15  C   UNL     1     -45.904  60.616 -57.650  1.00  0.00     0.240 C 
HETATM   16  H   UNL     1     -40.988  59.664 -53.047  1.00  0.00     0.162 HD
HETATM   17  H   UNL     1     -44.625  60.000 -51.076  1.00  0.00     0.165 HD
ENDROOT
BRANCH   9  18
HETATM   18  C   UNL     1     -42.395  58.312 -51.314  1.00  0.00    -0.016 A 
HETATM   19  C   UNL     1     -43.416  57.346 -51.371  1.00  0.00     0.014 A 
HETATM   20  C   UNL     1     -43.225  56.073 -50.829  1.00  0.00     0.038 A 
HETATM   21  C   UNL     1     -42.008  55.754 -50.230  1.00  0.00     0.079 A 
HETATM   22  C   UNL     1     -40.979  56.689 -50.170  1.00  0.00     0.038 A 
HETATM   23  C   UNL     1     -41.171  57.959 -50.717  1.00  0.00     0.014 A 
BRANCH  21  24
HETATM   24  O   UNL     1     -41.955  54.505 -49.579  1.00  0.00    -0.276 OA
BRANCH  24  25
HETATM   25  C   UNL     1     -40.767  53.811 -49.409  1.00  0.00     0.288 C 
HETATM   26  O   UNL     1     -39.927  53.992 -48.540  1.00  0.00    -0.260 OA
BRANCH  25  27
HETATM   27  C   UNL     1     -40.642  52.737 -50.419  1.00  0.00     0.085 C 
HETATM   28  C   UNL     1     -39.824  52.796 -51.481  1.00  0.00     0.043 C 
BRANCH  28  29
HETATM   29  C   UNL     1     -39.814  51.759 -52.453  1.00  0.00     0.075 A 
HETATM   30  O   UNL     1     -39.526  50.441 -52.176  1.00  0.00    -0.323 OA
HETATM   31  C   UNL     1     -39.636  49.728 -53.323  1.00  0.00     0.142 A 
HETATM   32  C   UNL     1     -39.988  50.547 -54.364  1.00  0.00     0.027 A 
HETATM   33  C   UNL     1     -40.100  51.845 -53.811  1.00  0.00     0.039 A 
ENDBRANCH  28  29
ENDBRANCH  25  27
ENDBRANCH  24  25
ENDBRANCH  21  24
ENDBRANCH   9  18
BRANCH   1  34
HETATM   34  C   UNL     1     -45.203  59.676 -59.916  1.00  0.00     0.273 C 
BRANCH  34  35
HETATM   35  C   UNL     1     -46.076  58.567 -60.436  1.00  0.00    -0.033 A 
HETATM   36  C   UNL     1     -47.236  58.869 -61.172  1.00  0.00     0.009 A 
HETATM   37  C   UNL     1     -48.069  57.848 -61.632  1.00  0.00     0.001 A 
HETATM   38  C   UNL     1     -47.752  56.518 -61.368  1.00  0.00     0.000 A 
HETATM   39  C   UNL     1     -46.600  56.205 -60.652  1.00  0.00     0.001 A 
HETATM   40  C   UNL     1     -45.763  57.223 -60.189  1.00  0.00     0.009 A 
ENDBRANCH  34  35
ENDBRANCH   1  34
TORSDOF 7
ENDMDL
MODEL 6
REMARK VINA RESULT:      -9.1      1.544      2.081
REMARK  7 active torsions:
REMARK  status: ('A' for Active; 'I' for Inactive)
REMARK    1  A    between atoms: C_4  and  C_5 
REMARK    2  A    between atoms: C_5  and  N_6 
REMARK    3  A    between atoms: C_14  and  C_15 
REMARK    4  A    between atoms: C_18  and  O_19 
REMARK    5  A    between atoms: O_19  and  C_20 
REMARK    6  A    between atoms: C_20  and  C_21 
REMARK    7  A    between atoms: C_22  and  C_23 
ROOT
HETATM    1  N   UNL     1     -42.064  55.445 -51.794  1.00  0.00    -0.063 N 
HETATM    2  H   UNL     1     -41.255  55.618 -52.401  1.00  0.00     0.280 HD
HETATM    3  C   UNL     1     -43.276  55.536 -52.714  1.00  0.00     0.282 C 
HETATM    4  C   UNL     1     -43.421  56.930 -53.223  1.00  0.00     0.018 A 
HETATM    5  C   UNL     1     -42.804  58.042 -52.678  1.00  0.00    -0.023 A 
HETATM    6  C   UNL     1     -43.137  59.226 -53.410  1.00  0.00     0.073 A 
HETATM    7  C   UNL     1     -44.050  58.970 -54.404  1.00  0.00     0.088 A 
HETATM    8  N   UNL     1     -44.575  59.926 -55.194  1.00  0.00    -0.358 N 
HETATM    9  C   UNL     1     -43.955  61.236 -55.259  1.00  0.00     0.219 C 
HETATM   10  N   UNL     1     -43.150  61.508 -54.097  1.00  0.00    -0.332 N 
HETATM   11  C   UNL     1     -42.661  60.583 -53.222  1.00  0.00     0.256 C 
HETATM   12  O   UNL     1     -41.865  60.884 -52.339  1.00  0.00    -0.267 OA
HETATM   13  S   UNL     1     -44.437  57.319 -54.531  1.00  0.00    -0.074 SA
HETATM   14  C   UNL     1     -41.897  57.934 -51.487  1.00  0.00     0.068 C 
HETATM   15  C   UNL     1     -42.065  56.577 -50.774  1.00  0.00     0.240 C 
HETATM   16  H   UNL     1     -45.083  59.659 -56.032  1.00  0.00     0.162 HD
HETATM   17  H   UNL     1     -42.767  62.437 -53.998  1.00  0.00     0.165 HD
ENDROOT
BRANCH   9  18
HETATM   18  C   UNL     1     -43.188  61.374 -56.560  1.00  0.00    -0.016 A 
HETATM   19  C   UNL     1     -43.731  62.139 -57.609  1.00  0.00     0.014 A 
HETATM   20  C   UNL     1     -43.095  62.200 -58.851  1.00  0.00     0.038 A 
HETATM   21  C   UNL     1     -41.908  61.499 -59.053  1.00  0.00     0.079 A 
HETATM   22  C   UNL     1     -41.346  60.742 -58.030  1.00  0.00     0.038 A 
HETATM   23  C   UNL     1     -41.981  60.688 -56.787  1.00  0.00     0.014 A 
BRANCH  21  24
HETATM   24  O   UNL     1     -41.418  61.494 -60.375  1.00  0.00    -0.276 OA
BRANCH  24  25
HETATM   25  C   UNL     1     -42.036  60.776 -61.388  1.00  0.00     0.288 C 
HETATM   26  O   UNL     1     -42.366  61.191 -62.489  1.00  0.00    -0.260 OA
BRANCH  25  27
HETATM   27  C   UNL     1     -42.219  59.364 -60.988  1.00  0.00     0.085 C 
HETATM   28  C   UNL     1     -43.405  58.817 -60.683  1.00  0.00     0.043 C 
BRANCH  28  29
HETATM   29  C   UNL     1     -43.495  57.472 -60.231  1.00  0.00     0.075 A 
HETATM   30  O   UNL     1     -44.443  56.571 -60.663  1.00  0.00    -0.323 OA
HETATM   31  C   UNL     1     -44.217  55.384 -60.051  1.00  0.00     0.142 A 
HETATM   32  C   UNL     1     -43.135  55.475 -59.214  1.00  0.00     0.027 A 
HETATM   33  C   UNL     1     -42.674  56.808 -59.326  1.00  0.00     0.039 A 
ENDBRANCH  28  29
ENDBRANCH  25  27
ENDBRANCH  24  25
ENDBRANCH  21  24
ENDBRANCH   9  18
BRANCH   1  34
HETATM   34  C   UNL     1     -41.842  54.072 -51.211  1.00  0.00     0.273 C 
BRANCH  34  35
HETATM   35  C   UNL     1     -40.961  53.153 -52.012  1.00  0.00    -0.033 A 
HETATM   36  C   UNL     1     -41.059  53.125 -53.414  1.00  0.00     0.009 A 
HETATM   37  C   UNL     1     -40.267  52.254 -54.163  1.00  0.00     0.001 A 
HETATM   38  C   UNL     1     -39.368  51.405 -53.523  1.00  0.00     0.000 A 
HETATM   39  C   UNL     1     -39.251  51.431 -52.136  1.00  0.00     0.001 A 
HETATM   40  C   UNL     1     -40.041  52.302 -51.382  1.00  0.00     0.009 A 
ENDBRANCH  34  35
ENDBRANCH   1  34
TORSDOF 7
ENDMDL
MODEL 7
REMARK VINA RESULT:      -9.0      4.762      6.746
REMARK  7 active torsions:
REMARK  status: ('A' for Active; 'I' for Inactive)
REMARK    1  A    between atoms: C_4  and  C_5 
REMARK    2  A    between atoms: C_5  and  N_6 
REMARK    3  A    between atoms: C_14  and  C_15 
REMARK    4  A    between atoms: C_18  and  O_19 
REMARK    5  A    between atoms: O_19  and  C_20 
REMARK    6  A    between atoms: C_20  and  C_21 
REMARK    7  A    between atoms: C_22  and  C_23 
ROOT
HETATM    1  N   UNL     1     -42.318  55.126 -54.105  1.00  0.00    -0.063 N 
HETATM    2  H   UNL     1     -42.986  55.545 -54.761  1.00  0.00     0.280 HD
HETATM    3  C   UNL     1     -43.013  55.170 -52.750  1.00  0.00     0.282 C 
HETATM    4  C   UNL     1     -43.194  56.586 -52.319  1.00  0.00     0.018 A 
HETATM    5  C   UNL     1     -42.524  57.670 -52.858  1.00  0.00    -0.023 A 
HETATM    6  C   UNL     1     -42.936  58.891 -52.235  1.00  0.00     0.073 A 
HETATM    7  C   UNL     1     -43.820  58.666 -51.208  1.00  0.00     0.088 A 
HETATM    8  N   UNL     1     -44.309  59.643 -50.421  1.00  0.00    -0.358 N 
HETATM    9  C   UNL     1     -44.188  61.030 -50.826  1.00  0.00     0.219 C 
HETATM   10  N   UNL     1     -43.123  61.223 -51.776  1.00  0.00    -0.332 N 
HETATM   11  C   UNL     1     -42.540  60.253 -52.538  1.00  0.00     0.256 C 
HETATM   12  O   UNL     1     -41.739  60.522 -53.426  1.00  0.00    -0.267 OA
HETATM   13  S   UNL     1     -44.231  57.024 -51.044  1.00  0.00    -0.074 SA
HETATM   14  C   UNL     1     -41.525  57.506 -53.967  1.00  0.00     0.068 C 
HETATM   15  C   UNL     1     -41.094  56.034 -54.123  1.00  0.00     0.240 C 
HETATM   16  H   UNL     1     -45.102  59.449 -49.817  1.00  0.00     0.162 HD
HETATM   17  H   UNL     1     -42.888  62.170 -52.034  1.00  0.00     0.165 HD
ENDROOT
BRANCH   9  18
HETATM   18  C   UNL     1     -45.528  61.536 -51.324  1.00  0.00    -0.016 A 
HETATM   19  C   UNL     1     -45.972  61.178 -52.610  1.00  0.00     0.014 A 
HETATM   20  C   UNL     1     -47.153  61.711 -53.131  1.00  0.00     0.038 A 
HETATM   21  C   UNL     1     -47.903  62.604 -52.368  1.00  0.00     0.079 A 
HETATM   22  C   UNL     1     -47.490  62.968 -51.090  1.00  0.00     0.038 A 
HETATM   23  C   UNL     1     -46.312  62.428 -50.569  1.00  0.00     0.014 A 
BRANCH  21  24
HETATM   24  O   UNL     1     -48.993  63.207 -53.028  1.00  0.00    -0.276 OA
BRANCH  24  25
HETATM   25  C   UNL     1     -50.298  62.776 -52.840  1.00  0.00     0.288 C 
HETATM   26  O   UNL     1     -50.984  62.923 -51.839  1.00  0.00    -0.260 OA
BRANCH  25  27
HETATM   27  C   UNL     1     -50.814  62.129 -54.065  1.00  0.00     0.085 C 
HETATM   28  C   UNL     1     -51.993  61.492 -54.139  1.00  0.00     0.043 C 
BRANCH  28  29
HETATM   29  C   UNL     1     -52.389  60.825 -55.329  1.00  0.00     0.075 A 
HETATM   30  O   UNL     1     -53.695  60.527 -55.653  1.00  0.00    -0.323 OA
HETATM   31  C   UNL     1     -53.709  59.920 -56.864  1.00  0.00     0.142 A 
HETATM   32  C   UNL     1     -52.434  59.803 -57.355  1.00  0.00     0.027 A 
HETATM   33  C   UNL     1     -51.590  60.378 -56.376  1.00  0.00     0.039 A 
ENDBRANCH  28  29
ENDBRANCH  25  27
ENDBRANCH  24  25
ENDBRANCH  21  24
ENDBRANCH   9  18
BRANCH   1  34
HETATM   34  C   UNL     1     -42.073  53.730 -54.620  1.00  0.00     0.273 C 
BRANCH  34  35
HETATM   35  C   UNL     1     -41.119  52.890 -53.815  1.00  0.00    -0.033 A 
HETATM   36  C   UNL     1     -40.826  53.234 -52.484  1.00  0.00     0.009 A 
HETATM   37  C   UNL     1     -39.920  52.479 -51.739  1.00  0.00     0.001 A 
HETATM   38  C   UNL     1     -39.301  51.370 -52.311  1.00  0.00     0.000 A 
HETATM   39  C   UNL     1     -39.592  51.010 -53.625  1.00  0.00     0.001 A 
HETATM   40  C   UNL     1     -40.498  51.764 -54.374  1.00  0.00     0.009 A 
ENDBRANCH  34  35
ENDBRANCH   1  34
TORSDOF 7
ENDMDL
MODEL 8
REMARK VINA RESULT:      -8.8      3.125      8.424
REMARK  7 active torsions:
REMARK  status: ('A' for Active; 'I' for Inactive)
REMARK    1  A    between atoms: C_4  and  C_5 
REMARK    2  A    between atoms: C_5  and  N_6 
REMARK    3  A    between atoms: C_14  and  C_15 
REMARK    4  A    between atoms: C_18  and  O_19 
REMARK    5  A    between atoms: O_19  and  C_20 
REMARK    6  A    between atoms: C_20  and  C_21 
REMARK    7  A    between atoms: C_22  and  C_23 
ROOT
HETATM    1  N   UNL     1     -44.024  58.406 -57.059  1.00  0.00    -0.063 N 
HETATM    2  H   UNL     1     -44.124  57.390 -56.956  1.00  0.00     0.280 HD
HETATM    3  C   UNL     1     -42.636  58.725 -56.519  1.00  0.00     0.282 C 
HETATM    4  C   UNL     1     -42.585  58.443 -55.056  1.00  0.00     0.018 A 
HETATM    5  C   UNL     1     -43.690  58.279 -54.241  1.00  0.00    -0.023 A 
HETATM    6  C   UNL     1     -43.299  58.004 -52.891  1.00  0.00     0.073 A 
HETATM    7  C   UNL     1     -41.935  58.063 -52.735  1.00  0.00     0.088 A 
HETATM    8  N   UNL     1     -41.317  57.906 -51.549  1.00  0.00    -0.358 N 
HETATM    9  C   UNL     1     -42.035  57.336 -50.426  1.00  0.00     0.219 C 
HETATM   10  N   UNL     1     -43.460  57.466 -50.575  1.00  0.00    -0.332 N 
HETATM   11  C   UNL     1     -44.129  57.705 -51.740  1.00  0.00     0.256 C 
HETATM   12  O   UNL     1     -45.352  57.659 -51.806  1.00  0.00    -0.267 OA
HETATM   13  S   UNL     1     -41.118  58.348 -54.199  1.00  0.00    -0.074 SA
HETATM   14  C   UNL     1     -45.088  58.368 -54.783  1.00  0.00     0.068 C 
HETATM   15  C   UNL     1     -45.108  59.018 -56.180  1.00  0.00     0.240 C 
HETATM   16  H   UNL     1     -40.312  57.760 -51.525  1.00  0.00     0.162 HD
HETATM   17  H   UNL     1     -44.042  57.199 -49.794  1.00  0.00     0.165 HD
ENDROOT
BRANCH   9  18
HETATM   18  C   UNL     1     -41.588  55.902 -50.209  1.00  0.00    -0.016 A 
HETATM   19  C   UNL     1     -40.220  55.618 -50.044  1.00  0.00     0.014 A 
HETATM   20  C   UNL     1     -39.773  54.298 -49.945  1.00  0.00     0.038 A 
HETATM   21  C   UNL     1     -40.691  53.252 -50.005  1.00  0.00     0.079 A 
HETATM   22  C   UNL     1     -42.050  53.507 -50.158  1.00  0.00     0.038 A 
HETATM   23  C   UNL     1     -42.496  54.828 -50.251  1.00  0.00     0.014 A 
BRANCH  21  24
HETATM   24  O   UNL     1     -40.139  51.955 -50.049  1.00  0.00    -0.276 OA
BRANCH  24  25
HETATM   25  C   UNL     1     -39.879  51.305 -51.246  1.00  0.00     0.288 C 
HETATM   26  O   UNL     1     -39.206  50.298 -51.405  1.00  0.00    -0.260 OA
BRANCH  25  27
HETATM   27  C   UNL     1     -40.584  51.970 -52.363  1.00  0.00     0.085 C 
HETATM   28  C   UNL     1     -40.061  52.965 -53.096  1.00  0.00     0.043 C 
BRANCH  28  29
HETATM   29  C   UNL     1     -40.826  53.609 -54.105  1.00  0.00     0.075 A 
HETATM   30  O   UNL     1     -42.188  53.468 -54.254  1.00  0.00    -0.323 OA
HETATM   31  C   UNL     1     -42.589  54.241 -55.291  1.00  0.00     0.142 A 
HETATM   32  C   UNL     1     -41.518  54.895 -55.843  1.00  0.00     0.027 A 
HETATM   33  C   UNL     1     -40.391  54.491 -55.089  1.00  0.00     0.039 A 
ENDBRANCH  28  29
ENDBRANCH  25  27
ENDBRANCH  24  25
ENDBRANCH  21  24
ENDBRANCH   9  18
BRANCH   1  34
HETATM   34  C   UNL     1     -44.183  58.676 -58.534  1.00  0.00     0.273 C 
BRANCH  34  35
HETATM   35  C   UNL     1     -44.860  57.595 -59.332  1.00  0.00    -0.033 A 
HETATM   36  C   UNL     1     -44.092  56.631 -60.008  1.00  0.00     0.009 A 
HETATM   37  C   UNL     1     -44.710  55.643 -60.774  1.00  0.00     0.001 A 
HETATM   38  C   UNL     1     -46.098  55.603 -60.872  1.00  0.00     0.000 A 
HETATM   39  C   UNL     1     -46.872  56.544 -60.198  1.00  0.00     0.001 A 
HETATM   40  C   UNL     1     -46.258  57.535 -59.428  1.00  0.00     0.009 A 
ENDBRANCH  34  35
ENDBRANCH   1  34
TORSDOF 7
ENDMDL
MODEL 9
REMARK VINA RESULT:      -8.8     16.434     20.699
REMARK  7 active torsions:
REMARK  status: ('A' for Active; 'I' for Inactive)
REMARK    1  A    between atoms: C_4  and  C_5 
REMARK    2  A    between atoms: C_5  and  N_6 
REMARK    3  A    between atoms: C_14  and  C_15 
REMARK    4  A    between atoms: C_18  and  O_19 
REMARK    5  A    between atoms: O_19  and  C_20 
REMARK    6  A    between atoms: C_20  and  C_21 
REMARK    7  A    between atoms: C_22  and  C_23 
ROOT
HETATM    1  N   UNL     1     -37.470  39.624 -59.237  1.00  0.00    -0.063 N 
HETATM    2  H   UNL     1     -37.314  38.779 -58.677  1.00  0.00     0.280 HD
HETATM    3  C   UNL     1     -36.225  40.475 -59.026  1.00  0.00     0.282 C 
HETATM    4  C   UNL     1     -36.151  40.920 -57.605  1.00  0.00     0.018 A 
HETATM    5  C   UNL     1     -37.205  40.892 -56.709  1.00  0.00    -0.023 A 
HETATM    6  C   UNL     1     -36.801  41.372 -55.422  1.00  0.00     0.073 A 
HETATM    7  C   UNL     1     -35.501  41.818 -55.431  1.00  0.00     0.088 A 
HETATM    8  N   UNL     1     -34.901  42.377 -54.363  1.00  0.00    -0.358 N 
HETATM    9  C   UNL     1     -35.488  42.236 -53.044  1.00  0.00     0.219 C 
HETATM   10  N   UNL     1     -36.895  41.940 -53.109  1.00  0.00    -0.332 N 
HETATM   11  C   UNL     1     -37.565  41.448 -54.192  1.00  0.00     0.256 C 
HETATM   12  O   UNL     1     -38.735  41.089 -54.122  1.00  0.00    -0.267 OA
HETATM   13  S   UNL     1     -34.735  41.582 -56.931  1.00  0.00    -0.074 SA
HETATM   14  C   UNL     1     -38.562  40.387 -57.106  1.00  0.00     0.068 C 
HETATM   15  C   UNL     1     -38.701  40.295 -58.639  1.00  0.00     0.240 C 
HETATM   16  H   UNL     1     -33.893  42.501 -54.363  1.00  0.00     0.162 HD
HETATM   17  H   UNL     1     -37.415  41.933 -52.244  1.00  0.00     0.165 HD
ENDROOT
BRANCH   9  18
HETATM   18  C   UNL     1     -34.702  41.215 -52.242  1.00  0.00    -0.016 A 
HETATM   19  C   UNL     1     -34.079  41.605 -51.042  1.00  0.00     0.014 A 
HETATM   20  C   UNL     1     -33.267  40.713 -50.338  1.00  0.00     0.038 A 
HETATM   21  C   UNL     1     -33.075  39.422 -50.826  1.00  0.00     0.079 A 
HETATM   22  C   UNL     1     -33.688  39.009 -52.005  1.00  0.00     0.038 A 
HETATM   23  C   UNL     1     -34.504  39.901 -52.704  1.00  0.00     0.014 A 
BRANCH  21  24
HETATM   24  O   UNL     1     -32.124  38.642 -50.136  1.00  0.00    -0.276 OA
BRANCH  24  25
HETATM   25  C   UNL     1     -32.484  37.764 -49.126  1.00  0.00     0.288 C 
HETATM   26  O   UNL     1     -33.047  36.687 -49.253  1.00  0.00    -0.260 OA
BRANCH  25  27
HETATM   27  C   UNL     1     -32.045  38.276 -47.809  1.00  0.00     0.085 C 
HETATM   28  C   UNL     1     -31.224  39.325 -47.647  1.00  0.00     0.043 C 
BRANCH  28  29
HETATM   29  C   UNL     1     -30.782  39.713 -46.353  1.00  0.00     0.075 A 
HETATM   30  O   UNL     1     -31.132  39.066 -45.189  1.00  0.00    -0.323 OA
HETATM   31  C   UNL     1     -30.513  39.683 -44.153  1.00  0.00     0.142 A 
HETATM   32  C   UNL     1     -29.758  40.734 -44.604  1.00  0.00     0.027 A 
HETATM   33  C   UNL     1     -29.930  40.757 -46.008  1.00  0.00     0.039 A 
ENDBRANCH  28  29
ENDBRANCH  25  27
ENDBRANCH  24  25
ENDBRANCH  21  24
ENDBRANCH   9  18
BRANCH   1  34
HETATM   34  C   UNL     1     -37.645  39.138 -60.654  1.00  0.00     0.273 C 
BRANCH  34  35
HETATM   35  C   UNL     1     -38.860  38.291 -60.914  1.00  0.00    -0.033 A 
HETATM   36  C   UNL     1     -39.439  37.548 -59.870  1.00  0.00     0.009 A 
HETATM   37  C   UNL     1     -40.548  36.736 -60.108  1.00  0.00     0.001 A 
HETATM   38  C   UNL     1     -41.094  36.658 -61.387  1.00  0.00     0.000 A 
HETATM   39  C   UNL     1     -40.538  37.398 -62.427  1.00  0.00     0.001 A 
HETATM   40  C   UNL     1     -39.428  38.213 -62.194  1.00  0.00     0.009 A 
ENDBRANCH  34  35
ENDBRANCH   1  34
TORSDOF 7
ENDMDL
MODEL 10
REMARK VINA RESULT:      -8.7     16.570     20.069
REMARK  7 active torsions:
REMARK  status: ('A' for Active; 'I' for Inactive)
REMARK    1  A    between atoms: C_4  and  C_5 
REMARK    2  A    between atoms: C_5  and  N_6 
REMARK    3  A    between atoms: C_14  and  C_15 
REMARK    4  A    between atoms: C_18  and  O_19 
REMARK    5  A    between atoms: O_19  and  C_20 
REMARK    6  A    between atoms: C_20  and  C_21 
REMARK    7  A    between atoms: C_22  and  C_23 
ROOT
HETATM    1  N   UNL     1     -36.399  40.619 -57.894  1.00  0.00    -0.063 N 
HETATM    2  H   UNL     1     -37.359  40.563 -57.537  1.00  0.00     0.280 HD
HETATM    3  C   UNL     1     -35.678  39.427 -57.277  1.00  0.00     0.282 C 
HETATM    4  C   UNL     1     -35.588  39.599 -55.799  1.00  0.00     0.018 A 
HETATM    5  C   UNL     1     -35.783  40.792 -55.126  1.00  0.00    -0.023 A 
HETATM    6  C   UNL     1     -35.642  40.615 -53.713  1.00  0.00     0.073 A 
HETATM    7  C   UNL     1     -35.264  39.333 -53.395  1.00  0.00     0.088 A 
HETATM    8  N   UNL     1     -35.003  38.925 -52.139  1.00  0.00    -0.358 N 
HETATM    9  C   UNL     1     -35.428  39.731 -51.011  1.00  0.00     0.219 C 
HETATM   10  N   UNL     1     -35.638  41.107 -51.380  1.00  0.00    -0.332 N 
HETATM   11  C   UNL     1     -35.827  41.580 -52.646  1.00  0.00     0.256 C 
HETATM   12  O   UNL     1     -36.142  42.745 -52.861  1.00  0.00    -0.267 OA
HETATM   13  S   UNL     1     -35.169  38.320 -54.758  1.00  0.00    -0.074 SA
HETATM   14  C   UNL     1     -36.119  42.061 -55.855  1.00  0.00     0.068 C 
HETATM   15  C   UNL     1     -35.836  41.933 -57.366  1.00  0.00     0.240 C 
HETATM   16  H   UNL     1     -34.926  37.932 -51.941  1.00  0.00     0.162 HD
HETATM   17  H   UNL     1     -35.828  41.769 -50.642  1.00  0.00     0.165 HD
ENDROOT
BRANCH   9  18
HETATM   18  C   UNL     1     -36.644  39.098 -50.360  1.00  0.00    -0.016 A 
HETATM   19  C   UNL     1     -37.766  38.780 -51.146  1.00  0.00     0.014 A 
HETATM   20  C   UNL     1     -38.934  38.292 -50.557  1.00  0.00     0.038 A 
HETATM   21  C   UNL     1     -38.988  38.112 -49.176  1.00  0.00     0.079 A 
HETATM   22  C   UNL     1     -37.888  38.411 -48.377  1.00  0.00     0.038 A 
HETATM   23  C   UNL     1     -36.719  38.894 -48.970  1.00  0.00     0.014 A 
BRANCH  21  24
HETATM   24  O   UNL     1     -40.249  37.761 -48.653  1.00  0.00    -0.276 OA
BRANCH  24  25
HETATM   25  C   UNL     1     -41.249  38.700 -48.447  1.00  0.00     0.288 C 
HETATM   26  O   UNL     1     -42.189  38.948 -49.188  1.00  0.00    -0.260 OA
BRANCH  25  27
HETATM   27  C   UNL     1     -41.074  39.369 -47.140  1.00  0.00     0.085 C 
HETATM   28  C   UNL     1     -41.133  38.738 -45.958  1.00  0.00     0.043 C 
BRANCH  28  29
HETATM   29  C   UNL     1     -41.032  39.460 -44.738  1.00  0.00     0.075 A 
HETATM   30  O   UNL     1     -40.574  38.923 -43.556  1.00  0.00    -0.323 OA
HETATM   31  C   UNL     1     -40.585  39.894 -42.611  1.00  0.00     0.142 A 
HETATM   32  C   UNL     1     -41.046  41.072 -43.141  1.00  0.00     0.027 A 
HETATM   33  C   UNL     1     -41.334  40.796 -44.498  1.00  0.00     0.039 A 
ENDBRANCH  28  29
ENDBRANCH  25  27
ENDBRANCH  24  25
ENDBRANCH  21  24
ENDBRANCH   9  18
BRANCH   1  34
HETATM   34  C   UNL     1     -36.525  40.547 -59.395  1.00  0.00     0.273 C 
BRANCH  34  35
HETATM   35  C   UNL     1     -37.528  39.558 -59.924  1.00  0.00    -0.033 A 
HETATM   36  C   UNL     1     -37.577  39.270 -61.300  1.00  0.00     0.009 A 
HETATM   37  C   UNL     1     -38.523  38.378 -61.803  1.00  0.00     0.001 A 
HETATM   38  C   UNL     1     -39.427  37.761 -60.943  1.00  0.00     0.000 A 
HETATM   39  C   UNL     1     -39.382  38.028 -59.577  1.00  0.00     0.001 A 
HETATM   40  C   UNL     1     -38.436  38.920 -59.067  1.00  0.00     0.009 A 
ENDBRANCH  34  35
ENDBRANCH   1  34
TORSDOF 7
ENDMDL
