MODEL 1
REMARK VINA RESULT:      -8.5      0.000      0.000
REMARK  7 active torsions:
REMARK  status: ('A' for Active; 'I' for Inactive)
REMARK    1  A    between atoms: C_2  and  N_3 
REMARK    2  A    between atoms: C_5  and  C_6 
REMARK    3  A    between atoms: C_6  and  N_7 
REMARK       I    between atoms: N_7  and  C_8 
REMARK    4  A    between atoms: C_8  and  C_9 
REMARK    5  A    between atoms: N_15  and  C_16 
REMARK    6  A    between atoms: C_16  and  C_17 
REMARK       I    between atoms: C_17  and  N_18 
REMARK    7  A    between atoms: N_18  and  C_19 
ROOT
HETATM    1  C   UNL     1     -44.230  58.786 -55.608  1.00  0.00     0.081 C 
HETATM    2  S   UNL     1     -45.358  59.106 -54.354  1.00  0.00    -0.063 SA
HETATM    3  C   UNL     1     -44.301  58.547 -53.153  1.00  0.00     0.116 C 
HETATM    4  C   UNL     1     -43.092  58.143 -53.675  1.00  0.00     0.075 C 
HETATM    5  C   UNL     1     -42.152  57.524 -52.746  1.00  0.00     0.262 C 
HETATM    6  O   UNL     1     -41.029  57.143 -53.071  1.00  0.00    -0.267 OA
HETATM    7  N   UNL     1     -42.651  57.351 -51.460  1.00  0.00    -0.299 N 
HETATM    8  C   UNL     1     -43.862  57.887 -51.070  1.00  0.00     0.214 C 
HETATM    9  N   UNL     1     -44.695  58.488 -51.857  1.00  0.00    -0.235 NA
HETATM   10  C   UNL     1     -42.998  58.363 -55.106  1.00  0.00    -0.021 C 
HETATM   11  C   UNL     1     -41.781  58.064 -55.928  1.00  0.00     0.051 C 
ENDROOT
BRANCH   1  12
HETATM   12  C   UNL     1     -44.726  58.921 -56.970  1.00  0.00     0.259 C 
HETATM   13  N   UNL     1     -45.273  57.801 -57.559  1.00  0.00    -0.354 N 
HETATM   14  H   UNL     1     -44.998  56.904 -57.172  1.00  0.00     0.162 HD
HETATM   15  O   UNL     1     -44.766  59.987 -57.590  1.00  0.00    -0.267 OA
BRANCH  13  16
HETATM   16  C   UNL     1     -45.797  57.817 -58.922  1.00  0.00     0.156 C 
BRANCH  16  17
HETATM   17  C   UNL     1     -44.816  57.352 -60.038  1.00  0.00     0.206 C 
HETATM   18  N   UNL     1     -43.825  56.299 -59.537  1.00  0.00    -0.066 N 
HETATM   19  H   UNL     1     -43.896  56.289 -58.497  1.00  0.00     0.280 HD
HETATM   20  C   UNL     1     -42.433  56.787 -59.856  1.00  0.00     0.235 C 
HETATM   21  C   UNL     1     -42.586  58.289 -59.930  1.00  0.00     0.030 C 
HETATM   22  C   UNL     1     -43.934  58.471 -60.597  1.00  0.00     0.036 C 
BRANCH  18  23
HETATM   23  C   UNL     1     -44.125  54.896 -59.977  1.00  0.00     0.231 C 
HETATM   24  C   UNL     1     -45.041  54.899 -61.186  1.00  0.00     0.034 C 
ENDBRANCH  18  23
ENDBRANCH  16  17
ENDBRANCH  13  16
ENDBRANCH   1  12
BRANCH   7  25
HETATM   25  C   UNL     1     -41.900  56.522 -50.538  1.00  0.00     0.236 C 
BRANCH  25  26
HETATM   26  C   UNL     1     -41.906  55.066 -50.983  1.00  0.00     0.240 C 
HETATM   27  N   UNL     1     -40.643  54.595 -51.293  1.00  0.00    -0.326 N 
HETATM   28  H   UNL     1     -39.855  55.119 -50.914  1.00  0.00     0.169 HD
HETATM   29  O   UNL     1     -42.949  54.419 -50.991  1.00  0.00    -0.271 OA
BRANCH  27  30
HETATM   30  C   UNL     1     -40.332  53.433 -52.026  1.00  0.00     0.036 A 
HETATM   31  C   UNL     1     -39.962  52.225 -51.434  1.00  0.00     0.053 A 
HETATM   32  C   UNL     1     -39.755  51.084 -52.220  1.00  0.00     0.042 A 
HETATM   33 CL   UNL     1     -39.332  49.615 -51.413  1.00  0.00    -0.084 Cl
HETATM   34  C   UNL     1     -39.907  51.133 -53.613  1.00  0.00    -0.040 A 
HETATM   35  C   UNL     1     -39.716  49.918 -54.477  1.00  0.00     0.050 C 
HETATM   36  C   UNL     1     -40.263  52.353 -54.202  1.00  0.00     0.011 A 
HETATM   37  C   UNL     1     -40.477  53.490 -53.415  1.00  0.00     0.030 A 
ENDBRANCH  27  30
ENDBRANCH  25  26
ENDBRANCH   7  25
TORSDOF 7
ENDMDL
MODEL 2
REMARK VINA RESULT:      -8.0      4.199      7.994
REMARK  7 active torsions:
REMARK  status: ('A' for Active; 'I' for Inactive)
REMARK    1  A    between atoms: C_2  and  N_3 
REMARK    2  A    between atoms: C_5  and  C_6 
REMARK    3  A    between atoms: C_6  and  N_7 
REMARK       I    between atoms: N_7  and  C_8 
REMARK    4  A    between atoms: C_8  and  C_9 
REMARK    5  A    between atoms: N_15  and  C_16 
REMARK    6  A    between atoms: C_16  and  C_17 
REMARK       I    between atoms: C_17  and  N_18 
REMARK    7  A    between atoms: N_18  and  C_19 
ROOT
HETATM    1  C   UNL     1     -44.263  60.874 -51.287  1.00  0.00     0.081 C 
HETATM    2  S   UNL     1     -42.641  60.702 -50.756  1.00  0.00    -0.063 SA
HETATM    3  C   UNL     1     -42.249  59.659 -52.032  1.00  0.00     0.116 C 
HETATM    4  C   UNL     1     -43.317  59.452 -52.878  1.00  0.00     0.075 C 
HETATM    5  C   UNL     1     -43.131  58.470 -53.941  1.00  0.00     0.262 C 
HETATM    6  O   UNL     1     -43.990  58.208 -54.780  1.00  0.00    -0.267 OA
HETATM    7  N   UNL     1     -41.908  57.809 -53.898  1.00  0.00    -0.299 N 
HETATM    8  C   UNL     1     -40.903  58.190 -53.031  1.00  0.00     0.214 C 
HETATM    9  N   UNL     1     -41.020  59.093 -52.113  1.00  0.00    -0.235 NA
HETATM   10  C   UNL     1     -44.484  60.232 -52.507  1.00  0.00    -0.021 C 
HETATM   11  C   UNL     1     -45.770  60.243 -53.276  1.00  0.00     0.051 C 
ENDROOT
BRANCH   1  12
HETATM   12  C   UNL     1     -45.166  61.572 -50.384  1.00  0.00     0.259 C 
HETATM   13  N   UNL     1     -44.852  62.874 -50.054  1.00  0.00    -0.354 N 
HETATM   14  H   UNL     1     -43.881  63.147 -50.163  1.00  0.00     0.162 HD
HETATM   15  O   UNL     1     -46.232  61.106 -49.973  1.00  0.00    -0.267 OA
BRANCH  13  16
HETATM   16  C   UNL     1     -45.682  63.669 -49.154  1.00  0.00     0.156 C 
BRANCH  16  17
HETATM   17  C   UNL     1     -45.367  63.536 -47.635  1.00  0.00     0.206 C 
HETATM   18  N   UNL     1     -45.944  62.254 -47.033  1.00  0.00    -0.066 N 
HETATM   19  H   UNL     1     -46.606  61.862 -47.737  1.00  0.00     0.280 HD
HETATM   20  C   UNL     1     -46.786  62.641 -45.841  1.00  0.00     0.235 C 
HETATM   21  C   UNL     1     -47.194  64.066 -46.136  1.00  0.00     0.030 C 
HETATM   22  C   UNL     1     -45.955  64.659 -46.778  1.00  0.00     0.036 C 
BRANCH  18  23
HETATM   23  C   UNL     1     -44.937  61.171 -46.777  1.00  0.00     0.231 C 
HETATM   24  C   UNL     1     -44.650  61.049 -45.292  1.00  0.00     0.034 C 
ENDBRANCH  18  23
ENDBRANCH  16  17
ENDBRANCH  13  16
ENDBRANCH   1  12
BRANCH   7  25
HETATM   25  C   UNL     1     -41.727  56.646 -54.744  1.00  0.00     0.236 C 
BRANCH  25  26
HETATM   26  C   UNL     1     -41.881  55.359 -53.944  1.00  0.00     0.240 C 
HETATM   27  N   UNL     1     -40.674  54.867 -53.483  1.00  0.00    -0.326 N 
HETATM   28  H   UNL     1     -39.897  55.527 -53.442  1.00  0.00     0.169 HD
HETATM   29  O   UNL     1     -42.993  54.890 -53.724  1.00  0.00    -0.271 OA
BRANCH  27  30
HETATM   30  C   UNL     1     -40.420  53.566 -53.004  1.00  0.00     0.036 A 
HETATM   31  C   UNL     1     -40.142  52.480 -53.834  1.00  0.00     0.053 A 
HETATM   32  C   UNL     1     -39.809  51.236 -53.286  1.00  0.00     0.042 A 
HETATM   33 CL   UNL     1     -39.443  49.945 -54.377  1.00  0.00    -0.084 Cl
HETATM   34  C   UNL     1     -39.756  51.052 -51.897  1.00  0.00    -0.040 A 
HETATM   35  C   UNL     1     -39.377  49.733 -51.283  1.00  0.00     0.050 C 
HETATM   36  C   UNL     1     -40.053  52.142 -51.069  1.00  0.00     0.011 A 
HETATM   37  C   UNL     1     -40.377  53.387 -51.618  1.00  0.00     0.030 A 
ENDBRANCH  27  30
ENDBRANCH  25  26
ENDBRANCH   7  25
TORSDOF 7
ENDMDL
MODEL 3
REMARK VINA RESULT:      -7.8      4.138      8.068
REMARK  7 active torsions:
REMARK  status: ('A' for Active; 'I' for Inactive)
REMARK    1  A    between atoms: C_2  and  N_3 
REMARK    2  A    between atoms: C_5  and  C_6 
REMARK    3  A    between atoms: C_6  and  N_7 
REMARK       I    between atoms: N_7  and  C_8 
REMARK    4  A    between atoms: C_8  and  C_9 
REMARK    5  A    between atoms: N_15  and  C_16 
REMARK    6  A    between atoms: C_16  and  C_17 
REMARK       I    between atoms: C_17  and  N_18 
REMARK    7  A    between atoms: N_18  and  C_19 
ROOT
HETATM    1  C   UNL     1     -43.492  61.015 -51.022  1.00  0.00     0.081 C 
HETATM    2  S   UNL     1     -44.810  60.735 -52.084  1.00  0.00    -0.063 SA
HETATM    3  C   UNL     1     -44.088  59.352 -52.745  1.00  0.00     0.116 C 
HETATM    4  C   UNL     1     -42.871  59.074 -52.161  1.00  0.00     0.075 C 
HETATM    5  C   UNL     1     -42.101  57.979 -52.741  1.00  0.00     0.262 C 
HETATM    6  O   UNL     1     -41.015  57.607 -52.302  1.00  0.00    -0.267 OA
HETATM    7  N   UNL     1     -42.677  57.414 -53.873  1.00  0.00    -0.299 N 
HETATM    8  C   UNL     1     -43.950  57.751 -54.289  1.00  0.00     0.214 C 
HETATM    9  N   UNL     1     -44.679  58.681 -53.764  1.00  0.00    -0.235 NA
HETATM   10  C   UNL     1     -42.547  59.988 -51.081  1.00  0.00    -0.021 C 
HETATM   11  C   UNL     1     -41.312  59.893 -50.238  1.00  0.00     0.051 C 
ENDROOT
BRANCH   1  12
HETATM   12  C   UNL     1     -43.506  62.275 -50.295  1.00  0.00     0.259 C 
HETATM   13  N   UNL     1     -44.264  62.336 -49.144  1.00  0.00    -0.354 N 
HETATM   14  H   UNL     1     -45.012  61.654 -49.058  1.00  0.00     0.162 HD
HETATM   15  O   UNL     1     -42.818  63.255 -50.593  1.00  0.00    -0.267 OA
BRANCH  13  16
HETATM   16  C   UNL     1     -44.357  63.548 -48.337  1.00  0.00     0.156 C 
BRANCH  16  17
HETATM   17  C   UNL     1     -45.084  63.405 -46.968  1.00  0.00     0.206 C 
HETATM   18  N   UNL     1     -45.656  62.001 -46.759  1.00  0.00    -0.066 N 
HETATM   19  H   UNL     1     -45.613  61.518 -47.682  1.00  0.00     0.280 HD
HETATM   20  C   UNL     1     -47.123  62.145 -46.432  1.00  0.00     0.235 C 
HETATM   21  C   UNL     1     -47.503  63.468 -47.055  1.00  0.00     0.030 C 
HETATM   22  C   UNL     1     -46.287  64.336 -46.802  1.00  0.00     0.036 C 
BRANCH  18  23
HETATM   23  C   UNL     1     -44.874  61.139 -45.813  1.00  0.00     0.231 C 
HETATM   24  C   UNL     1     -44.525  61.908 -44.552  1.00  0.00     0.034 C 
ENDBRANCH  18  23
ENDBRANCH  16  17
ENDBRANCH  13  16
ENDBRANCH   1  12
BRANCH   7  25
HETATM   25  C   UNL     1     -41.878  56.501 -54.667  1.00  0.00     0.236 C 
BRANCH  25  26
HETATM   26  C   UNL     1     -41.991  55.077 -54.140  1.00  0.00     0.240 C 
HETATM   27  N   UNL     1     -41.009  54.767 -53.218  1.00  0.00    -0.326 N 
HETATM   28  H   UNL     1     -40.540  55.553 -52.768  1.00  0.00     0.169 HD
HETATM   29  O   UNL     1     -42.913  54.350 -54.497  1.00  0.00    -0.271 OA
BRANCH  27  30
HETATM   30  C   UNL     1     -40.630  53.479 -52.788  1.00  0.00     0.036 A 
HETATM   31  C   UNL     1     -40.242  52.460 -53.658  1.00  0.00     0.053 A 
HETATM   32  C   UNL     1     -39.791  51.233 -53.156  1.00  0.00     0.042 A 
HETATM   33 CL   UNL     1     -39.294  50.029 -54.293  1.00  0.00    -0.084 Cl
HETATM   34  C   UNL     1     -39.727  51.000 -51.774  1.00  0.00    -0.040 A 
HETATM   35  C   UNL     1     -39.223  49.702 -51.209  1.00  0.00     0.050 C 
HETATM   36  C   UNL     1     -40.134  52.023 -50.907  1.00  0.00     0.011 A 
HETATM   37  C   UNL     1     -40.577  53.250 -51.410  1.00  0.00     0.030 A 
ENDBRANCH  27  30
ENDBRANCH  25  26
ENDBRANCH   7  25
TORSDOF 7
ENDMDL
MODEL 4
REMARK VINA RESULT:      -7.7      1.575      2.293
REMARK  7 active torsions:
REMARK  status: ('A' for Active; 'I' for Inactive)
REMARK    1  A    between atoms: C_2  and  N_3 
REMARK    2  A    between atoms: C_5  and  C_6 
REMARK    3  A    between atoms: C_6  and  N_7 
REMARK       I    between atoms: N_7  and  C_8 
REMARK    4  A    between atoms: C_8  and  C_9 
REMARK    5  A    between atoms: N_15  and  C_16 
REMARK    6  A    between atoms: C_16  and  C_17 
REMARK       I    between atoms: C_17  and  N_18 
REMARK    7  A    between atoms: N_18  and  C_19 
ROOT
HETATM    1  C   UNL     1     -43.337  59.055 -55.539  1.00  0.00     0.081 C 
HETATM    2  S   UNL     1     -44.065  57.503 -55.604  1.00  0.00    -0.063 SA
HETATM    3  C   UNL     1     -43.680  57.167 -53.988  1.00  0.00     0.116 C 
HETATM    4  C   UNL     1     -43.028  58.219 -53.382  1.00  0.00     0.075 C 
HETATM    5  C   UNL     1     -42.535  57.991 -52.028  1.00  0.00     0.262 C 
HETATM    6  O   UNL     1     -41.962  58.851 -51.361  1.00  0.00    -0.267 OA
HETATM    7  N   UNL     1     -42.722  56.694 -51.563  1.00  0.00    -0.299 N 
HETATM    8  C   UNL     1     -43.471  55.769 -52.264  1.00  0.00     0.214 C 
HETATM    9  N   UNL     1     -43.966  55.958 -53.444  1.00  0.00    -0.235 NA
HETATM   10  C   UNL     1     -42.900  59.374 -54.251  1.00  0.00    -0.021 C 
HETATM   11  C   UNL     1     -42.281  60.675 -53.840  1.00  0.00     0.051 C 
ENDROOT
BRANCH   1  12
HETATM   12  C   UNL     1     -43.210  59.761 -56.805  1.00  0.00     0.259 C 
HETATM   13  N   UNL     1     -42.132  59.443 -57.605  1.00  0.00    -0.354 N 
HETATM   14  H   UNL     1     -41.335  59.018 -57.142  1.00  0.00     0.162 HD
HETATM   15  O   UNL     1     -44.049  60.553 -57.243  1.00  0.00    -0.267 OA
BRANCH  13  16
HETATM   16  C   UNL     1     -41.902  60.089 -58.893  1.00  0.00     0.156 C 
BRANCH  16  17
HETATM   17  C   UNL     1     -42.428  59.327 -60.145  1.00  0.00     0.206 C 
HETATM   18  N   UNL     1     -43.937  59.077 -60.080  1.00  0.00    -0.066 N 
HETATM   19  H   UNL     1     -44.235  59.288 -59.104  1.00  0.00     0.280 HD
HETATM   20  C   UNL     1     -44.168  57.599 -60.276  1.00  0.00     0.235 C 
HETATM   21  C   UNL     1     -42.870  56.968 -59.825  1.00  0.00     0.030 C 
HETATM   22  C   UNL     1     -41.818  57.936 -60.328  1.00  0.00     0.036 C 
BRANCH  18  23
HETATM   23  C   UNL     1     -44.760  59.973 -60.959  1.00  0.00     0.231 C 
HETATM   24  C   UNL     1     -43.893  60.620 -62.023  1.00  0.00     0.034 C 
ENDBRANCH  18  23
ENDBRANCH  16  17
ENDBRANCH  13  16
ENDBRANCH   1  12
BRANCH   7  25
HETATM   25  C   UNL     1     -42.047  56.297 -50.344  1.00  0.00     0.236 C 
BRANCH  25  26
HETATM   26  C   UNL     1     -41.450  54.903 -50.477  1.00  0.00     0.240 C 
HETATM   27  N   UNL     1     -40.755  54.729 -51.660  1.00  0.00    -0.326 N 
HETATM   28  H   UNL     1     -40.452  55.575 -52.141  1.00  0.00     0.169 HD
HETATM   29  O   UNL     1     -41.565  54.085 -49.570  1.00  0.00    -0.271 OA
BRANCH  27  30
HETATM   30  C   UNL     1     -40.366  53.504 -52.238  1.00  0.00     0.036 A 
HETATM   31  C   UNL     1     -39.957  52.396 -51.494  1.00  0.00     0.053 A 
HETATM   32  C   UNL     1     -39.672  51.182 -52.130  1.00  0.00     0.042 A 
HETATM   33 CL   UNL     1     -39.205  49.843 -51.141  1.00  0.00    -0.084 Cl
HETATM   34  C   UNL     1     -39.783  51.054 -53.523  1.00  0.00    -0.040 A 
HETATM   35  C   UNL     1     -39.508  49.756 -54.227  1.00  0.00     0.050 C 
HETATM   36  C   UNL     1     -40.178  52.175 -54.264  1.00  0.00     0.011 A 
HETATM   37  C   UNL     1     -40.471  53.386 -53.627  1.00  0.00     0.030 A 
ENDBRANCH  27  30
ENDBRANCH  25  26
ENDBRANCH   7  25
TORSDOF 7
ENDMDL
MODEL 5
REMARK VINA RESULT:      -7.6      4.639      6.262
REMARK  7 active torsions:
REMARK  status: ('A' for Active; 'I' for Inactive)
REMARK    1  A    between atoms: C_2  and  N_3 
REMARK    2  A    between atoms: C_5  and  C_6 
REMARK    3  A    between atoms: C_6  and  N_7 
REMARK       I    between atoms: N_7  and  C_8 
REMARK    4  A    between atoms: C_8  and  C_9 
REMARK    5  A    between atoms: N_15  and  C_16 
REMARK    6  A    between atoms: C_16  and  C_17 
REMARK       I    between atoms: C_17  and  N_18 
REMARK    7  A    between atoms: N_18  and  C_19 
ROOT
HETATM    1  C   UNL     1     -46.203  61.126 -52.572  1.00  0.00     0.081 C 
HETATM    2  S   UNL     1     -45.773  60.231 -51.173  1.00  0.00    -0.063 SA
HETATM    3  C   UNL     1     -44.636  59.301 -52.019  1.00  0.00     0.116 C 
HETATM    4  C   UNL     1     -44.551  59.669 -53.345  1.00  0.00     0.075 C 
HETATM    5  C   UNL     1     -43.697  58.850 -54.198  1.00  0.00     0.262 C 
HETATM    6  O   UNL     1     -43.509  59.081 -55.391  1.00  0.00    -0.267 OA
HETATM    7  N   UNL     1     -43.145  57.745 -53.560  1.00  0.00    -0.299 N 
HETATM    8  C   UNL     1     -43.260  57.558 -52.196  1.00  0.00     0.214 C 
HETATM    9  N   UNL     1     -43.967  58.296 -51.404  1.00  0.00    -0.235 NA
HETATM   10  C   UNL     1     -45.399  60.802 -53.667  1.00  0.00    -0.021 C 
HETATM   11  C   UNL     1     -45.469  61.446 -55.018  1.00  0.00     0.051 C 
ENDROOT
BRANCH   1  12
HETATM   12  C   UNL     1     -47.355  62.006 -52.445  1.00  0.00     0.259 C 
HETATM   13  N   UNL     1     -48.449  61.738 -53.242  1.00  0.00    -0.354 N 
HETATM   14  H   UNL     1     -48.276  61.193 -54.080  1.00  0.00     0.162 HD
HETATM   15  O   UNL     1     -47.446  62.913 -51.614  1.00  0.00    -0.267 OA
BRANCH  13  16
HETATM   16  C   UNL     1     -49.658  62.555 -53.203  1.00  0.00     0.156 C 
BRANCH  16  17
HETATM   17  C   UNL     1     -51.004  61.795 -53.385  1.00  0.00     0.206 C 
HETATM   18  N   UNL     1     -51.651  62.077 -54.742  1.00  0.00    -0.066 N 
HETATM   19  H   UNL     1     -51.143  62.890 -55.154  1.00  0.00     0.280 HD
HETATM   20  C   UNL     1     -53.062  62.551 -54.491  1.00  0.00     0.235 C 
HETATM   21  C   UNL     1     -53.006  63.126 -53.095  1.00  0.00     0.030 C 
HETATM   22  C   UNL     1     -52.077  62.177 -52.363  1.00  0.00     0.036 C 
BRANCH  18  23
HETATM   23  C   UNL     1     -51.520  60.967 -55.744  1.00  0.00     0.231 C 
HETATM   24  C   UNL     1     -52.721  60.043 -55.677  1.00  0.00     0.034 C 
ENDBRANCH  18  23
ENDBRANCH  16  17
ENDBRANCH  13  16
ENDBRANCH   1  12
BRANCH   7  25
HETATM   25  C   UNL     1     -42.495  56.736 -54.373  1.00  0.00     0.236 C 
BRANCH  25  26
HETATM   26  C   UNL     1     -42.482  55.388 -53.665  1.00  0.00     0.240 C 
HETATM   27  N   UNL     1     -41.229  55.042 -53.195  1.00  0.00    -0.326 N 
HETATM   28  H   UNL     1     -40.557  55.800 -53.084  1.00  0.00     0.169 HD
HETATM   29  O   UNL     1     -43.520  54.752 -53.514  1.00  0.00    -0.271 OA
BRANCH  27  30
HETATM   30  C   UNL     1     -40.802  53.760 -52.794  1.00  0.00     0.036 A 
HETATM   31  C   UNL     1     -40.514  52.728 -53.688  1.00  0.00     0.053 A 
HETATM   32  C   UNL     1     -40.008  51.509 -53.224  1.00  0.00     0.042 A 
HETATM   33 CL   UNL     1     -39.642  50.289 -54.394  1.00  0.00    -0.084 Cl
HETATM   34  C   UNL     1     -39.787  51.294 -51.856  1.00  0.00    -0.040 A 
HETATM   35  C   UNL     1     -39.221  50.004 -51.334  1.00  0.00     0.050 C 
HETATM   36  C   UNL     1     -40.094  52.328 -50.962  1.00  0.00     0.011 A 
HETATM   37  C   UNL     1     -40.593  53.550 -51.427  1.00  0.00     0.030 A 
ENDBRANCH  27  30
ENDBRANCH  25  26
ENDBRANCH   7  25
TORSDOF 7
ENDMDL
MODEL 6
REMARK VINA RESULT:      -7.5      3.872      7.887
REMARK  7 active torsions:
REMARK  status: ('A' for Active; 'I' for Inactive)
REMARK    1  A    between atoms: C_2  and  N_3 
REMARK    2  A    between atoms: C_5  and  C_6 
REMARK    3  A    between atoms: C_6  and  N_7 
REMARK       I    between atoms: N_7  and  C_8 
REMARK    4  A    between atoms: C_8  and  C_9 
REMARK    5  A    between atoms: N_15  and  C_16 
REMARK    6  A    between atoms: C_16  and  C_17 
REMARK       I    between atoms: C_17  and  N_18 
REMARK    7  A    between atoms: N_18  and  C_19 
ROOT
HETATM    1  C   UNL     1     -43.657  60.369 -52.060  1.00  0.00     0.081 C 
HETATM    2  S   UNL     1     -42.848  61.049 -53.412  1.00  0.00    -0.063 SA
HETATM    3  C   UNL     1     -42.869  59.583 -54.262  1.00  0.00     0.116 C 
HETATM    4  C   UNL     1     -43.502  58.584 -53.555  1.00  0.00     0.075 C 
HETATM    5  C   UNL     1     -43.465  57.246 -54.137  1.00  0.00     0.262 C 
HETATM    6  O   UNL     1     -44.012  56.270 -53.628  1.00  0.00    -0.267 OA
HETATM    7  N   UNL     1     -42.713  57.152 -55.303  1.00  0.00    -0.299 N 
HETATM    8  C   UNL     1     -42.204  58.269 -55.935  1.00  0.00     0.214 C 
HETATM    9  N   UNL     1     -42.265  59.475 -55.471  1.00  0.00    -0.235 NA
HETATM   10  C   UNL     1     -44.053  59.051 -52.297  1.00  0.00    -0.021 C 
HETATM   11  C   UNL     1     -44.835  58.194 -51.348  1.00  0.00     0.051 C 
ENDROOT
BRANCH   1  12
HETATM   12  C   UNL     1     -43.742  61.206 -50.872  1.00  0.00     0.259 C 
HETATM   13  N   UNL     1     -44.950  61.818 -50.613  1.00  0.00    -0.354 N 
HETATM   14  H   UNL     1     -45.577  61.937 -51.402  1.00  0.00     0.162 HD
HETATM   15  O   UNL     1     -42.836  61.327 -50.044  1.00  0.00    -0.267 OA
BRANCH  13  16
HETATM   16  C   UNL     1     -45.151  62.683 -49.454  1.00  0.00     0.156 C 
BRANCH  16  17
HETATM   17  C   UNL     1     -46.028  62.098 -48.308  1.00  0.00     0.206 C 
HETATM   18  N   UNL     1     -46.007  62.977 -47.055  1.00  0.00    -0.066 N 
HETATM   19  H   UNL     1     -45.233  63.664 -47.182  1.00  0.00     0.280 HD
HETATM   20  C   UNL     1     -45.607  62.108 -45.888  1.00  0.00     0.235 C 
HETATM   21  C   UNL     1     -44.821  60.986 -46.527  1.00  0.00     0.030 C 
HETATM   22  C   UNL     1     -45.574  60.722 -47.816  1.00  0.00     0.036 C 
BRANCH  18  23
HETATM   23  C   UNL     1     -47.246  63.798 -46.843  1.00  0.00     0.231 C 
HETATM   24  C   UNL     1     -47.603  63.855 -45.370  1.00  0.00     0.034 C 
ENDBRANCH  18  23
ENDBRANCH  16  17
ENDBRANCH  13  16
ENDBRANCH   1  12
BRANCH   7  25
HETATM   25  C   UNL     1     -42.403  55.832 -55.815  1.00  0.00     0.236 C 
BRANCH  25  26
HETATM   26  C   UNL     1     -41.306  55.169 -54.993  1.00  0.00     0.240 C 
HETATM   27  N   UNL     1     -41.504  53.811 -54.830  1.00  0.00    -0.326 N 
HETATM   28  H   UNL     1     -42.134  53.358 -55.492  1.00  0.00     0.169 HD
HETATM   29  O   UNL     1     -40.347  55.821 -54.592  1.00  0.00    -0.271 OA
BRANCH  27  30
HETATM   30  C   UNL     1     -40.880  52.974 -53.884  1.00  0.00     0.036 A 
HETATM   31  C   UNL     1     -40.866  53.237 -52.513  1.00  0.00     0.053 A 
HETATM   32  C   UNL     1     -40.305  52.315 -51.621  1.00  0.00     0.042 A 
HETATM   33 CL   UNL     1     -40.355  52.692 -49.934  1.00  0.00    -0.084 Cl
HETATM   34  C   UNL     1     -39.741  51.117 -52.083  1.00  0.00    -0.040 A 
HETATM   35  C   UNL     1     -39.156  50.099 -51.144  1.00  0.00     0.050 C 
HETATM   36  C   UNL     1     -39.744  50.868 -53.461  1.00  0.00     0.011 A 
HETATM   37  C   UNL     1     -40.311  51.785 -54.351  1.00  0.00     0.030 A 
ENDBRANCH  27  30
ENDBRANCH  25  26
ENDBRANCH   7  25
TORSDOF 7
ENDMDL
MODEL 7
REMARK VINA RESULT:      -7.5      2.096      2.591
REMARK  7 active torsions:
REMARK  status: ('A' for Active; 'I' for Inactive)
REMARK    1  A    between atoms: C_2  and  N_3 
REMARK    2  A    between atoms: C_5  and  C_6 
REMARK    3  A    between atoms: C_6  and  N_7 
REMARK       I    between atoms: N_7  and  C_8 
REMARK    4  A    between atoms: C_8  and  C_9 
REMARK    5  A    between atoms: N_15  and  C_16 
REMARK    6  A    between atoms: C_16  and  C_17 
REMARK       I    between atoms: C_17  and  N_18 
REMARK    7  A    between atoms: N_18  and  C_19 
ROOT
HETATM    1  C   UNL     1     -43.847  59.818 -54.141  1.00  0.00     0.081 C 
HETATM    2  S   UNL     1     -42.468  60.617 -53.506  1.00  0.00    -0.063 SA
HETATM    3  C   UNL     1     -42.024  59.275 -52.570  1.00  0.00     0.116 C 
HETATM    4  C   UNL     1     -42.885  58.215 -52.745  1.00  0.00     0.075 C 
HETATM    5  C   UNL     1     -42.673  57.051 -51.891  1.00  0.00     0.262 C 
HETATM    6  O   UNL     1     -43.349  56.026 -51.960  1.00  0.00    -0.267 OA
HETATM    7  N   UNL     1     -41.664  57.212 -50.948  1.00  0.00    -0.299 N 
HETATM    8  C   UNL     1     -40.830  58.312 -50.954  1.00  0.00     0.214 C 
HETATM    9  N   UNL     1     -40.960  59.337 -51.732  1.00  0.00    -0.235 NA
HETATM   10  C   UNL     1     -43.912  58.484 -53.735  1.00  0.00    -0.021 C 
HETATM   11  C   UNL     1     -44.952  57.493 -54.163  1.00  0.00     0.051 C 
ENDROOT
BRANCH   1  12
HETATM   12  C   UNL     1     -44.764  60.637 -54.921  1.00  0.00     0.259 C 
HETATM   13  N   UNL     1     -44.765  60.462 -56.289  1.00  0.00    -0.354 N 
HETATM   14  H   UNL     1     -43.929  60.054 -56.694  1.00  0.00     0.162 HD
HETATM   15  O   UNL     1     -45.595  61.406 -54.429  1.00  0.00    -0.267 OA
BRANCH  13  16
HETATM   16  C   UNL     1     -45.639  61.231 -57.170  1.00  0.00     0.156 C 
BRANCH  16  17
HETATM   17  C   UNL     1     -45.729  60.738 -58.644  1.00  0.00     0.206 C 
HETATM   18  N   UNL     1     -45.340  59.265 -58.788  1.00  0.00    -0.066 N 
HETATM   19  H   UNL     1     -44.893  58.983 -57.889  1.00  0.00     0.280 HD
HETATM   20  C   UNL     1     -44.259  59.174 -59.837  1.00  0.00     0.235 C 
HETATM   21  C   UNL     1     -43.619  60.543 -59.815  1.00  0.00     0.030 C 
HETATM   22  C   UNL     1     -44.795  61.475 -59.605  1.00  0.00     0.036 C 
BRANCH  18  23
HETATM   23  C   UNL     1     -46.495  58.326 -58.979  1.00  0.00     0.231 C 
HETATM   24  C   UNL     1     -47.158  58.018 -57.649  1.00  0.00     0.034 C 
ENDBRANCH  18  23
ENDBRANCH  16  17
ENDBRANCH  13  16
ENDBRANCH   1  12
BRANCH   7  25
HETATM   25  C   UNL     1     -41.545  56.224 -49.894  1.00  0.00     0.236 C 
BRANCH  25  26
HETATM   26  C   UNL     1     -40.636  55.078 -50.319  1.00  0.00     0.240 C 
HETATM   27  N   UNL     1     -40.855  54.676 -51.623  1.00  0.00    -0.326 N 
HETATM   28  H   UNL     1     -41.332  55.341 -52.232  1.00  0.00     0.169 HD
HETATM   29  O   UNL     1     -39.784  54.641 -49.553  1.00  0.00    -0.271 OA
BRANCH  27  30
HETATM   30  C   UNL     1     -40.434  53.470 -52.217  1.00  0.00     0.036 A 
HETATM   31  C   UNL     1     -39.998  52.363 -51.487  1.00  0.00     0.053 A 
HETATM   32  C   UNL     1     -39.680  51.165 -52.138  1.00  0.00     0.042 A 
HETATM   33 CL   UNL     1     -39.180  49.826 -51.166  1.00  0.00    -0.084 Cl
HETATM   34  C   UNL     1     -39.784  51.054 -53.532  1.00  0.00    -0.040 A 
HETATM   35  C   UNL     1     -39.474  49.772 -54.253  1.00  0.00     0.050 C 
HETATM   36  C   UNL     1     -40.207  52.174 -54.260  1.00  0.00     0.011 A 
HETATM   37  C   UNL     1     -40.532  53.368 -53.608  1.00  0.00     0.030 A 
ENDBRANCH  27  30
ENDBRANCH  25  26
ENDBRANCH   7  25
TORSDOF 7
ENDMDL
MODEL 8
REMARK VINA RESULT:      -7.4      3.884      5.355
REMARK  7 active torsions:
REMARK  status: ('A' for Active; 'I' for Inactive)
REMARK    1  A    between atoms: C_2  and  N_3 
REMARK    2  A    between atoms: C_5  and  C_6 
REMARK    3  A    between atoms: C_6  and  N_7 
REMARK       I    between atoms: N_7  and  C_8 
REMARK    4  A    between atoms: C_8  and  C_9 
REMARK    5  A    between atoms: N_15  and  C_16 
REMARK    6  A    between atoms: C_16  and  C_17 
REMARK       I    between atoms: C_17  and  N_18 
REMARK    7  A    between atoms: N_18  and  C_19 
ROOT
HETATM    1  C   UNL     1     -45.731  60.613 -54.122  1.00  0.00     0.081 C 
HETATM    2  S   UNL     1     -44.735  59.827 -55.277  1.00  0.00    -0.063 SA
HETATM    3  C   UNL     1     -44.170  58.702 -54.142  1.00  0.00     0.116 C 
HETATM    4  C   UNL     1     -44.739  58.889 -52.901  1.00  0.00     0.075 C 
HETATM    5  C   UNL     1     -44.230  58.058 -51.815  1.00  0.00     0.262 C 
HETATM    6  O   UNL     1     -44.666  58.101 -50.666  1.00  0.00    -0.267 OA
HETATM    7  N   UNL     1     -43.166  57.239 -52.175  1.00  0.00    -0.299 N 
HETATM    8  C   UNL     1     -42.760  57.105 -53.488  1.00  0.00     0.214 C 
HETATM    9  N   UNL     1     -43.228  57.789 -54.481  1.00  0.00    -0.235 NA
HETATM   10  C   UNL     1     -45.729  59.950 -52.893  1.00  0.00    -0.021 C 
HETATM   11  C   UNL     1     -46.541  60.338 -51.694  1.00  0.00     0.051 C 
ENDROOT
BRANCH   1  12
HETATM   12  C   UNL     1     -46.351  61.859 -54.547  1.00  0.00     0.259 C 
HETATM   13  N   UNL     1     -47.639  62.105 -54.121  1.00  0.00    -0.354 N 
HETATM   14  H   UNL     1     -48.187  61.297 -53.845  1.00  0.00     0.162 HD
HETATM   15  O   UNL     1     -45.769  62.740 -55.186  1.00  0.00    -0.267 OA
BRANCH  13  16
HETATM   16  C   UNL     1     -48.362  63.319 -54.489  1.00  0.00     0.156 C 
BRANCH  16  17
HETATM   17  C   UNL     1     -49.794  63.115 -55.065  1.00  0.00     0.206 C 
HETATM   18  N   UNL     1     -50.369  61.740 -54.717  1.00  0.00    -0.066 N 
HETATM   19  H   UNL     1     -49.578  61.167 -54.350  1.00  0.00     0.280 HD
HETATM   20  C   UNL     1     -50.800  61.081 -56.004  1.00  0.00     0.235 C 
HETATM   21  C   UNL     1     -49.936  61.741 -57.054  1.00  0.00     0.030 C 
HETATM   22  C   UNL     1     -49.865  63.183 -56.592  1.00  0.00     0.036 C 
BRANCH  18  23
HETATM   23  C   UNL     1     -51.402  61.749 -53.628  1.00  0.00     0.231 C 
HETATM   24  C   UNL     1     -52.756  62.155 -54.180  1.00  0.00     0.034 C 
ENDBRANCH  18  23
ENDBRANCH  16  17
ENDBRANCH  13  16
ENDBRANCH   1  12
BRANCH   7  25
HETATM   25  C   UNL     1     -42.428  56.570 -51.122  1.00  0.00     0.236 C 
BRANCH  25  26
HETATM   26  C   UNL     1     -42.281  55.083 -51.416  1.00  0.00     0.240 C 
HETATM   27  N   UNL     1     -40.970  54.708 -51.643  1.00  0.00    -0.326 N 
HETATM   28  H   UNL     1     -40.248  55.340 -51.298  1.00  0.00     0.169 HD
HETATM   29  O   UNL     1     -43.258  54.342 -51.386  1.00  0.00    -0.271 OA
BRANCH  27  30
HETATM   30  C   UNL     1     -40.525  53.514 -52.245  1.00  0.00     0.036 A 
HETATM   31  C   UNL     1     -40.071  52.410 -51.523  1.00  0.00     0.053 A 
HETATM   32  C   UNL     1     -39.730  51.223 -52.183  1.00  0.00     0.042 A 
HETATM   33 CL   UNL     1     -39.208  49.886 -51.220  1.00  0.00    -0.084 Cl
HETATM   34  C   UNL     1     -39.830  51.121 -53.578  1.00  0.00    -0.040 A 
HETATM   35  C   UNL     1     -39.495  49.851 -54.309  1.00  0.00     0.050 C 
HETATM   36  C   UNL     1     -40.271  52.239 -54.298  1.00  0.00     0.011 A 
HETATM   37  C   UNL     1     -40.619  53.422 -53.637  1.00  0.00     0.030 A 
ENDBRANCH  27  30
ENDBRANCH  25  26
ENDBRANCH   7  25
TORSDOF 7
ENDMDL
MODEL 9
REMARK VINA RESULT:      -7.3      3.227      5.070
REMARK  7 active torsions:
REMARK  status: ('A' for Active; 'I' for Inactive)
REMARK    1  A    between atoms: C_2  and  N_3 
REMARK    2  A    between atoms: C_5  and  C_6 
REMARK    3  A    between atoms: C_6  and  N_7 
REMARK       I    between atoms: N_7  and  C_8 
REMARK    4  A    between atoms: C_8  and  C_9 
REMARK    5  A    between atoms: N_15  and  C_16 
REMARK    6  A    between atoms: C_16  and  C_17 
REMARK       I    between atoms: C_17  and  N_18 
REMARK    7  A    between atoms: N_18  and  C_19 
ROOT
HETATM    1  C   UNL     1     -43.940  59.729 -54.781  1.00  0.00     0.081 C 
HETATM    2  S   UNL     1     -42.523  60.533 -54.241  1.00  0.00    -0.063 SA
HETATM    3  C   UNL     1     -42.098  59.260 -53.207  1.00  0.00     0.116 C 
HETATM    4  C   UNL     1     -42.995  58.216 -53.275  1.00  0.00     0.075 C 
HETATM    5  C   UNL     1     -42.798  57.120 -52.332  1.00  0.00     0.262 C 
HETATM    6  O   UNL     1     -43.507  56.116 -52.302  1.00  0.00    -0.267 OA
HETATM    7  N   UNL     1     -41.764  57.327 -51.426  1.00  0.00    -0.299 N 
HETATM    8  C   UNL     1     -40.897  58.396 -51.541  1.00  0.00     0.214 C 
HETATM    9  N   UNL     1     -41.014  59.356 -52.399  1.00  0.00    -0.235 NA
HETATM   10  C   UNL     1     -44.035  58.435 -54.264  1.00  0.00    -0.021 C 
HETATM   11  C   UNL     1     -45.114  57.447 -54.587  1.00  0.00     0.051 C 
ENDROOT
BRANCH   1  12
HETATM   12  C   UNL     1     -44.849  60.510 -55.606  1.00  0.00     0.259 C 
HETATM   13  N   UNL     1     -45.978  61.020 -55.000  1.00  0.00    -0.354 N 
HETATM   14  H   UNL     1     -46.283  60.558 -54.149  1.00  0.00     0.162 HD
HETATM   15  O   UNL     1     -44.629  60.815 -56.782  1.00  0.00    -0.267 OA
BRANCH  13  16
HETATM   16  C   UNL     1     -46.962  61.814 -55.730  1.00  0.00     0.156 C 
BRANCH  16  17
HETATM   17  C   UNL     1     -47.864  62.746 -54.869  1.00  0.00     0.206 C 
HETATM   18  N   UNL     1     -48.393  62.045 -53.616  1.00  0.00    -0.066 N 
HETATM   19  H   UNL     1     -48.200  61.027 -53.736  1.00  0.00     0.280 HD
HETATM   20  C   UNL     1     -49.896  62.186 -53.609  1.00  0.00     0.235 C 
HETATM   21  C   UNL     1     -50.248  62.369 -55.067  1.00  0.00     0.030 C 
HETATM   22  C   UNL     1     -49.121  63.236 -55.592  1.00  0.00     0.036 C 
BRANCH  18  23
HETATM   23  C   UNL     1     -47.710  62.440 -52.340  1.00  0.00     0.231 C 
HETATM   24  C   UNL     1     -47.319  63.906 -52.375  1.00  0.00     0.034 C 
ENDBRANCH  18  23
ENDBRANCH  16  17
ENDBRANCH  13  16
ENDBRANCH   1  12
BRANCH   7  25
HETATM   25  C   UNL     1     -41.651  56.425 -50.297  1.00  0.00     0.236 C 
BRANCH  25  26
HETATM   26  C   UNL     1     -40.724  55.260 -50.618  1.00  0.00     0.240 C 
HETATM   27  N   UNL     1     -40.914  54.760 -51.893  1.00  0.00    -0.326 N 
HETATM   28  H   UNL     1     -41.383  55.373 -52.559  1.00  0.00     0.169 HD
HETATM   29  O   UNL     1     -39.884  54.889 -49.805  1.00  0.00    -0.271 OA
BRANCH  27  30
HETATM   30  C   UNL     1     -40.471  53.517 -52.387  1.00  0.00     0.036 A 
HETATM   31  C   UNL     1     -40.083  52.456 -51.567  1.00  0.00     0.053 A 
HETATM   32  C   UNL     1     -39.740  51.219 -52.125  1.00  0.00     0.042 A 
HETATM   33 CL   UNL     1     -39.303  49.941 -51.046  1.00  0.00    -0.084 Cl
HETATM   34  C   UNL     1     -39.771  51.021 -53.513  1.00  0.00    -0.040 A 
HETATM   35  C   UNL     1     -39.433  49.696 -54.136  1.00  0.00     0.050 C 
HETATM   36  C   UNL     1     -40.146  52.096 -54.331  1.00  0.00     0.011 A 
HETATM   37  C   UNL     1     -40.496  53.329 -53.772  1.00  0.00     0.030 A 
ENDBRANCH  27  30
ENDBRANCH  25  26
ENDBRANCH   7  25
TORSDOF 7
ENDMDL
MODEL 10
REMARK VINA RESULT:      -7.3     16.016     21.082
REMARK  7 active torsions:
REMARK  status: ('A' for Active; 'I' for Inactive)
REMARK    1  A    between atoms: C_2  and  N_3 
REMARK    2  A    between atoms: C_5  and  C_6 
REMARK    3  A    between atoms: C_6  and  N_7 
REMARK       I    between atoms: N_7  and  C_8 
REMARK    4  A    between atoms: C_8  and  C_9 
REMARK    5  A    between atoms: N_15  and  C_16 
REMARK    6  A    between atoms: C_16  and  C_17 
REMARK       I    between atoms: C_17  and  N_18 
REMARK    7  A    between atoms: N_18  and  C_19 
ROOT
HETATM    1  C   UNL     1     -33.756  38.263 -48.809  1.00  0.00     0.081 C 
HETATM    2  S   UNL     1     -35.330  37.704 -49.202  1.00  0.00    -0.063 SA
HETATM    3  C   UNL     1     -35.525  38.863 -50.422  1.00  0.00     0.116 C 
HETATM    4  C   UNL     1     -34.409  39.659 -50.563  1.00  0.00     0.075 C 
HETATM    5  C   UNL     1     -34.513  40.774 -51.498  1.00  0.00     0.262 C 
HETATM    6  O   UNL     1     -33.586  41.545 -51.740  1.00  0.00    -0.267 OA
HETATM    7  N   UNL     1     -35.774  40.929 -52.062  1.00  0.00    -0.299 N 
HETATM    8  C   UNL     1     -36.774  39.994 -51.881  1.00  0.00     0.214 C 
HETATM    9  N   UNL     1     -36.694  38.966 -51.101  1.00  0.00    -0.235 NA
HETATM   10  C   UNL     1     -33.323  39.261 -49.685  1.00  0.00    -0.021 C 
HETATM   11  C   UNL     1     -31.975  39.916 -49.660  1.00  0.00     0.051 C 
ENDROOT
BRANCH   1  12
HETATM   12  C   UNL     1     -33.150  37.696 -47.614  1.00  0.00     0.259 C 
HETATM   13  N   UNL     1     -33.705  38.035 -46.399  1.00  0.00    -0.354 N 
HETATM   14  H   UNL     1     -34.250  38.891 -46.372  1.00  0.00     0.162 HD
HETATM   15  O   UNL     1     -32.235  36.867 -47.628  1.00  0.00    -0.267 OA
BRANCH  13  16
HETATM   16  C   UNL     1     -33.177  37.530 -45.135  1.00  0.00     0.156 C 
BRANCH  16  17
HETATM   17  C   UNL     1     -32.079  38.399 -44.455  1.00  0.00     0.206 C 
HETATM   18  N   UNL     1     -30.716  38.248 -45.133  1.00  0.00    -0.066 N 
HETATM   19  H   UNL     1     -30.787  37.425 -45.770  1.00  0.00     0.280 HD
HETATM   20  C   UNL     1     -29.713  37.868 -44.071  1.00  0.00     0.235 C 
HETATM   21  C   UNL     1     -30.552  37.209 -43.001  1.00  0.00     0.030 C 
HETATM   22  C   UNL     1     -31.820  38.040 -42.990  1.00  0.00     0.036 C 
BRANCH  18  23
HETATM   23  C   UNL     1     -30.316  39.402 -46.004  1.00  0.00     0.231 C 
HETATM   24  C   UNL     1     -29.983  40.618 -45.160  1.00  0.00     0.034 C 
ENDBRANCH  18  23
ENDBRANCH  16  17
ENDBRANCH  13  16
ENDBRANCH   1  12
BRANCH   7  25
HETATM   25  C   UNL     1     -36.052  42.147 -52.798  1.00  0.00     0.236 C 
BRANCH  25  26
HETATM   26  C   UNL     1     -35.917  41.921 -54.298  1.00  0.00     0.240 C 
HETATM   27  N   UNL     1     -37.137  41.885 -54.947  1.00  0.00    -0.326 N 
HETATM   28  H   UNL     1     -37.928  42.303 -54.457  1.00  0.00     0.169 HD
HETATM   29  O   UNL     1     -34.809  41.843 -54.820  1.00  0.00    -0.271 OA
BRANCH  27  30
HETATM   30  C   UNL     1     -37.391  41.385 -56.240  1.00  0.00     0.036 A 
HETATM   31  C   UNL     1     -37.288  42.157 -57.398  1.00  0.00     0.053 A 
HETATM   32  C   UNL     1     -37.467  41.572 -58.657  1.00  0.00     0.042 A 
HETATM   33 CL   UNL     1     -37.290  42.583 -60.048  1.00  0.00    -0.084 Cl
HETATM   34  C   UNL     1     -37.759  40.206 -58.782  1.00  0.00    -0.040 A 
HETATM   35  C   UNL     1     -37.930  39.549 -60.123  1.00  0.00     0.050 C 
HETATM   36  C   UNL     1     -37.878  39.441 -57.614  1.00  0.00     0.011 A 
HETATM   37  C   UNL     1     -37.691  40.025 -56.357  1.00  0.00     0.030 A 
ENDBRANCH  27  30
ENDBRANCH  25  26
ENDBRANCH   7  25
TORSDOF 7
ENDMDL
