MODEL 1
REMARK VINA RESULT:      -7.3      0.000      0.000
REMARK  5 active torsions:
REMARK  status: ('A' for Active; 'I' for Inactive)
REMARK    1  A    between atoms: C_5  and  C_6 
REMARK    2  A    between atoms: N_9  and  C_11 
REMARK    3  A    between atoms: C_11  and  C_12 
REMARK    4  A    between atoms: C_13  and  N_14 
REMARK    5  A    between atoms: N_14  and  C_15 
ROOT
HETATM    1  C   UNL     1     -42.288  54.989 -54.563  1.00  0.00    -0.006 A 
HETATM    2  C   UNL     1     -41.674  55.444 -53.373  1.00  0.00     0.038 A 
HETATM    3  C   UNL     1     -40.833  54.553 -52.677  1.00  0.00     0.030 A 
HETATM    4  C   UNL     1     -40.602  53.254 -53.131  1.00  0.00     0.002 A 
HETATM    5  C   UNL     1     -41.186  52.820 -54.310  1.00  0.00     0.001 A 
HETATM    6  C   UNL     1     -42.011  53.682 -55.025  1.00  0.00     0.011 A 
ENDROOT
BRANCH   1   7
HETATM    7  C   UNL     1     -43.181  55.865 -55.404  1.00  0.00     0.275 C 
BRANCH   7   8
HETATM    8  N   UNL     1     -42.574  56.286 -56.745  1.00  0.00    -0.067 N 
HETATM    9  C   UNL     1     -43.288  55.583 -57.875  1.00  0.00     0.236 C 
HETATM   10  C   UNL     1     -42.664  55.963 -59.210  1.00  0.00     0.037 C 
HETATM   11  C   UNL     1     -42.721  57.481 -59.451  1.00  0.00     0.025 C 
HETATM   12  C   UNL     1     -41.979  58.162 -58.295  1.00  0.00     0.037 C 
HETATM   13  C   UNL     1     -42.541  57.788 -56.928  1.00  0.00     0.236 C 
HETATM   14  H   UNL     1     -41.601  55.966 -56.721  1.00  0.00     0.280 HD
BRANCH  11  15
HETATM   15  C   UNL     1     -44.129  57.973 -59.649  1.00  0.00    -0.018 A 
HETATM   16  C   UNL     1     -45.212  57.257 -60.222  1.00  0.00     0.147 A 
HETATM   17  N   UNL     1     -46.356  57.936 -60.185  1.00  0.00    -0.185 NA
HETATM   18  N   UNL     1     -46.005  59.139 -59.708  1.00  0.00    -0.285 N 
HETATM   19  C   UNL     1     -47.003  60.175 -59.577  1.00  0.00     0.179 C 
HETATM   20  C   UNL     1     -44.682  59.209 -59.365  1.00  0.00     0.120 A 
ENDBRANCH  11  15
ENDBRANCH   7   8
ENDBRANCH   1   7
BRANCH   2  21
HETATM   21  N   UNL     1     -41.811  56.790 -52.956  1.00  0.00    -0.380 N 
HETATM   22  C   UNL     1     -40.790  57.653 -53.570  1.00  0.00     0.150 C 
BRANCH  21  23
HETATM   23  C   UNL     1     -42.239  57.008 -51.551  1.00  0.00     0.087 C 
HETATM   24  C   UNL     1     -43.678  56.522 -51.309  1.00  0.00     0.053 C 
HETATM   25  C   UNL     1     -44.756  57.583 -51.491  1.00  0.00     0.236 C 
HETATM   26  N   UNL     1     -44.401  58.817 -50.713  1.00  0.00    -0.075 N 
HETATM   27  H   UNL     1     -44.310  58.565 -49.718  1.00  0.00     0.279 HD
HETATM   28  C   UNL     1     -45.513  59.841 -50.753  1.00  0.00     0.269 C 
HETATM   29  C   UNL     1     -43.096  59.407 -51.177  1.00  0.00     0.236 C 
HETATM   30  C   UNL     1     -41.979  58.400 -50.967  1.00  0.00     0.053 C 
ENDBRANCH  21  23
ENDBRANCH   2  21
TORSDOF 5
ENDMDL
MODEL 2
REMARK VINA RESULT:      -7.2      2.164      7.767
REMARK  5 active torsions:
REMARK  status: ('A' for Active; 'I' for Inactive)
REMARK    1  A    between atoms: C_5  and  C_6 
REMARK    2  A    between atoms: N_9  and  C_11 
REMARK    3  A    between atoms: C_11  and  C_12 
REMARK    4  A    between atoms: C_13  and  N_14 
REMARK    5  A    between atoms: N_14  and  C_15 
ROOT
HETATM    1  C   UNL     1     -43.979  59.422 -51.777  1.00  0.00    -0.006 A 
HETATM    2  C   UNL     1     -44.692  59.563 -52.990  1.00  0.00     0.038 A 
HETATM    3  C   UNL     1     -45.892  60.301 -52.973  1.00  0.00     0.030 A 
HETATM    4  C   UNL     1     -46.381  60.881 -51.802  1.00  0.00     0.002 A 
HETATM    5  C   UNL     1     -45.667  60.761 -50.621  1.00  0.00     0.001 A 
HETATM    6  C   UNL     1     -44.472  60.049 -50.611  1.00  0.00     0.011 A 
ENDROOT
BRANCH   1   7
HETATM    7  C   UNL     1     -42.669  58.681 -51.686  1.00  0.00     0.275 C 
BRANCH   7   8
HETATM    8  N   UNL     1     -42.698  57.451 -50.776  1.00  0.00    -0.067 N 
HETATM    9  C   UNL     1     -43.663  56.428 -51.326  1.00  0.00     0.236 C 
HETATM   10  C   UNL     1     -43.731  55.218 -50.405  1.00  0.00     0.037 C 
HETATM   11  C   UNL     1     -42.352  54.561 -50.229  1.00  0.00     0.025 C 
HETATM   12  C   UNL     1     -41.402  55.621 -49.659  1.00  0.00     0.037 C 
HETATM   13  C   UNL     1     -41.322  56.873 -50.526  1.00  0.00     0.236 C 
HETATM   14  H   UNL     1     -43.051  57.784 -49.873  1.00  0.00     0.280 HD
BRANCH  11  15
HETATM   15  C   UNL     1     -41.862  53.919 -51.499  1.00  0.00    -0.018 A 
HETATM   16  C   UNL     1     -42.489  53.955 -52.772  1.00  0.00     0.147 A 
HETATM   17  N   UNL     1     -41.767  53.359 -53.718  1.00  0.00    -0.185 NA
HETATM   18  N   UNL     1     -40.733  52.825 -53.052  1.00  0.00    -0.285 N 
HETATM   19  C   UNL     1     -39.750  52.043 -53.765  1.00  0.00     0.179 C 
HETATM   20  C   UNL     1     -40.741  53.139 -51.720  1.00  0.00     0.120 A 
ENDBRANCH  11  15
ENDBRANCH   7   8
ENDBRANCH   1   7
BRANCH   2  21
HETATM   21  N   UNL     1     -44.158  59.075 -54.207  1.00  0.00    -0.380 N 
HETATM   22  C   UNL     1     -43.607  60.161 -55.031  1.00  0.00     0.150 C 
BRANCH  21  23
HETATM   23  C   UNL     1     -44.875  57.938 -54.837  1.00  0.00     0.087 C 
HETATM   24  C   UNL     1     -44.015  56.662 -54.864  1.00  0.00     0.053 C 
HETATM   25  C   UNL     1     -43.196  56.463 -56.133  1.00  0.00     0.236 C 
HETATM   26  N   UNL     1     -44.072  56.622 -57.342  1.00  0.00    -0.075 N 
HETATM   27  H   UNL     1     -44.831  55.927 -57.293  1.00  0.00     0.279 HD
HETATM   28  C   UNL     1     -43.328  56.293 -58.617  1.00  0.00     0.269 C 
HETATM   29  C   UNL     1     -44.685  57.995 -57.404  1.00  0.00     0.236 C 
HETATM   30  C   UNL     1     -45.555  58.220 -56.180  1.00  0.00     0.053 C 
ENDBRANCH  21  23
ENDBRANCH   2  21
TORSDOF 5
ENDMDL
MODEL 3
REMARK VINA RESULT:      -7.0      3.747      6.727
REMARK  5 active torsions:
REMARK  status: ('A' for Active; 'I' for Inactive)
REMARK    1  A    between atoms: C_5  and  C_6 
REMARK    2  A    between atoms: N_9  and  C_11 
REMARK    3  A    between atoms: C_11  and  C_12 
REMARK    4  A    between atoms: C_13  and  N_14 
REMARK    5  A    between atoms: N_14  and  C_15 
ROOT
HETATM    1  C   UNL     1     -42.434  57.664 -51.472  1.00  0.00    -0.006 A 
HETATM    2  C   UNL     1     -42.879  58.912 -51.966  1.00  0.00     0.038 A 
HETATM    3  C   UNL     1     -42.236  60.077 -51.504  1.00  0.00     0.030 A 
HETATM    4  C   UNL     1     -41.190  60.022 -50.582  1.00  0.00     0.002 A 
HETATM    5  C   UNL     1     -40.741  58.796 -50.119  1.00  0.00     0.001 A 
HETATM    6  C   UNL     1     -41.348  57.628 -50.568  1.00  0.00     0.011 A 
ENDROOT
BRANCH   1   7
HETATM    7  C   UNL     1     -43.027  56.353 -51.921  1.00  0.00     0.275 C 
BRANCH   7   8
HETATM    8  N   UNL     1     -42.498  55.844 -53.263  1.00  0.00    -0.067 N 
HETATM    9  C   UNL     1     -40.991  55.758 -53.222  1.00  0.00     0.236 C 
HETATM   10  C   UNL     1     -40.452  55.293 -54.567  1.00  0.00     0.037 C 
HETATM   11  C   UNL     1     -41.020  53.920 -54.962  1.00  0.00     0.025 C 
HETATM   12  C   UNL     1     -42.547  54.045 -55.007  1.00  0.00     0.037 C 
HETATM   13  C   UNL     1     -43.140  54.543 -53.692  1.00  0.00     0.236 C 
HETATM   14  H   UNL     1     -42.768  56.552 -53.953  1.00  0.00     0.280 HD
BRANCH  11  15
HETATM   15  C   UNL     1     -40.522  52.819 -54.065  1.00  0.00    -0.018 A 
HETATM   16  C   UNL     1     -40.089  52.943 -52.719  1.00  0.00     0.147 A 
HETATM   17  N   UNL     1     -39.783  51.772 -52.167  1.00  0.00    -0.185 NA
HETATM   18  N   UNL     1     -39.893  50.896 -53.177  1.00  0.00    -0.285 N 
HETATM   19  C   UNL     1     -39.579  49.504 -52.953  1.00  0.00     0.179 C 
HETATM   20  C   UNL     1     -40.340  51.474 -54.334  1.00  0.00     0.120 A 
ENDBRANCH  11  15
ENDBRANCH   7   8
ENDBRANCH   1   7
BRANCH   2  21
HETATM   21  N   UNL     1     -43.864  58.981 -52.981  1.00  0.00    -0.380 N 
HETATM   22  C   UNL     1     -43.352  59.648 -54.187  1.00  0.00     0.150 C 
BRANCH  21  23
HETATM   23  C   UNL     1     -45.262  59.197 -52.533  1.00  0.00     0.087 C 
HETATM   24  C   UNL     1     -45.801  60.567 -52.979  1.00  0.00     0.053 C 
HETATM   25  C   UNL     1     -45.617  61.693 -51.969  1.00  0.00     0.236 C 
HETATM   26  N   UNL     1     -46.117  61.263 -50.620  1.00  0.00    -0.075 N 
HETATM   27  H   UNL     1     -47.113  61.014 -50.702  1.00  0.00     0.279 HD
HETATM   28  C   UNL     1     -46.081  62.399 -49.624  1.00  0.00     0.269 C 
HETATM   29  C   UNL     1     -45.365  60.062 -50.110  1.00  0.00     0.236 C 
HETATM   30  C   UNL     1     -45.562  58.895 -51.061  1.00  0.00     0.053 C 
ENDBRANCH  21  23
ENDBRANCH   2  21
TORSDOF 5
ENDMDL
MODEL 4
REMARK VINA RESULT:      -7.0      2.861      7.029
REMARK  5 active torsions:
REMARK  status: ('A' for Active; 'I' for Inactive)
REMARK    1  A    between atoms: C_5  and  C_6 
REMARK    2  A    between atoms: N_9  and  C_11 
REMARK    3  A    between atoms: C_11  and  C_12 
REMARK    4  A    between atoms: C_13  and  N_14 
REMARK    5  A    between atoms: N_14  and  C_15 
ROOT
HETATM    1  C   UNL     1     -43.660  56.190 -54.072  1.00  0.00    -0.006 A 
HETATM    2  C   UNL     1     -43.416  57.077 -55.146  1.00  0.00     0.038 A 
HETATM    3  C   UNL     1     -42.975  56.533 -56.370  1.00  0.00     0.030 A 
HETATM    4  C   UNL     1     -42.775  55.162 -56.534  1.00  0.00     0.002 A 
HETATM    5  C   UNL     1     -43.039  54.295 -55.487  1.00  0.00     0.001 A 
HETATM    6  C   UNL     1     -43.488  54.802 -54.272  1.00  0.00     0.011 A 
ENDROOT
BRANCH   1   7
HETATM    7  C   UNL     1     -44.164  56.658 -52.731  1.00  0.00     0.275 C 
BRANCH   7   8
HETATM    8  N   UNL     1     -43.186  56.437 -51.574  1.00  0.00    -0.067 N 
HETATM    9  C   UNL     1     -43.428  55.083 -50.949  1.00  0.00     0.236 C 
HETATM   10  C   UNL     1     -42.488  54.872 -49.770  1.00  0.00     0.037 C 
HETATM   11  C   UNL     1     -41.014  54.971 -50.195  1.00  0.00     0.025 C 
HETATM   12  C   UNL     1     -40.801  56.357 -50.813  1.00  0.00     0.037 C 
HETATM   13  C   UNL     1     -41.742  56.638 -51.979  1.00  0.00     0.236 C 
HETATM   14  H   UNL     1     -43.407  57.162 -50.884  1.00  0.00     0.280 HD
BRANCH  11  15
HETATM   15  C   UNL     1     -40.601  53.832 -51.089  1.00  0.00    -0.018 A 
HETATM   16  C   UNL     1     -40.142  52.552 -50.685  1.00  0.00     0.147 A 
HETATM   17  N   UNL     1     -39.932  51.733 -51.712  1.00  0.00    -0.185 NA
HETATM   18  N   UNL     1     -40.129  52.505 -52.791  1.00  0.00    -0.285 N 
HETATM   19  C   UNL     1     -39.934  51.952 -54.111  1.00  0.00     0.179 C 
HETATM   20  C   UNL     1     -40.539  53.770 -52.470  1.00  0.00     0.120 A 
ENDBRANCH  11  15
ENDBRANCH   7   8
ENDBRANCH   1   7
BRANCH   2  21
HETATM   21  N   UNL     1     -43.716  58.456 -55.031  1.00  0.00    -0.380 N 
HETATM   22  C   UNL     1     -44.981  58.792 -55.701  1.00  0.00     0.150 C 
BRANCH  21  23
HETATM   23  C   UNL     1     -42.564  59.390 -55.078  1.00  0.00     0.087 C 
HETATM   24  C   UNL     1     -42.118  59.822 -53.671  1.00  0.00     0.053 C 
HETATM   25  C   UNL     1     -42.758  61.106 -53.157  1.00  0.00     0.236 C 
HETATM   26  N   UNL     1     -42.632  62.192 -54.185  1.00  0.00    -0.075 N 
HETATM   27  H   UNL     1     -41.632  62.344 -54.383  1.00  0.00     0.279 HD
HETATM   28  C   UNL     1     -43.129  63.520 -53.658  1.00  0.00     0.269 C 
HETATM   29  C   UNL     1     -43.321  61.820 -55.470  1.00  0.00     0.236 C 
HETATM   30  C   UNL     1     -42.681  60.570 -56.049  1.00  0.00     0.053 C 
ENDBRANCH  21  23
ENDBRANCH   2  21
TORSDOF 5
ENDMDL
MODEL 5
REMARK VINA RESULT:      -7.0     16.902     19.974
REMARK  5 active torsions:
REMARK  status: ('A' for Active; 'I' for Inactive)
REMARK    1  A    between atoms: C_5  and  C_6 
REMARK    2  A    between atoms: N_9  and  C_11 
REMARK    3  A    between atoms: C_11  and  C_12 
REMARK    4  A    between atoms: C_13  and  N_14 
REMARK    5  A    between atoms: N_14  and  C_15 
ROOT
HETATM    1  C   UNL     1     -34.123  39.957 -53.206  1.00  0.00    -0.006 A 
HETATM    2  C   UNL     1     -32.812  39.442 -53.076  1.00  0.00     0.038 A 
HETATM    3  C   UNL     1     -32.055  39.828 -51.952  1.00  0.00     0.030 A 
HETATM    4  C   UNL     1     -32.566  40.695 -50.985  1.00  0.00     0.002 A 
HETATM    5  C   UNL     1     -33.859  41.177 -51.103  1.00  0.00     0.001 A 
HETATM    6  C   UNL     1     -34.634  40.803 -52.196  1.00  0.00     0.011 A 
ENDROOT
BRANCH   1   7
HETATM    7  C   UNL     1     -35.032  39.586 -54.350  1.00  0.00     0.275 C 
BRANCH   7   8
HETATM    8  N   UNL     1     -35.727  40.775 -55.018  1.00  0.00    -0.067 N 
HETATM    9  C   UNL     1     -35.072  41.071 -56.347  1.00  0.00     0.236 C 
HETATM   10  C   UNL     1     -35.729  42.279 -57.000  1.00  0.00     0.037 C 
HETATM   11  C   UNL     1     -37.234  42.056 -57.223  1.00  0.00     0.025 C 
HETATM   12  C   UNL     1     -37.868  41.770 -55.856  1.00  0.00     0.037 C 
HETATM   13  C   UNL     1     -37.223  40.589 -55.139  1.00  0.00     0.236 C 
HETATM   14  H   UNL     1     -35.575  41.572 -54.392  1.00  0.00     0.280 HD
BRANCH  11  15
HETATM   15  C   UNL     1     -37.505  40.996 -58.257  1.00  0.00    -0.018 A 
HETATM   16  C   UNL     1     -38.216  39.782 -58.069  1.00  0.00     0.147 A 
HETATM   17  N   UNL     1     -38.358  39.090 -59.197  1.00  0.00    -0.185 NA
HETATM   18  N   UNL     1     -37.639  39.778 -60.095  1.00  0.00    -0.285 N 
HETATM   19  C   UNL     1     -37.521  39.283 -61.447  1.00  0.00     0.179 C 
HETATM   20  C   UNL     1     -37.113  40.933 -59.582  1.00  0.00     0.120 A 
ENDBRANCH  11  15
ENDBRANCH   7   8
ENDBRANCH   1   7
BRANCH   2  21
HETATM   21  N   UNL     1     -32.317  38.479 -53.988  1.00  0.00    -0.380 N 
HETATM   22  C   UNL     1     -32.293  37.134 -53.395  1.00  0.00     0.150 C 
BRANCH  21  23
HETATM   23  C   UNL     1     -31.231  38.924 -54.897  1.00  0.00     0.087 C 
HETATM   24  C   UNL     1     -31.776  39.728 -56.090  1.00  0.00     0.053 C 
HETATM   25  C   UNL     1     -32.079  38.907 -57.337  1.00  0.00     0.236 C 
HETATM   26  N   UNL     1     -30.902  38.042 -57.684  1.00  0.00    -0.075 N 
HETATM   27  H   UNL     1     -30.084  38.647 -57.844  1.00  0.00     0.279 HD
HETATM   28  C   UNL     1     -31.110  37.317 -58.995  1.00  0.00     0.269 C 
HETATM   29  C   UNL     1     -30.575  37.082 -56.572  1.00  0.00     0.236 C 
HETATM   30  C   UNL     1     -30.214  37.858 -55.318  1.00  0.00     0.053 C 
ENDBRANCH  21  23
ENDBRANCH   2  21
TORSDOF 5
ENDMDL
MODEL 6
REMARK VINA RESULT:      -7.0      1.956      2.483
REMARK  5 active torsions:
REMARK  status: ('A' for Active; 'I' for Inactive)
REMARK    1  A    between atoms: C_5  and  C_6 
REMARK    2  A    between atoms: N_9  and  C_11 
REMARK    3  A    between atoms: C_11  and  C_12 
REMARK    4  A    between atoms: C_13  and  N_14 
REMARK    5  A    between atoms: N_14  and  C_15 
ROOT
HETATM    1  C   UNL     1     -42.951  55.573 -54.344  1.00  0.00    -0.006 A 
HETATM    2  C   UNL     1     -41.951  55.949 -53.418  1.00  0.00     0.038 A 
HETATM    3  C   UNL     1     -40.971  54.995 -53.075  1.00  0.00     0.030 A 
HETATM    4  C   UNL     1     -40.973  53.711 -53.621  1.00  0.00     0.002 A 
HETATM    5  C   UNL     1     -41.940  53.355 -54.546  1.00  0.00     0.001 A 
HETATM    6  C   UNL     1     -42.913  54.280 -54.914  1.00  0.00     0.011 A 
ENDROOT
BRANCH   1   7
HETATM    7  C   UNL     1     -44.028  56.520 -54.806  1.00  0.00     0.275 C 
BRANCH   7   8
HETATM    8  N   UNL     1     -44.050  56.767 -56.317  1.00  0.00    -0.067 N 
HETATM    9  C   UNL     1     -44.902  57.975 -56.628  1.00  0.00     0.236 C 
HETATM   10  C   UNL     1     -44.965  58.203 -58.131  1.00  0.00     0.037 C 
HETATM   11  C   UNL     1     -43.565  58.410 -58.733  1.00  0.00     0.025 C 
HETATM   12  C   UNL     1     -42.733  57.163 -58.410  1.00  0.00     0.037 C 
HETATM   13  C   UNL     1     -42.665  56.866 -56.916  1.00  0.00     0.236 C 
HETATM   14  H   UNL     1     -44.494  55.938 -56.725  1.00  0.00     0.280 HD
BRANCH  11  15
HETATM   15  C   UNL     1     -42.935  59.700 -58.280  1.00  0.00    -0.018 A 
HETATM   16  C   UNL     1     -41.580  59.906 -57.911  1.00  0.00     0.147 A 
HETATM   17  N   UNL     1     -41.310  61.179 -57.634  1.00  0.00    -0.185 NA
HETATM   18  N   UNL     1     -42.504  61.787 -57.697  1.00  0.00    -0.285 N 
HETATM   19  C   UNL     1     -42.605  63.196 -57.397  1.00  0.00     0.179 C 
HETATM   20  C   UNL     1     -43.509  60.944 -58.088  1.00  0.00     0.120 A 
ENDBRANCH  11  15
ENDBRANCH   7   8
ENDBRANCH   1   7
BRANCH   2  21
HETATM   21  N   UNL     1     -41.870  57.278 -52.937  1.00  0.00    -0.380 N 
HETATM   22  C   UNL     1     -40.757  58.011 -53.559  1.00  0.00     0.150 C 
BRANCH  21  23
HETATM   23  C   UNL     1     -42.207  57.487 -51.507  1.00  0.00     0.087 C 
HETATM   24  C   UNL     1     -43.547  56.829 -51.132  1.00  0.00     0.053 C 
HETATM   25  C   UNL     1     -44.765  57.737 -51.246  1.00  0.00     0.236 C 
HETATM   26  N   UNL     1     -44.511  59.032 -50.529  1.00  0.00    -0.075 N 
HETATM   27  H   UNL     1     -44.308  58.828 -49.540  1.00  0.00     0.279 HD
HETATM   28  C   UNL     1     -45.747  59.904 -50.499  1.00  0.00     0.269 C 
HETATM   29  C   UNL     1     -43.336  59.767 -51.116  1.00  0.00     0.236 C 
HETATM   30  C   UNL     1     -42.084  58.919 -50.979  1.00  0.00     0.053 C 
ENDBRANCH  21  23
ENDBRANCH   2  21
TORSDOF 5
ENDMDL
MODEL 7
REMARK VINA RESULT:      -6.8      1.865      4.403
REMARK  5 active torsions:
REMARK  status: ('A' for Active; 'I' for Inactive)
REMARK    1  A    between atoms: C_5  and  C_6 
REMARK    2  A    between atoms: N_9  and  C_11 
REMARK    3  A    between atoms: C_11  and  C_12 
REMARK    4  A    between atoms: C_13  and  N_14 
REMARK    5  A    between atoms: N_14  and  C_15 
ROOT
HETATM    1  C   UNL     1     -44.374  58.548 -53.270  1.00  0.00    -0.006 A 
HETATM    2  C   UNL     1     -43.605  58.252 -52.121  1.00  0.00     0.038 A 
HETATM    3  C   UNL     1     -43.367  59.288 -51.196  1.00  0.00     0.030 A 
HETATM    4  C   UNL     1     -43.865  60.577 -51.392  1.00  0.00     0.002 A 
HETATM    5  C   UNL     1     -44.637  60.856 -52.507  1.00  0.00     0.001 A 
HETATM    6  C   UNL     1     -44.900  59.850 -53.431  1.00  0.00     0.011 A 
ENDROOT
BRANCH   1   7
HETATM    7  C   UNL     1     -44.717  57.511 -54.309  1.00  0.00     0.275 C 
BRANCH   7   8
HETATM    8  N   UNL     1     -43.623  57.272 -55.352  1.00  0.00    -0.067 N 
HETATM    9  C   UNL     1     -43.616  55.819 -55.766  1.00  0.00     0.236 C 
HETATM   10  C   UNL     1     -42.504  55.563 -56.773  1.00  0.00     0.037 C 
HETATM   11  C   UNL     1     -42.659  56.440 -58.026  1.00  0.00     0.025 C 
HETATM   12  C   UNL     1     -42.650  57.904 -57.572  1.00  0.00     0.037 C 
HETATM   13  C   UNL     1     -43.724  58.210 -56.535  1.00  0.00     0.236 C 
HETATM   14  H   UNL     1     -42.738  57.482 -54.878  1.00  0.00     0.280 HD
BRANCH  11  15
HETATM   15  C   UNL     1     -43.866  56.059 -58.841  1.00  0.00    -0.018 A 
HETATM   16  C   UNL     1     -44.121  54.806 -59.457  1.00  0.00     0.147 A 
HETATM   17  N   UNL     1     -45.315  54.753 -60.041  1.00  0.00    -0.185 NA
HETATM   18  N   UNL     1     -45.793  56.000 -59.921  1.00  0.00    -0.285 N 
HETATM   19  C   UNL     1     -47.074  56.334 -60.498  1.00  0.00     0.179 C 
HETATM   20  C   UNL     1     -44.964  56.819 -59.203  1.00  0.00     0.120 A 
ENDBRANCH  11  15
ENDBRANCH   7   8
ENDBRANCH   1   7
BRANCH   2  21
HETATM   21  N   UNL     1     -43.184  56.927 -51.851  1.00  0.00    -0.380 N 
HETATM   22  C   UNL     1     -44.069  56.266 -50.880  1.00  0.00     0.150 C 
BRANCH  21  23
HETATM   23  C   UNL     1     -41.720  56.690 -51.822  1.00  0.00     0.087 C 
HETATM   24  C   UNL     1     -41.291  55.629 -52.850  1.00  0.00     0.053 C 
HETATM   25  C   UNL     1     -41.233  54.202 -52.320  1.00  0.00     0.236 C 
HETATM   26  N   UNL     1     -40.439  54.158 -51.046  1.00  0.00    -0.075 N 
HETATM   27  H   UNL     1     -39.490  54.508 -51.236  1.00  0.00     0.279 HD
HETATM   28  C   UNL     1     -40.240  52.739 -50.562  1.00  0.00     0.269 C 
HETATM   29  C   UNL     1     -41.060  55.019 -49.978  1.00  0.00     0.236 C 
HETATM   30  C   UNL     1     -41.092  56.464 -50.444  1.00  0.00     0.053 C 
ENDBRANCH  21  23
ENDBRANCH   2  21
TORSDOF 5
ENDMDL
MODEL 8
REMARK VINA RESULT:      -6.8      1.535      3.694
REMARK  5 active torsions:
REMARK  status: ('A' for Active; 'I' for Inactive)
REMARK    1  A    between atoms: C_5  and  C_6 
REMARK    2  A    between atoms: N_9  and  C_11 
REMARK    3  A    between atoms: C_11  and  C_12 
REMARK    4  A    between atoms: C_13  and  N_14 
REMARK    5  A    between atoms: N_14  and  C_15 
ROOT
HETATM    1  C   UNL     1     -42.229  58.101 -53.635  1.00  0.00    -0.006 A 
HETATM    2  C   UNL     1     -42.374  57.276 -52.496  1.00  0.00     0.038 A 
HETATM    3  C   UNL     1     -41.414  57.385 -51.470  1.00  0.00     0.030 A 
HETATM    4  C   UNL     1     -40.342  58.273 -51.559  1.00  0.00     0.002 A 
HETATM    5  C   UNL     1     -40.217  59.098 -52.666  1.00  0.00     0.001 A 
HETATM    6  C   UNL     1     -41.158  59.021 -53.688  1.00  0.00     0.011 A 
ENDROOT
BRANCH   1   7
HETATM    7  C   UNL     1     -43.213  58.091 -54.777  1.00  0.00     0.275 C 
BRANCH   7   8
HETATM    8  N   UNL     1     -42.640  57.590 -56.105  1.00  0.00    -0.067 N 
HETATM    9  C   UNL     1     -43.405  56.373 -56.568  1.00  0.00     0.236 C 
HETATM   10  C   UNL     1     -42.815  55.842 -57.866  1.00  0.00     0.037 C 
HETATM   11  C   UNL     1     -42.843  56.903 -58.978  1.00  0.00     0.025 C 
HETATM   12  C   UNL     1     -42.049  58.117 -58.481  1.00  0.00     0.037 C 
HETATM   13  C   UNL     1     -42.576  58.671 -57.162  1.00  0.00     0.236 C 
HETATM   14  H   UNL     1     -41.674  57.314 -55.901  1.00  0.00     0.280 HD
BRANCH  11  15
HETATM   15  C   UNL     1     -44.244  57.228 -59.420  1.00  0.00    -0.018 A 
HETATM   16  C   UNL     1     -45.303  56.310 -59.647  1.00  0.00     0.147 A 
HETATM   17  N   UNL     1     -46.449  56.912 -59.953  1.00  0.00    -0.185 NA
HETATM   18  N   UNL     1     -46.121  58.208 -60.052  1.00  0.00    -0.285 N 
HETATM   19  C   UNL     1     -47.127  59.173 -60.429  1.00  0.00     0.179 C 
HETATM   20  C   UNL     1     -44.812  58.449 -59.734  1.00  0.00     0.120 A 
ENDBRANCH  11  15
ENDBRANCH   7   8
ENDBRANCH   1   7
BRANCH   2  21
HETATM   21  N   UNL     1     -43.512  56.448 -52.340  1.00  0.00    -0.380 N 
HETATM   22  C   UNL     1     -44.309  56.839 -51.168  1.00  0.00     0.150 C 
BRANCH  21  23
HETATM   23  C   UNL     1     -43.344  55.017 -52.697  1.00  0.00     0.087 C 
HETATM   24  C   UNL     1     -43.373  54.110 -51.455  1.00  0.00     0.053 C 
HETATM   25  C   UNL     1     -42.010  53.811 -50.842  1.00  0.00     0.236 C 
HETATM   26  N   UNL     1     -41.059  53.342 -51.905  1.00  0.00    -0.075 N 
HETATM   27  H   UNL     1     -41.448  52.496 -52.346  1.00  0.00     0.279 HD
HETATM   28  C   UNL     1     -39.738  52.901 -51.317  1.00  0.00     0.269 C 
HETATM   29  C   UNL     1     -40.863  54.387 -52.971  1.00  0.00     0.236 C 
HETATM   30  C   UNL     1     -42.190  54.681 -53.647  1.00  0.00     0.053 C 
ENDBRANCH  21  23
ENDBRANCH   2  21
TORSDOF 5
ENDMDL
MODEL 9
REMARK VINA RESULT:      -6.8      2.635      6.897
REMARK  5 active torsions:
REMARK  status: ('A' for Active; 'I' for Inactive)
REMARK    1  A    between atoms: C_5  and  C_6 
REMARK    2  A    between atoms: N_9  and  C_11 
REMARK    3  A    between atoms: C_11  and  C_12 
REMARK    4  A    between atoms: C_13  and  N_14 
REMARK    5  A    between atoms: N_14  and  C_15 
ROOT
HETATM    1  C   UNL     1     -43.080  56.695 -57.237  1.00  0.00    -0.006 A 
HETATM    2  C   UNL     1     -44.115  57.656 -57.178  1.00  0.00     0.038 A 
HETATM    3  C   UNL     1     -45.026  57.719 -58.251  1.00  0.00     0.030 A 
HETATM    4  C   UNL     1     -44.924  56.867 -59.352  1.00  0.00     0.002 A 
HETATM    5  C   UNL     1     -43.922  55.911 -59.395  1.00  0.00     0.001 A 
HETATM    6  C   UNL     1     -43.017  55.817 -58.343  1.00  0.00     0.011 A 
ENDROOT
BRANCH   1   7
HETATM    7  C   UNL     1     -42.070  56.519 -56.132  1.00  0.00     0.275 C 
BRANCH   7   8
HETATM    8  N   UNL     1     -41.739  55.061 -55.802  1.00  0.00    -0.067 N 
HETATM    9  C   UNL     1     -40.425  54.989 -55.061  1.00  0.00     0.236 C 
HETATM   10  C   UNL     1     -40.066  53.539 -54.765  1.00  0.00     0.037 C 
HETATM   11  C   UNL     1     -41.152  52.845 -53.928  1.00  0.00     0.025 C 
HETATM   12  C   UNL     1     -42.467  52.926 -54.713  1.00  0.00     0.037 C 
HETATM   13  C   UNL     1     -42.858  54.357 -55.067  1.00  0.00     0.236 C 
HETATM   14  H   UNL     1     -41.633  54.591 -56.707  1.00  0.00     0.280 HD
BRANCH  11  15
HETATM   15  C   UNL     1     -41.237  53.402 -52.532  1.00  0.00    -0.018 A 
HETATM   16  C   UNL     1     -42.394  53.909 -51.884  1.00  0.00     0.147 A 
HETATM   17  N   UNL     1     -42.165  54.255 -50.619  1.00  0.00    -0.185 NA
HETATM   18  N   UNL     1     -40.841  54.097 -50.473  1.00  0.00    -0.285 N 
HETATM   19  C   UNL     1     -40.216  54.435 -49.215  1.00  0.00     0.179 C 
HETATM   20  C   UNL     1     -40.241  53.581 -51.589  1.00  0.00     0.120 A 
ENDBRANCH  11  15
ENDBRANCH   7   8
ENDBRANCH   1   7
BRANCH   2  21
HETATM   21  N   UNL     1     -44.299  58.454 -56.023  1.00  0.00    -0.380 N 
HETATM   22  C   UNL     1     -45.481  58.031 -55.256  1.00  0.00     0.150 C 
BRANCH  21  23
HETATM   23  C   UNL     1     -43.956  59.892 -56.149  1.00  0.00     0.087 C 
HETATM   24  C   UNL     1     -42.544  60.193 -55.618  1.00  0.00     0.053 C 
HETATM   25  C   UNL     1     -42.480  60.611 -54.154  1.00  0.00     0.236 C 
HETATM   26  N   UNL     1     -43.467  61.711 -53.889  1.00  0.00    -0.075 N 
HETATM   27  H   UNL     1     -43.243  62.510 -54.500  1.00  0.00     0.279 HD
HETATM   28  C   UNL     1     -43.337  62.251 -52.483  1.00  0.00     0.269 C 
HETATM   29  C   UNL     1     -44.877  61.271 -54.179  1.00  0.00     0.236 C 
HETATM   30  C   UNL     1     -45.002  60.891 -55.644  1.00  0.00     0.053 C 
ENDBRANCH  21  23
ENDBRANCH   2  21
TORSDOF 5
ENDMDL
MODEL 10
REMARK VINA RESULT:      -6.7      2.350      7.558
REMARK  5 active torsions:
REMARK  status: ('A' for Active; 'I' for Inactive)
REMARK    1  A    between atoms: C_5  and  C_6 
REMARK    2  A    between atoms: N_9  and  C_11 
REMARK    3  A    between atoms: C_11  and  C_12 
REMARK    4  A    between atoms: C_13  and  N_14 
REMARK    5  A    between atoms: N_14  and  C_15 
ROOT
HETATM    1  C   UNL     1     -43.165  58.172 -52.685  1.00  0.00    -0.006 A 
HETATM    2  C   UNL     1     -43.796  58.925 -53.702  1.00  0.00     0.038 A 
HETATM    3  C   UNL     1     -45.026  59.546 -53.404  1.00  0.00     0.030 A 
HETATM    4  C   UNL     1     -45.621  59.429 -52.147  1.00  0.00     0.002 A 
HETATM    5  C   UNL     1     -44.987  58.711 -51.146  1.00  0.00     0.001 A 
HETATM    6  C   UNL     1     -43.766  58.098 -51.408  1.00  0.00     0.011 A 
ENDROOT
BRANCH   1   7
HETATM    7  C   UNL     1     -41.834  57.494 -52.884  1.00  0.00     0.275 C 
BRANCH   7   8
HETATM    8  N   UNL     1     -41.859  56.325 -53.872  1.00  0.00    -0.067 N 
HETATM    9  C   UNL     1     -40.451  55.841 -54.130  1.00  0.00     0.236 C 
HETATM   10  C   UNL     1     -40.462  54.706 -55.144  1.00  0.00     0.037 C 
HETATM   11  C   UNL     1     -41.318  53.523 -54.662  1.00  0.00     0.025 C 
HETATM   12  C   UNL     1     -42.739  54.045 -54.421  1.00  0.00     0.037 C 
HETATM   13  C   UNL     1     -42.784  55.209 -53.438  1.00  0.00     0.236 C 
HETATM   14  H   UNL     1     -42.240  56.707 -54.743  1.00  0.00     0.280 HD
BRANCH  11  15
HETATM   15  C   UNL     1     -40.711  52.829 -53.472  1.00  0.00    -0.018 A 
HETATM   16  C   UNL     1     -40.495  53.378 -52.181  1.00  0.00     0.147 A 
HETATM   17  N   UNL     1     -40.014  52.488 -51.317  1.00  0.00    -0.185 NA
HETATM   18  N   UNL     1     -39.795  51.395 -52.062  1.00  0.00    -0.285 N 
HETATM   19  C   UNL     1     -39.214  50.221 -51.455  1.00  0.00     0.179 C 
HETATM   20  C   UNL     1     -40.203  51.547 -53.359  1.00  0.00     0.120 A 
ENDBRANCH  11  15
ENDBRANCH   7   8
ENDBRANCH   1   7
BRANCH   2  21
HETATM   21  N   UNL     1     -43.156  59.144 -54.946  1.00  0.00    -0.380 N 
HETATM   22  C   UNL     1     -42.265  60.313 -54.898  1.00  0.00     0.150 C 
BRANCH  21  23
HETATM   23  C   UNL     1     -43.955  58.852 -56.162  1.00  0.00     0.087 C 
HETATM   24  C   UNL     1     -43.857  57.372 -56.571  1.00  0.00     0.053 C 
HETATM   25  C   UNL     1     -42.758  57.052 -57.576  1.00  0.00     0.236 C 
HETATM   26  N   UNL     1     -42.837  57.993 -58.744  1.00  0.00    -0.075 N 
HETATM   27  H   UNL     1     -43.764  57.896 -59.183  1.00  0.00     0.279 HD
HETATM   28  C   UNL     1     -41.853  57.619 -59.830  1.00  0.00     0.269 C 
HETATM   29  C   UNL     1     -42.662  59.425 -58.314  1.00  0.00     0.236 C 
HETATM   30  C   UNL     1     -43.769  59.806 -57.347  1.00  0.00     0.053 C 
ENDBRANCH  21  23
ENDBRANCH   2  21
TORSDOF 5
ENDMDL
