MODEL 1
REMARK VINA RESULT:      -8.7      0.000      0.000
REMARK  6 active torsions:
REMARK  status: ('A' for Active; 'I' for Inactive)
REMARK    1  A    between atoms: O_2  and  C_3 
REMARK    2  A    between atoms: C_6  and  C_7 
REMARK    3  A    between atoms: C_13  and  C_14 
REMARK       I    between atoms: C_14  and  N_15 
REMARK    4  A    between atoms: N_15  and  C_16 
REMARK    5  A    between atoms: C_16  and  C_17 
REMARK    6  A    between atoms: C_24  and  C_25 
ROOT
HETATM    1  C   UNL     1     -42.710  55.783 -51.983  1.00  0.00     0.118 C 
HETATM    2  N   UNL     1     -43.364  56.453 -53.113  1.00  0.00    -0.365 N 
HETATM    3  C   UNL     1     -42.766  57.485 -53.763  1.00  0.00     0.138 A 
HETATM    4  N   UNL     1     -41.623  58.059 -53.251  1.00  0.00    -0.240 N 
HETATM    5  N   UNL     1     -41.122  59.042 -54.012  1.00  0.00    -0.181 NA
HETATM    6  C   UNL     1     -42.024  59.163 -54.987  1.00  0.00     0.160 A 
HETATM    7  C   UNL     1     -43.071  58.211 -54.901  1.00  0.00     0.096 A 
HETATM    8  C   UNL     1     -40.993  57.654 -52.007  1.00  0.00     0.221 C 
HETATM    9  C   UNL     1     -42.001  56.863 -51.149  1.00  0.00     0.066 C 
HETATM   10  H   UNL     1     -44.342  56.210 -53.261  1.00  0.00     0.161 HD
ENDROOT
BRANCH   7  11
HETATM   11  C   UNL     1     -44.174  58.090 -55.833  1.00  0.00     0.257 C 
HETATM   12  N   UNL     1     -43.913  58.535 -57.107  1.00  0.00    -0.352 N 
HETATM   13  H   UNL     1     -43.041  59.015 -57.276  1.00  0.00     0.163 HD
HETATM   14  O   UNL     1     -45.264  57.652 -55.485  1.00  0.00    -0.267 OA
BRANCH  12  15
HETATM   15  C   UNL     1     -44.911  58.509 -58.149  1.00  0.00     0.161 C 
BRANCH  15  16
HETATM   16  C   UNL     1     -44.900  57.223 -58.940  1.00  0.00    -0.041 A 
HETATM   17  C   UNL     1     -46.053  56.826 -59.634  1.00  0.00     0.009 A 
HETATM   18  C   UNL     1     -46.050  55.674 -60.423  1.00  0.00     0.001 A 
HETATM   19  C   UNL     1     -44.892  54.908 -60.533  1.00  0.00     0.000 A 
HETATM   20  C   UNL     1     -43.735  55.297 -59.862  1.00  0.00     0.001 A 
HETATM   21  C   UNL     1     -43.735  56.453 -59.077  1.00  0.00     0.009 A 
ENDBRANCH  15  16
ENDBRANCH  12  15
ENDBRANCH   7  11
BRANCH   1  22
HETATM   22  C   UNL     1     -41.824  54.627 -52.444  1.00  0.00    -0.035 A 
HETATM   23  C   UNL     1     -40.975  53.950 -51.552  1.00  0.00     0.012 A 
HETATM   24  C   UNL     1     -40.171  52.881 -51.971  1.00  0.00     0.037 A 
HETATM   25  C   UNL     1     -40.216  52.443 -53.292  1.00  0.00     0.068 A 
HETATM   26  C   UNL     1     -41.082  53.074 -54.180  1.00  0.00     0.037 A 
HETATM   27  C   UNL     1     -41.879  54.146 -53.764  1.00  0.00     0.012 A 
BRANCH  25  28
HETATM   28  O   UNL     1     -39.489  51.417 -53.827  1.00  0.00    -0.356 OA
HETATM   29  C   UNL     1     -40.217  50.286 -54.289  1.00  0.00     0.210 C 
ENDBRANCH  25  28
ENDBRANCH   1  22
BRANCH   8  30
HETATM   30  C   UNL     1     -40.479  58.834 -51.207  1.00  0.00     0.409 C 
HETATM   31  F   UNL     1     -41.247  59.938 -51.356  1.00  0.00    -0.169 F 
HETATM   32  F   UNL     1     -40.512  58.524 -49.880  1.00  0.00    -0.169 F 
HETATM   33  F   UNL     1     -39.199  59.160 -51.478  1.00  0.00    -0.169 F 
ENDBRANCH   8  30
TORSDOF 6
ENDMDL
MODEL 2
REMARK VINA RESULT:      -8.6      2.668      6.706
REMARK  6 active torsions:
REMARK  status: ('A' for Active; 'I' for Inactive)
REMARK    1  A    between atoms: O_2  and  C_3 
REMARK    2  A    between atoms: C_6  and  C_7 
REMARK    3  A    between atoms: C_13  and  C_14 
REMARK       I    between atoms: C_14  and  N_15 
REMARK    4  A    between atoms: N_15  and  C_16 
REMARK    5  A    between atoms: C_16  and  C_17 
REMARK    6  A    between atoms: C_24  and  C_25 
ROOT
HETATM    1  C   UNL     1     -41.682  57.940 -53.643  1.00  0.00     0.118 C 
HETATM    2  N   UNL     1     -41.482  56.936 -52.591  1.00  0.00    -0.365 N 
HETATM    3  C   UNL     1     -42.498  56.565 -51.768  1.00  0.00     0.138 A 
HETATM    4  N   UNL     1     -43.683  57.267 -51.769  1.00  0.00    -0.240 N 
HETATM    5  N   UNL     1     -44.607  56.771 -50.935  1.00  0.00    -0.181 NA
HETATM    6  C   UNL     1     -43.959  55.783 -50.314  1.00  0.00     0.160 A 
HETATM    7  C   UNL     1     -42.641  55.591 -50.797  1.00  0.00     0.096 A 
HETATM    8  C   UNL     1     -43.939  58.437 -52.590  1.00  0.00     0.221 C 
HETATM    9  C   UNL     1     -42.602  59.033 -53.074  1.00  0.00     0.066 C 
HETATM   10  H   UNL     1     -40.515  56.671 -52.416  1.00  0.00     0.161 HD
ENDROOT
BRANCH   7  11
HETATM   11  C   UNL     1     -41.715  54.579 -50.327  1.00  0.00     0.257 C 
HETATM   12  N   UNL     1     -40.888  54.053 -51.290  1.00  0.00    -0.352 N 
HETATM   13  H   UNL     1     -41.055  54.306 -52.253  1.00  0.00     0.163 HD
HETATM   14  O   UNL     1     -41.707  54.208 -49.160  1.00  0.00    -0.267 OA
BRANCH  12  15
HETATM   15  C   UNL     1     -39.926  53.018 -50.994  1.00  0.00     0.161 C 
BRANCH  15  16
HETATM   16  C   UNL     1     -39.863  51.953 -52.061  1.00  0.00    -0.041 A 
HETATM   17  C   UNL     1     -39.582  50.626 -51.701  1.00  0.00     0.009 A 
HETATM   18  C   UNL     1     -39.579  49.611 -52.659  1.00  0.00     0.001 A 
HETATM   19  C   UNL     1     -39.863  49.908 -53.990  1.00  0.00     0.000 A 
HETATM   20  C   UNL     1     -40.158  51.218 -54.361  1.00  0.00     0.001 A 
HETATM   21  C   UNL     1     -40.167  52.233 -53.402  1.00  0.00     0.009 A 
ENDBRANCH  15  16
ENDBRANCH  12  15
ENDBRANCH   7  11
BRANCH   1  22
HETATM   22  C   UNL     1     -42.153  57.305 -54.951  1.00  0.00    -0.035 A 
HETATM   23  C   UNL     1     -42.019  55.925 -55.188  1.00  0.00     0.012 A 
HETATM   24  C   UNL     1     -42.463  55.339 -56.381  1.00  0.00     0.037 A 
HETATM   25  C   UNL     1     -43.077  56.116 -57.360  1.00  0.00     0.068 A 
HETATM   26  C   UNL     1     -43.255  57.476 -57.125  1.00  0.00     0.037 A 
HETATM   27  C   UNL     1     -42.805  58.063 -55.938  1.00  0.00     0.012 A 
BRANCH  25  28
HETATM   28  O   UNL     1     -43.553  55.671 -58.561  1.00  0.00    -0.356 OA
HETATM   29  C   UNL     1     -42.759  55.942 -59.709  1.00  0.00     0.210 C 
ENDBRANCH  25  28
ENDBRANCH   1  22
BRANCH   8  30
HETATM   30  C   UNL     1     -44.719  59.504 -51.850  1.00  0.00     0.409 C 
HETATM   31  F   UNL     1     -44.229  59.743 -50.612  1.00  0.00    -0.169 F 
HETATM   32  F   UNL     1     -44.624  60.682 -52.531  1.00  0.00    -0.169 F 
HETATM   33  F   UNL     1     -46.038  59.243 -51.748  1.00  0.00    -0.169 F 
ENDBRANCH   8  30
TORSDOF 6
ENDMDL
MODEL 3
REMARK VINA RESULT:      -8.2      1.488      1.851
REMARK  6 active torsions:
REMARK  status: ('A' for Active; 'I' for Inactive)
REMARK    1  A    between atoms: O_2  and  C_3 
REMARK    2  A    between atoms: C_6  and  C_7 
REMARK    3  A    between atoms: C_13  and  C_14 
REMARK       I    between atoms: C_14  and  N_15 
REMARK    4  A    between atoms: N_15  and  C_16 
REMARK    5  A    between atoms: C_16  and  C_17 
REMARK    6  A    between atoms: C_24  and  C_25 
ROOT
HETATM    1  C   UNL     1     -42.863  54.932 -52.283  1.00  0.00     0.118 C 
HETATM    2  N   UNL     1     -43.318  55.673 -53.466  1.00  0.00    -0.365 N 
HETATM    3  C   UNL     1     -42.674  56.792 -53.888  1.00  0.00     0.138 A 
HETATM    4  N   UNL     1     -41.703  57.373 -53.102  1.00  0.00    -0.240 N 
HETATM    5  N   UNL     1     -41.127  58.448 -53.658  1.00  0.00    -0.181 NA
HETATM    6  C   UNL     1     -41.819  58.616 -54.787  1.00  0.00     0.160 A 
HETATM    7  C   UNL     1     -42.791  57.607 -55.000  1.00  0.00     0.096 A 
HETATM    8  C   UNL     1     -41.312  56.884 -51.792  1.00  0.00     0.221 C 
HETATM    9  C   UNL     1     -42.416  55.963 -51.233  1.00  0.00     0.066 C 
HETATM   10  H   UNL     1     -44.226  55.395 -53.834  1.00  0.00     0.161 HD
ENDROOT
BRANCH   7  11
HETATM   11  C   UNL     1     -43.670  57.519 -56.149  1.00  0.00     0.257 C 
HETATM   12  N   UNL     1     -43.129  56.904 -57.253  1.00  0.00    -0.352 N 
HETATM   13  H   UNL     1     -42.147  56.670 -57.236  1.00  0.00     0.163 HD
HETATM   14  O   UNL     1     -44.800  57.995 -56.132  1.00  0.00    -0.267 OA
BRANCH  12  15
HETATM   15  C   UNL     1     -43.863  56.757 -58.487  1.00  0.00     0.161 C 
BRANCH  15  16
HETATM   16  C   UNL     1     -43.553  57.845 -59.487  1.00  0.00    -0.041 A 
HETATM   17  C   UNL     1     -44.584  58.678 -59.947  1.00  0.00     0.009 A 
HETATM   18  C   UNL     1     -44.314  59.730 -60.824  1.00  0.00     0.001 A 
HETATM   19  C   UNL     1     -43.009  59.967 -61.247  1.00  0.00     0.000 A 
HETATM   20  C   UNL     1     -41.972  59.159 -60.787  1.00  0.00     0.001 A 
HETATM   21  C   UNL     1     -42.240  58.109 -59.905  1.00  0.00     0.009 A 
ENDBRANCH  15  16
ENDBRANCH  12  15
ENDBRANCH   7  11
BRANCH   1  22
HETATM   22  C   UNL     1     -41.823  53.873 -52.644  1.00  0.00    -0.035 A 
HETATM   23  C   UNL     1     -40.972  53.318 -51.672  1.00  0.00     0.012 A 
HETATM   24  C   UNL     1     -40.025  52.336 -51.998  1.00  0.00     0.037 A 
HETATM   25  C   UNL     1     -39.924  51.865 -53.305  1.00  0.00     0.068 A 
HETATM   26  C   UNL     1     -40.787  52.373 -54.272  1.00  0.00     0.037 A 
HETATM   27  C   UNL     1     -41.726  53.358 -53.948  1.00  0.00     0.012 A 
BRANCH  25  28
HETATM   28  O   UNL     1     -39.051  50.915 -53.753  1.00  0.00    -0.356 OA
HETATM   29  C   UNL     1     -39.598  49.848 -54.518  1.00  0.00     0.210 C 
ENDBRANCH  25  28
ENDBRANCH   1  22
BRANCH   8  30
HETATM   30  C   UNL     1     -41.056  58.006 -50.808  1.00  0.00     0.409 C 
HETATM   31  F   UNL     1     -41.997  58.976 -50.868  1.00  0.00    -0.169 F 
HETATM   32  F   UNL     1     -41.101  57.508 -49.539  1.00  0.00    -0.169 F 
HETATM   33  F   UNL     1     -39.841  58.577 -50.937  1.00  0.00    -0.169 F 
ENDBRANCH   8  30
TORSDOF 6
ENDMDL
MODEL 4
REMARK VINA RESULT:      -8.2      2.139      2.954
REMARK  6 active torsions:
REMARK  status: ('A' for Active; 'I' for Inactive)
REMARK    1  A    between atoms: O_2  and  C_3 
REMARK    2  A    between atoms: C_6  and  C_7 
REMARK    3  A    between atoms: C_13  and  C_14 
REMARK       I    between atoms: C_14  and  N_15 
REMARK    4  A    between atoms: N_15  and  C_16 
REMARK    5  A    between atoms: C_16  and  C_17 
REMARK    6  A    between atoms: C_24  and  C_25 
ROOT
HETATM    1  C   UNL     1     -43.683  55.247 -53.975  1.00  0.00     0.118 C 
HETATM    2  N   UNL     1     -43.898  55.453 -55.413  1.00  0.00    -0.365 N 
HETATM    3  C   UNL     1     -43.262  56.448 -56.085  1.00  0.00     0.138 A 
HETATM    4  N   UNL     1     -42.558  57.411 -55.397  1.00  0.00    -0.240 N 
HETATM    5  N   UNL     1     -41.953  58.309 -56.187  1.00  0.00    -0.181 NA
HETATM    6  C   UNL     1     -42.363  57.965 -57.410  1.00  0.00     0.160 A 
HETATM    7  C   UNL     1     -43.173  56.801 -57.420  1.00  0.00     0.096 A 
HETATM    8  C   UNL     1     -42.457  57.471 -53.950  1.00  0.00     0.221 C 
HETATM    9  C   UNL     1     -43.585  56.634 -53.317  1.00  0.00     0.066 C 
HETATM   10  H   UNL     1     -44.665  54.923 -55.822  1.00  0.00     0.161 HD
ENDROOT
BRANCH   7  11
HETATM   11  C   UNL     1     -43.739  56.184 -58.602  1.00  0.00     0.257 C 
HETATM   12  N   UNL     1     -45.065  56.467 -58.831  1.00  0.00    -0.352 N 
HETATM   13  H   UNL     1     -45.575  56.969 -58.119  1.00  0.00     0.163 HD
HETATM   14  O   UNL     1     -43.079  55.440 -59.318  1.00  0.00    -0.267 OA
BRANCH  12  15
HETATM   15  C   UNL     1     -45.787  55.912 -59.951  1.00  0.00     0.161 C 
BRANCH  15  16
HETATM   16  C   UNL     1     -46.758  56.890 -60.565  1.00  0.00    -0.041 A 
HETATM   17  C   UNL     1     -46.699  58.245 -60.205  1.00  0.00     0.009 A 
HETATM   18  C   UNL     1     -47.544  59.180 -60.804  1.00  0.00     0.001 A 
HETATM   19  C   UNL     1     -48.457  58.774 -61.775  1.00  0.00     0.000 A 
HETATM   20  C   UNL     1     -48.518  57.435 -62.153  1.00  0.00     0.001 A 
HETATM   21  C   UNL     1     -47.668  56.499 -61.559  1.00  0.00     0.009 A 
ENDBRANCH  15  16
ENDBRANCH  12  15
ENDBRANCH   7  11
BRANCH   1  22
HETATM   22  C   UNL     1     -42.506  54.311 -53.707  1.00  0.00    -0.035 A 
HETATM   23  C   UNL     1     -41.962  54.165 -52.418  1.00  0.00     0.012 A 
HETATM   24  C   UNL     1     -40.891  53.297 -52.167  1.00  0.00     0.037 A 
HETATM   25  C   UNL     1     -40.351  52.531 -53.197  1.00  0.00     0.068 A 
HETATM   26  C   UNL     1     -40.904  52.632 -54.471  1.00  0.00     0.037 A 
HETATM   27  C   UNL     1     -41.968  53.504 -54.723  1.00  0.00     0.012 A 
BRANCH  25  28
HETATM   28  O   UNL     1     -39.312  51.650 -53.087  1.00  0.00    -0.356 OA
HETATM   29  C   UNL     1     -39.525  50.338 -53.592  1.00  0.00     0.210 C 
ENDBRANCH  25  28
ENDBRANCH   1  22
BRANCH   8  30
HETATM   30  C   UNL     1     -42.535  58.889 -53.422  1.00  0.00     0.409 C 
HETATM   31  F   UNL     1     -43.525  59.606 -54.002  1.00  0.00    -0.169 F 
HETATM   32  F   UNL     1     -42.818  58.856 -52.089  1.00  0.00    -0.169 F 
HETATM   33  F   UNL     1     -41.381  59.578 -53.537  1.00  0.00    -0.169 F 
ENDBRANCH   8  30
TORSDOF 6
ENDMDL
MODEL 5
REMARK VINA RESULT:      -7.9      2.548      6.726
REMARK  6 active torsions:
REMARK  status: ('A' for Active; 'I' for Inactive)
REMARK    1  A    between atoms: O_2  and  C_3 
REMARK    2  A    between atoms: C_6  and  C_7 
REMARK    3  A    between atoms: C_13  and  C_14 
REMARK       I    between atoms: C_14  and  N_15 
REMARK    4  A    between atoms: N_15  and  C_16 
REMARK    5  A    between atoms: C_16  and  C_17 
REMARK    6  A    between atoms: C_24  and  C_25 
ROOT
HETATM    1  C   UNL     1     -42.111  58.681 -55.260  1.00  0.00     0.118 C 
HETATM    2  N   UNL     1     -41.758  57.976 -54.022  1.00  0.00    -0.365 N 
HETATM    3  C   UNL     1     -42.675  57.768 -53.042  1.00  0.00     0.138 A 
HETATM    4  N   UNL     1     -43.904  58.389 -53.098  1.00  0.00    -0.240 N 
HETATM    5  N   UNL     1     -44.721  58.066 -52.086  1.00  0.00    -0.181 NA
HETATM    6  C   UNL     1     -43.957  57.294 -51.311  1.00  0.00     0.160 A 
HETATM    7  C   UNL     1     -42.671  57.055 -51.856  1.00  0.00     0.096 A 
HETATM    8  C   UNL     1     -44.307  59.308 -54.148  1.00  0.00     0.221 C 
HETATM    9  C   UNL     1     -43.059  59.833 -54.884  1.00  0.00     0.066 C 
HETATM   10  H   UNL     1     -40.763  57.810 -53.881  1.00  0.00     0.161 HD
ENDROOT
BRANCH   7  11
HETATM   11  C   UNL     1     -41.642  56.236 -51.248  1.00  0.00     0.257 C 
HETATM   12  N   UNL     1     -41.682  54.904 -51.582  1.00  0.00    -0.352 N 
HETATM   13  H   UNL     1     -42.472  54.568 -52.113  1.00  0.00     0.163 HD
HETATM   14  O   UNL     1     -40.823  56.708 -50.468  1.00  0.00    -0.267 OA
BRANCH  12  15
HETATM   15  C   UNL     1     -40.744  53.948 -51.043  1.00  0.00     0.161 C 
BRANCH  15  16
HETATM   16  C   UNL     1     -40.340  52.894 -52.045  1.00  0.00    -0.041 A 
HETATM   17  C   UNL     1     -39.774  51.691 -51.595  1.00  0.00     0.009 A 
HETATM   18  C   UNL     1     -39.449  50.675 -52.495  1.00  0.00     0.001 A 
HETATM   19  C   UNL     1     -39.690  50.846 -53.856  1.00  0.00     0.000 A 
HETATM   20  C   UNL     1     -40.265  52.028 -54.316  1.00  0.00     0.001 A 
HETATM   21  C   UNL     1     -40.596  53.043 -53.416  1.00  0.00     0.009 A 
ENDBRANCH  15  16
ENDBRANCH  12  15
ENDBRANCH   7  11
BRANCH   1  22
HETATM   22  C   UNL     1     -42.638  57.722 -56.327  1.00  0.00    -0.035 A 
HETATM   23  C   UNL     1     -43.260  58.194 -57.497  1.00  0.00     0.012 A 
HETATM   24  C   UNL     1     -43.732  57.317 -58.483  1.00  0.00     0.037 A 
HETATM   25  C   UNL     1     -43.571  55.942 -58.336  1.00  0.00     0.068 A 
HETATM   26  C   UNL     1     -42.921  55.458 -57.203  1.00  0.00     0.037 A 
HETATM   27  C   UNL     1     -42.456  56.333 -56.216  1.00  0.00     0.012 A 
BRANCH  25  28
HETATM   28  O   UNL     1     -43.982  54.983 -59.218  1.00  0.00    -0.356 OA
HETATM   29  C   UNL     1     -44.767  55.418 -60.321  1.00  0.00     0.210 C 
ENDBRANCH  25  28
ENDBRANCH   1  22
BRANCH   8  30
HETATM   30  C   UNL     1     -45.100  60.483 -53.615  1.00  0.00     0.409 C 
HETATM   31  F   UNL     1     -46.274  60.109 -53.057  1.00  0.00    -0.169 F 
HETATM   32  F   UNL     1     -44.386  61.095 -52.627  1.00  0.00    -0.169 F 
HETATM   33  F   UNL     1     -45.346  61.437 -54.536  1.00  0.00    -0.169 F 
ENDBRANCH   8  30
TORSDOF 6
ENDMDL
MODEL 6
REMARK VINA RESULT:      -7.8      2.987      8.111
REMARK  6 active torsions:
REMARK  status: ('A' for Active; 'I' for Inactive)
REMARK    1  A    between atoms: O_2  and  C_3 
REMARK    2  A    between atoms: C_6  and  C_7 
REMARK    3  A    between atoms: C_13  and  C_14 
REMARK       I    between atoms: C_14  and  N_15 
REMARK    4  A    between atoms: N_15  and  C_16 
REMARK    5  A    between atoms: C_16  and  C_17 
REMARK    6  A    between atoms: C_24  and  C_25 
ROOT
HETATM    1  C   UNL     1     -42.677  57.064 -59.621  1.00  0.00     0.118 C 
HETATM    2  N   UNL     1     -42.341  56.237 -58.456  1.00  0.00    -0.365 N 
HETATM    3  C   UNL     1     -42.548  56.684 -57.190  1.00  0.00     0.138 A 
HETATM    4  N   UNL     1     -42.889  58.000 -56.966  1.00  0.00    -0.240 N 
HETATM    5  N   UNL     1     -43.097  58.294 -55.675  1.00  0.00    -0.181 NA
HETATM    6  C   UNL     1     -42.785  57.157 -55.049  1.00  0.00     0.160 A 
HETATM    7  C   UNL     1     -42.447  56.106 -55.937  1.00  0.00     0.096 A 
HETATM    8  C   UNL     1     -43.025  58.998 -58.011  1.00  0.00     0.221 C 
HETATM    9  C   UNL     1     -42.300  58.517 -59.284  1.00  0.00     0.066 C 
HETATM   10  H   UNL     1     -41.798  55.399 -58.655  1.00  0.00     0.161 HD
ENDROOT
BRANCH   7  11
HETATM   11  C   UNL     1     -42.088  54.758 -55.543  1.00  0.00     0.257 C 
HETATM   12  N   UNL     1     -40.754  54.561 -55.284  1.00  0.00    -0.352 N 
HETATM   13  H   UNL     1     -40.110  55.310 -55.495  1.00  0.00     0.163 HD
HETATM   14  O   UNL     1     -42.923  53.863 -55.483  1.00  0.00    -0.267 OA
BRANCH  12  15
HETATM   15  C   UNL     1     -40.227  53.272 -54.904  1.00  0.00     0.161 C 
BRANCH  15  16
HETATM   16  C   UNL     1     -40.193  53.068 -53.409  1.00  0.00    -0.041 A 
HETATM   17  C   UNL     1     -40.712  54.061 -52.563  1.00  0.00     0.009 A 
HETATM   18  C   UNL     1     -40.750  53.871 -51.180  1.00  0.00     0.001 A 
HETATM   19  C   UNL     1     -40.275  52.685 -50.626  1.00  0.00     0.000 A 
HETATM   20  C   UNL     1     -39.771  51.685 -51.454  1.00  0.00     0.001 A 
HETATM   21  C   UNL     1     -39.739  51.870 -52.838  1.00  0.00     0.009 A 
ENDBRANCH  15  16
ENDBRANCH  12  15
ENDBRANCH   7  11
BRANCH   1  22
HETATM   22  C   UNL     1     -44.123  56.851 -60.069  1.00  0.00    -0.035 A 
HETATM   23  C   UNL     1     -44.609  55.574 -60.401  1.00  0.00     0.012 A 
HETATM   24  C   UNL     1     -45.938  55.375 -60.799  1.00  0.00     0.037 A 
HETATM   25  C   UNL     1     -46.825  56.447 -60.850  1.00  0.00     0.068 A 
HETATM   26  C   UNL     1     -46.372  57.712 -60.483  1.00  0.00     0.037 A 
HETATM   27  C   UNL     1     -45.044  57.912 -60.093  1.00  0.00     0.012 A 
BRANCH  25  28
HETATM   28  O   UNL     1     -48.139  56.390 -61.217  1.00  0.00    -0.356 OA
HETATM   29  C   UNL     1     -48.449  56.753 -62.557  1.00  0.00     0.210 C 
ENDBRANCH  25  28
ENDBRANCH   1  22
BRANCH   8  30
HETATM   30  C   UNL     1     -42.466  60.345 -57.602  1.00  0.00     0.409 C 
HETATM   31  F   UNL     1     -41.675  60.270 -56.508  1.00  0.00    -0.169 F 
HETATM   32  F   UNL     1     -41.682  60.829 -58.607  1.00  0.00    -0.169 F 
HETATM   33  F   UNL     1     -43.410  61.284 -57.387  1.00  0.00    -0.169 F 
ENDBRANCH   8  30
TORSDOF 6
ENDMDL
MODEL 7
REMARK VINA RESULT:      -7.8      4.847      9.282
REMARK  6 active torsions:
REMARK  status: ('A' for Active; 'I' for Inactive)
REMARK    1  A    between atoms: O_2  and  C_3 
REMARK    2  A    between atoms: C_6  and  C_7 
REMARK    3  A    between atoms: C_13  and  C_14 
REMARK       I    between atoms: C_14  and  N_15 
REMARK    4  A    between atoms: N_15  and  C_16 
REMARK    5  A    between atoms: C_16  and  C_17 
REMARK    6  A    between atoms: C_24  and  C_25 
ROOT
HETATM    1  C   UNL     1     -44.930  59.312 -59.148  1.00  0.00     0.118 C 
HETATM    2  N   UNL     1     -44.289  58.609 -58.030  1.00  0.00    -0.365 N 
HETATM    3  C   UNL     1     -43.851  57.329 -58.159  1.00  0.00     0.138 A 
HETATM    4  N   UNL     1     -44.178  56.593 -59.277  1.00  0.00    -0.240 N 
HETATM    5  N   UNL     1     -43.651  55.362 -59.288  1.00  0.00    -0.181 NA
HETATM    6  C   UNL     1     -43.050  55.276 -58.099  1.00  0.00     0.160 A 
HETATM    7  C   UNL     1     -43.125  56.476 -57.349  1.00  0.00     0.096 A 
HETATM    8  C   UNL     1     -45.011  57.082 -60.361  1.00  0.00     0.221 C 
HETATM    9  C   UNL     1     -45.826  58.299 -59.881  1.00  0.00     0.066 C 
HETATM   10  H   UNL     1     -44.350  59.076 -57.127  1.00  0.00     0.161 HD
ENDROOT
BRANCH   7  11
HETATM   11  C   UNL     1     -42.544  56.682 -56.037  1.00  0.00     0.257 C 
HETATM   12  N   UNL     1     -41.615  55.744 -55.656  1.00  0.00    -0.352 N 
HETATM   13  H   UNL     1     -41.489  54.931 -56.241  1.00  0.00     0.163 HD
HETATM   14  O   UNL     1     -42.893  57.611 -55.319  1.00  0.00    -0.267 OA
BRANCH  12  15
HETATM   15  C   UNL     1     -40.960  55.789 -54.370  1.00  0.00     0.161 C 
BRANCH  15  16
HETATM   16  C   UNL     1     -40.572  54.423 -53.861  1.00  0.00    -0.041 A 
HETATM   17  C   UNL     1     -40.610  54.160 -52.483  1.00  0.00     0.009 A 
HETATM   18  C   UNL     1     -40.316  52.887 -51.991  1.00  0.00     0.001 A 
HETATM   19  C   UNL     1     -39.986  51.859 -52.870  1.00  0.00     0.000 A 
HETATM   20  C   UNL     1     -39.958  52.100 -54.242  1.00  0.00     0.001 A 
HETATM   21  C   UNL     1     -40.259  53.372 -54.736  1.00  0.00     0.009 A 
ENDBRANCH  15  16
ENDBRANCH  12  15
ENDBRANCH   7  11
BRANCH   1  22
HETATM   22  C   UNL     1     -43.908  60.034 -60.025  1.00  0.00    -0.035 A 
HETATM   23  C   UNL     1     -44.268  60.600 -61.260  1.00  0.00     0.012 A 
HETATM   24  C   UNL     1     -43.334  61.274 -62.059  1.00  0.00     0.037 A 
HETATM   25  C   UNL     1     -42.018  61.423 -61.629  1.00  0.00     0.068 A 
HETATM   26  C   UNL     1     -41.654  60.906 -60.389  1.00  0.00     0.037 A 
HETATM   27  C   UNL     1     -42.584  60.226 -59.595  1.00  0.00     0.012 A 
BRANCH  25  28
HETATM   28  O   UNL     1     -41.015  62.056 -62.307  1.00  0.00    -0.356 OA
HETATM   29  C   UNL     1     -40.220  62.975 -61.569  1.00  0.00     0.210 C 
ENDBRANCH  25  28
ENDBRANCH   1  22
BRANCH   8  30
HETATM   30  C   UNL     1     -45.961  56.024 -60.884  1.00  0.00     0.409 C 
HETATM   31  F   UNL     1     -45.360  55.159 -61.733  1.00  0.00    -0.169 F 
HETATM   32  F   UNL     1     -46.418  55.276 -59.839  1.00  0.00    -0.169 F 
HETATM   33  F   UNL     1     -47.058  56.525 -61.487  1.00  0.00    -0.169 F 
ENDBRANCH   8  30
TORSDOF 6
ENDMDL
MODEL 8
REMARK VINA RESULT:      -7.8      3.118      7.582
REMARK  6 active torsions:
REMARK  status: ('A' for Active; 'I' for Inactive)
REMARK    1  A    between atoms: O_2  and  C_3 
REMARK    2  A    between atoms: C_6  and  C_7 
REMARK    3  A    between atoms: C_13  and  C_14 
REMARK       I    between atoms: C_14  and  N_15 
REMARK    4  A    between atoms: N_15  and  C_16 
REMARK    5  A    between atoms: C_16  and  C_17 
REMARK    6  A    between atoms: C_24  and  C_25 
ROOT
HETATM    1  C   UNL     1     -42.469  57.019 -58.850  1.00  0.00     0.118 C 
HETATM    2  N   UNL     1     -42.431  56.998 -57.383  1.00  0.00    -0.365 N 
HETATM    3  C   UNL     1     -42.656  58.124 -56.655  1.00  0.00     0.138 A 
HETATM    4  N   UNL     1     -42.725  59.351 -57.278  1.00  0.00    -0.240 N 
HETATM    5  N   UNL     1     -42.986  60.367 -56.444  1.00  0.00    -0.181 NA
HETATM    6  C   UNL     1     -42.987  59.785 -55.243  1.00  0.00     0.160 A 
HETATM    7  C   UNL     1     -42.801  58.381 -55.303  1.00  0.00     0.096 A 
HETATM    8  C   UNL     1     -42.542  59.554 -58.703  1.00  0.00     0.221 C 
HETATM    9  C   UNL     1     -41.821  58.336 -59.313  1.00  0.00     0.066 C 
HETATM   10  H   UNL     1     -42.065  56.144 -56.966  1.00  0.00     0.161 HD
ENDROOT
BRANCH   7  11
HETATM   11  C   UNL     1     -42.780  57.488 -54.162  1.00  0.00     0.257 C 
HETATM   12  N   UNL     1     -41.531  57.075 -53.766  1.00  0.00    -0.352 N 
HETATM   13  H   UNL     1     -40.742  57.313 -54.350  1.00  0.00     0.163 HD
HETATM   14  O   UNL     1     -43.814  57.112 -53.622  1.00  0.00    -0.267 OA
BRANCH  12  15
HETATM   15  C   UNL     1     -41.337  56.165 -52.663  1.00  0.00     0.161 C 
BRANCH  15  16
HETATM   16  C   UNL     1     -40.918  54.785 -53.107  1.00  0.00    -0.041 A 
HETATM   17  C   UNL     1     -40.705  54.530 -54.470  1.00  0.00     0.009 A 
HETATM   18  C   UNL     1     -40.258  53.280 -54.901  1.00  0.00     0.001 A 
HETATM   19  C   UNL     1     -40.012  52.270 -53.975  1.00  0.00     0.000 A 
HETATM   20  C   UNL     1     -40.205  52.512 -52.616  1.00  0.00     0.001 A 
HETATM   21  C   UNL     1     -40.646  53.765 -52.183  1.00  0.00     0.009 A 
ENDBRANCH  15  16
ENDBRANCH  12  15
ENDBRANCH   7  11
BRANCH   1  22
HETATM   22  C   UNL     1     -43.878  56.761 -59.384  1.00  0.00    -0.035 A 
HETATM   23  C   UNL     1     -44.117  55.823 -60.404  1.00  0.00     0.012 A 
HETATM   24  C   UNL     1     -45.409  55.575 -60.885  1.00  0.00     0.037 A 
HETATM   25  C   UNL     1     -46.503  56.242 -60.340  1.00  0.00     0.068 A 
HETATM   26  C   UNL     1     -46.290  57.144 -59.300  1.00  0.00     0.037 A 
HETATM   27  C   UNL     1     -44.999  57.397 -58.825  1.00  0.00     0.012 A 
BRANCH  25  28
HETATM   28  O   UNL     1     -47.808  56.093 -60.715  1.00  0.00    -0.356 OA
HETATM   29  C   UNL     1     -48.190  56.671 -61.957  1.00  0.00     0.210 C 
ENDBRANCH  25  28
ENDBRANCH   1  22
BRANCH   8  30
HETATM   30  C   UNL     1     -41.748  60.806 -59.012  1.00  0.00     0.409 C 
HETATM   31  F   UNL     1     -41.257  60.813 -60.273  1.00  0.00    -0.169 F 
HETATM   32  F   UNL     1     -42.567  61.892 -58.916  1.00  0.00    -0.169 F 
HETATM   33  F   UNL     1     -40.733  61.034 -58.154  1.00  0.00    -0.169 F 
ENDBRANCH   8  30
TORSDOF 6
ENDMDL
MODEL 9
REMARK VINA RESULT:      -7.5      3.320      4.340
REMARK  6 active torsions:
REMARK  status: ('A' for Active; 'I' for Inactive)
REMARK    1  A    between atoms: O_2  and  C_3 
REMARK    2  A    between atoms: C_6  and  C_7 
REMARK    3  A    between atoms: C_13  and  C_14 
REMARK       I    between atoms: C_14  and  N_15 
REMARK    4  A    between atoms: N_15  and  C_16 
REMARK    5  A    between atoms: C_16  and  C_17 
REMARK    6  A    between atoms: C_24  and  C_25 
ROOT
HETATM    1  C   UNL     1     -43.640  55.654 -54.417  1.00  0.00     0.118 C 
HETATM    2  N   UNL     1     -43.445  56.611 -55.513  1.00  0.00    -0.365 N 
HETATM    3  C   UNL     1     -42.802  57.792 -55.311  1.00  0.00     0.138 A 
HETATM    4  N   UNL     1     -42.497  58.207 -54.033  1.00  0.00    -0.240 N 
HETATM    5  N   UNL     1     -41.833  59.369 -53.985  1.00  0.00    -0.181 NA
HETATM    6  C   UNL     1     -41.799  59.755 -55.263  1.00  0.00     0.160 A 
HETATM    7  C   UNL     1     -42.374  58.808 -56.146  1.00  0.00     0.096 A 
HETATM    8  C   UNL     1     -42.844  57.471 -52.831  1.00  0.00     0.221 C 
HETATM    9  C   UNL     1     -43.964  56.459 -53.148  1.00  0.00     0.066 C 
HETATM   10  H   UNL     1     -43.960  56.411 -56.367  1.00  0.00     0.161 HD
ENDROOT
BRANCH   7  11
HETATM   11  C   UNL     1     -42.456  58.947 -57.587  1.00  0.00     0.257 C 
HETATM   12  N   UNL     1     -42.085  60.176 -58.077  1.00  0.00    -0.352 N 
HETATM   13  H   UNL     1     -41.903  60.918 -57.417  1.00  0.00     0.163 HD
HETATM   14  O   UNL     1     -42.861  58.035 -58.298  1.00  0.00    -0.267 OA
BRANCH  12  15
HETATM   15  C   UNL     1     -42.132  60.487 -59.486  1.00  0.00     0.161 C 
BRANCH  15  16
HETATM   16  C   UNL     1     -41.185  61.596 -59.874  1.00  0.00    -0.041 A 
HETATM   17  C   UNL     1     -40.381  62.196 -58.892  1.00  0.00     0.009 A 
HETATM   18  C   UNL     1     -39.452  63.180 -59.235  1.00  0.00     0.001 A 
HETATM   19  C   UNL     1     -39.310  63.574 -60.563  1.00  0.00     0.000 A 
HETATM   20  C   UNL     1     -40.091  62.977 -61.550  1.00  0.00     0.001 A 
HETATM   21  C   UNL     1     -41.017  61.988 -61.210  1.00  0.00     0.009 A 
ENDBRANCH  15  16
ENDBRANCH  12  15
ENDBRANCH   7  11
BRANCH   1  22
HETATM   22  C   UNL     1     -42.465  54.685 -54.295  1.00  0.00    -0.035 A 
HETATM   23  C   UNL     1     -41.468  54.611 -55.283  1.00  0.00     0.012 A 
HETATM   24  C   UNL     1     -40.382  53.732 -55.166  1.00  0.00     0.037 A 
HETATM   25  C   UNL     1     -40.251  52.922 -54.041  1.00  0.00     0.068 A 
HETATM   26  C   UNL     1     -41.207  53.013 -53.033  1.00  0.00     0.037 A 
HETATM   27  C   UNL     1     -42.295  53.884 -53.153  1.00  0.00     0.012 A 
BRANCH  25  28
HETATM   28  O   UNL     1     -39.245  52.028 -53.804  1.00  0.00    -0.356 OA
HETATM   29  C   UNL     1     -39.614  50.784 -53.223  1.00  0.00     0.210 C 
ENDBRANCH  25  28
ENDBRANCH   1  22
BRANCH   8  30
HETATM   30  C   UNL     1     -43.299  58.379 -51.707  1.00  0.00     0.409 C 
HETATM   31  F   UNL     1     -42.265  58.901 -51.008  1.00  0.00    -0.169 F 
HETATM   32  F   UNL     1     -43.977  59.439 -52.234  1.00  0.00    -0.169 F 
HETATM   33  F   UNL     1     -44.151  57.792 -50.842  1.00  0.00    -0.169 F 
ENDBRANCH   8  30
TORSDOF 6
ENDMDL
MODEL 10
REMARK VINA RESULT:      -7.4      4.220      7.824
REMARK  6 active torsions:
REMARK  status: ('A' for Active; 'I' for Inactive)
REMARK    1  A    between atoms: O_2  and  C_3 
REMARK    2  A    between atoms: C_6  and  C_7 
REMARK    3  A    between atoms: C_13  and  C_14 
REMARK       I    between atoms: C_14  and  N_15 
REMARK    4  A    between atoms: N_15  and  C_16 
REMARK    5  A    between atoms: C_16  and  C_17 
REMARK    6  A    between atoms: C_24  and  C_25 
ROOT
HETATM    1  C   UNL     1     -44.003  56.026 -52.153  1.00  0.00     0.118 C 
HETATM    2  N   UNL     1     -43.866  57.415 -51.700  1.00  0.00    -0.365 N 
HETATM    3  C   UNL     1     -42.687  57.886 -51.215  1.00  0.00     0.138 A 
HETATM    4  N   UNL     1     -41.651  57.019 -50.949  1.00  0.00    -0.240 N 
HETATM    5  N   UNL     1     -40.538  57.623 -50.509  1.00  0.00    -0.181 NA
HETATM    6  C   UNL     1     -40.907  58.901 -50.401  1.00  0.00     0.160 A 
HETATM    7  C   UNL     1     -42.234  59.138 -50.839  1.00  0.00     0.096 A 
HETATM    8  C   UNL     1     -41.725  55.579 -51.123  1.00  0.00     0.221 C 
HETATM    9  C   UNL     1     -43.201  55.140 -51.184  1.00  0.00     0.066 C 
HETATM   10  H   UNL     1     -44.736  57.937 -51.617  1.00  0.00     0.161 HD
ENDROOT
BRANCH   7  11
HETATM   11  C   UNL     1     -42.893  60.428 -50.859  1.00  0.00     0.257 C 
HETATM   12  N   UNL     1     -43.565  60.758 -49.707  1.00  0.00    -0.352 N 
HETATM   13  H   UNL     1     -43.659  60.053 -48.990  1.00  0.00     0.163 HD
HETATM   14  O   UNL     1     -42.870  61.146 -51.851  1.00  0.00    -0.267 OA
BRANCH  12  15
HETATM   15  C   UNL     1     -44.295  61.996 -49.570  1.00  0.00     0.161 C 
BRANCH  15  16
HETATM   16  C   UNL     1     -44.642  62.318 -48.137  1.00  0.00    -0.041 A 
HETATM   17  C   UNL     1     -44.849  63.653 -47.757  1.00  0.00     0.009 A 
HETATM   18  C   UNL     1     -45.232  63.973 -46.454  1.00  0.00     0.001 A 
HETATM   19  C   UNL     1     -45.417  62.962 -45.514  1.00  0.00     0.000 A 
HETATM   20  C   UNL     1     -45.230  61.631 -45.880  1.00  0.00     0.001 A 
HETATM   21  C   UNL     1     -44.854  61.309 -47.186  1.00  0.00     0.009 A 
ENDBRANCH  15  16
ENDBRANCH  12  15
ENDBRANCH   7  11
BRANCH   1  22
HETATM   22  C   UNL     1     -43.643  55.872 -53.630  1.00  0.00    -0.035 A 
HETATM   23  C   UNL     1     -43.288  54.625 -54.174  1.00  0.00     0.012 A 
HETATM   24  C   UNL     1     -42.970  54.480 -55.531  1.00  0.00     0.037 A 
HETATM   25  C   UNL     1     -43.023  55.577 -56.387  1.00  0.00     0.068 A 
HETATM   26  C   UNL     1     -43.413  56.811 -55.874  1.00  0.00     0.037 A 
HETATM   27  C   UNL     1     -43.723  56.958 -54.518  1.00  0.00     0.012 A 
BRANCH  25  28
HETATM   28  O   UNL     1     -42.740  55.571 -57.724  1.00  0.00    -0.356 OA
HETATM   29  C   UNL     1     -42.901  56.801 -58.420  1.00  0.00     0.210 C 
ENDBRANCH  25  28
ENDBRANCH   1  22
BRANCH   8  30
HETATM   30  C   UNL     1     -41.028  54.825 -50.009  1.00  0.00     0.409 C 
HETATM   31  F   UNL     1     -41.322  53.504 -50.013  1.00  0.00    -0.169 F 
HETATM   32  F   UNL     1     -39.679  54.915 -50.183  1.00  0.00    -0.169 F 
HETATM   33  F   UNL     1     -41.276  55.317 -48.779  1.00  0.00    -0.169 F 
ENDBRANCH   8  30
TORSDOF 6
ENDMDL
