MODEL 1
REMARK VINA RESULT:      -9.4      0.000      0.000
REMARK  4 active torsions:
REMARK  status: ('A' for Active; 'I' for Inactive)
REMARK    1  A    between atoms: C_4  and  C_5 
REMARK    2  A    between atoms: C_5  and  C_6 
REMARK    3  A    between atoms: C_7  and  N_8 
REMARK       I    between atoms: N_8  and  C_9 
REMARK    4  A    between atoms: C_9  and  C_10 
ROOT
HETATM    1  N   UNL     1     -43.447  54.203 -52.196  1.00  0.00    -0.321 N 
HETATM    2  C   UNL     1     -43.569  54.976 -51.059  1.00  0.00     0.277 C 
HETATM    3  O   UNL     1     -44.367  54.688 -50.172  1.00  0.00    -0.266 OA
HETATM    4  H   UNL     1     -44.285  53.663 -52.375  1.00  0.00     0.169 HD
ENDROOT
BRANCH   1   5
HETATM    5  C   UNL     1     -42.617  54.476 -53.290  1.00  0.00     0.041 A 
HETATM    6  C   UNL     1     -41.235  54.218 -53.244  1.00  0.00    -0.027 A 
HETATM    7  C   UNL     1     -40.469  54.483 -54.393  1.00  0.00     0.010 A 
HETATM    8  C   UNL     1     -41.066  54.953 -55.564  1.00  0.00     0.001 A 
HETATM    9  C   UNL     1     -42.443  55.146 -55.611  1.00  0.00     0.002 A 
HETATM   10  C   UNL     1     -43.221  54.892 -54.481  1.00  0.00     0.030 A 
BRANCH   6  11
HETATM   11  C   UNL     1     -40.556  53.552 -52.059  1.00  0.00     0.079 C 
BRANCH  11  12
HETATM   12  C   UNL     1     -40.196  52.099 -52.289  1.00  0.00    -0.054 A 
HETATM   13  C   UNL     1     -40.205  51.549 -53.578  1.00  0.00     0.007 A 
HETATM   14  C   UNL     1     -39.860  50.212 -53.781  1.00  0.00     0.001 A 
HETATM   15  C   UNL     1     -39.504  49.409 -52.698  1.00  0.00     0.000 A 
HETATM   16  C   UNL     1     -39.495  49.942 -51.411  1.00  0.00     0.001 A 
HETATM   17  C   UNL     1     -39.838  51.279 -51.207  1.00  0.00     0.007 A 
ENDBRANCH  11  12
ENDBRANCH   6  11
ENDBRANCH   1   5
BRANCH   2  18
HETATM   18  C   UNL     1     -42.815  56.294 -50.954  1.00  0.00     0.156 A 
HETATM   19  N   UNL     1     -41.727  56.325 -50.239  1.00  0.00    -0.166 NA
HETATM   20  N   UNL     1     -41.057  57.506 -50.135  1.00  0.00    -0.242 N 
HETATM   21  C   UNL     1     -41.436  58.704 -50.693  1.00  0.00     0.272 A 
HETATM   22  H   UNL     1     -40.202  57.499 -49.587  1.00  0.00     0.192 HD
HETATM   23  O   UNL     1     -40.781  59.730 -50.554  1.00  0.00    -0.266 OA
HETATM   24  C   UNL     1     -42.685  58.688 -51.472  1.00  0.00     0.046 A 
HETATM   25  C   UNL     1     -43.377  57.488 -51.625  1.00  0.00     0.016 A 
HETATM   26  C   UNL     1     -43.176  59.870 -52.039  1.00  0.00     0.018 A 
HETATM   27  C   UNL     1     -44.568  57.469 -52.361  1.00  0.00     0.015 A 
HETATM   28  C   UNL     1     -45.060  58.650 -52.926  1.00  0.00     0.001 A 
HETATM   29  C   UNL     1     -44.366  59.849 -52.764  1.00  0.00     0.001 A 
ENDBRANCH   2  18
TORSDOF 4
ENDMDL
MODEL 2
REMARK VINA RESULT:      -9.4      1.412      2.178
REMARK  4 active torsions:
REMARK  status: ('A' for Active; 'I' for Inactive)
REMARK    1  A    between atoms: C_4  and  C_5 
REMARK    2  A    between atoms: C_5  and  C_6 
REMARK    3  A    between atoms: C_7  and  N_8 
REMARK       I    between atoms: N_8  and  C_9 
REMARK    4  A    between atoms: C_9  and  C_10 
ROOT
HETATM    1  N   UNL     1     -43.198  54.088 -52.036  1.00  0.00    -0.321 N 
HETATM    2  C   UNL     1     -43.687  55.015 -51.138  1.00  0.00     0.277 C 
HETATM    3  O   UNL     1     -44.228  54.669 -50.092  1.00  0.00    -0.266 OA
HETATM    4  H   UNL     1     -43.651  53.189 -51.931  1.00  0.00     0.169 HD
ENDROOT
BRANCH   1   5
HETATM    5  C   UNL     1     -42.624  54.374 -53.281  1.00  0.00     0.041 A 
HETATM    6  C   UNL     1     -41.237  54.262 -53.491  1.00  0.00    -0.027 A 
HETATM    7  C   UNL     1     -40.735  54.530 -54.777  1.00  0.00     0.010 A 
HETATM    8  C   UNL     1     -41.590  54.861 -55.829  1.00  0.00     0.001 A 
HETATM    9  C   UNL     1     -42.964  54.908 -55.618  1.00  0.00     0.002 A 
HETATM   10  C   UNL     1     -43.483  54.649 -54.349  1.00  0.00     0.030 A 
BRANCH   6  11
HETATM   11  C   UNL     1     -40.278  53.747 -52.432  1.00  0.00     0.079 C 
BRANCH  11  12
HETATM   12  C   UNL     1     -40.042  52.252 -52.485  1.00  0.00    -0.054 A 
HETATM   13  C   UNL     1     -40.084  51.559 -53.703  1.00  0.00     0.007 A 
HETATM   14  C   UNL     1     -39.853  50.183 -53.743  1.00  0.00     0.001 A 
HETATM   15  C   UNL     1     -39.581  49.484 -52.569  1.00  0.00     0.000 A 
HETATM   16  C   UNL     1     -39.541  50.160 -51.351  1.00  0.00     0.001 A 
HETATM   17  C   UNL     1     -39.769  51.536 -51.309  1.00  0.00     0.007 A 
ENDBRANCH  11  12
ENDBRANCH   6  11
ENDBRANCH   1   5
BRANCH   2  18
HETATM   18  C   UNL     1     -43.700  56.493 -51.504  1.00  0.00     0.156 A 
HETATM   19  N   UNL     1     -44.758  56.971 -52.093  1.00  0.00    -0.166 NA
HETATM   20  N   UNL     1     -44.767  58.291 -52.431  1.00  0.00    -0.242 N 
HETATM   21  C   UNL     1     -43.740  59.183 -52.239  1.00  0.00     0.272 A 
HETATM   22  H   UNL     1     -45.612  58.642 -52.871  1.00  0.00     0.192 HD
HETATM   23  O   UNL     1     -43.819  60.359 -52.573  1.00  0.00    -0.266 OA
HETATM   24  C   UNL     1     -42.524  58.642 -51.609  1.00  0.00     0.046 A 
HETATM   25  C   UNL     1     -42.495  57.304 -51.221  1.00  0.00     0.016 A 
HETATM   26  C   UNL     1     -41.407  59.464 -51.415  1.00  0.00     0.018 A 
HETATM   27  C   UNL     1     -41.339  56.784 -50.625  1.00  0.00     0.015 A 
HETATM   28  C   UNL     1     -40.222  57.604 -50.434  1.00  0.00     0.001 A 
HETATM   29  C   UNL     1     -40.255  58.941 -50.830  1.00  0.00     0.001 A 
ENDBRANCH   2  18
TORSDOF 4
ENDMDL
MODEL 3
REMARK VINA RESULT:      -9.4      1.895      2.945
REMARK  4 active torsions:
REMARK  status: ('A' for Active; 'I' for Inactive)
REMARK    1  A    between atoms: C_4  and  C_5 
REMARK    2  A    between atoms: C_5  and  C_6 
REMARK    3  A    between atoms: C_7  and  N_8 
REMARK       I    between atoms: N_8  and  C_9 
REMARK    4  A    between atoms: C_9  and  C_10 
ROOT
HETATM    1  N   UNL     1     -42.976  53.953 -52.398  1.00  0.00    -0.321 N 
HETATM    2  C   UNL     1     -43.335  54.900 -53.336  1.00  0.00     0.277 C 
HETATM    3  O   UNL     1     -44.124  54.638 -54.239  1.00  0.00    -0.266 OA
HETATM    4  H   UNL     1     -43.111  53.011 -52.744  1.00  0.00     0.169 HD
ENDROOT
BRANCH   1   5
HETATM    5  C   UNL     1     -42.041  54.129 -51.370  1.00  0.00     0.041 A 
HETATM    6  C   UNL     1     -40.677  53.843 -51.564  1.00  0.00    -0.027 A 
HETATM    7  C   UNL     1     -39.790  54.078 -50.498  1.00  0.00     0.010 A 
HETATM    8  C   UNL     1     -40.240  54.617 -49.291  1.00  0.00     0.001 A 
HETATM    9  C   UNL     1     -41.582  54.950 -49.138  1.00  0.00     0.002 A 
HETATM   10  C   UNL     1     -42.480  54.722 -50.182  1.00  0.00     0.030 A 
BRANCH   6  11
HETATM   11  C   UNL     1     -40.103  53.413 -52.902  1.00  0.00     0.079 C 
BRANCH  11  12
HETATM   12  C   UNL     1     -39.893  51.920 -53.035  1.00  0.00    -0.054 A 
HETATM   13  C   UNL     1     -39.654  51.122 -51.908  1.00  0.00     0.007 A 
HETATM   14  C   UNL     1     -39.473  49.744 -52.040  1.00  0.00     0.001 A 
HETATM   15  C   UNL     1     -39.527  49.149 -53.299  1.00  0.00     0.000 A 
HETATM   16  C   UNL     1     -39.759  49.931 -54.428  1.00  0.00     0.001 A 
HETATM   17  C   UNL     1     -39.942  51.308 -54.298  1.00  0.00     0.007 A 
ENDBRANCH  11  12
ENDBRANCH   6  11
ENDBRANCH   1   5
BRANCH   2  18
HETATM   18  C   UNL     1     -42.637  56.252 -53.355  1.00  0.00     0.156 A 
HETATM   19  N   UNL     1     -41.516  56.356 -54.009  1.00  0.00    -0.166 NA
HETATM   20  N   UNL     1     -40.884  57.562 -54.018  1.00  0.00    -0.242 N 
HETATM   21  C   UNL     1     -41.300  58.700 -53.369  1.00  0.00     0.272 A 
HETATM   22  H   UNL     1     -40.022  57.621 -54.552  1.00  0.00     0.192 HD
HETATM   23  O   UNL     1     -40.676  59.752 -53.421  1.00  0.00    -0.266 OA
HETATM   24  C   UNL     1     -42.547  58.582 -52.594  1.00  0.00     0.046 A 
HETATM   25  C   UNL     1     -43.235  57.370 -52.591  1.00  0.00     0.016 A 
HETATM   26  C   UNL     1     -43.025  59.675 -51.861  1.00  0.00     0.018 A 
HETATM   27  C   UNL     1     -44.419  57.252 -51.853  1.00  0.00     0.015 A 
HETATM   28  C   UNL     1     -44.896  58.343 -51.118  1.00  0.00     0.001 A 
HETATM   29  C   UNL     1     -44.199  59.551 -51.120  1.00  0.00     0.001 A 
ENDBRANCH   2  18
TORSDOF 4
ENDMDL
MODEL 4
REMARK VINA RESULT:      -8.9      2.181      2.971
REMARK  4 active torsions:
REMARK  status: ('A' for Active; 'I' for Inactive)
REMARK    1  A    between atoms: C_4  and  C_5 
REMARK    2  A    between atoms: C_5  and  C_6 
REMARK    3  A    between atoms: C_7  and  N_8 
REMARK       I    between atoms: N_8  and  C_9 
REMARK    4  A    between atoms: C_9  and  C_10 
ROOT
HETATM    1  N   UNL     1     -42.420  53.951 -54.008  1.00  0.00    -0.321 N 
HETATM    2  C   UNL     1     -42.215  54.966 -54.920  1.00  0.00     0.277 C 
HETATM    3  O   UNL     1     -42.115  54.736 -56.122  1.00  0.00    -0.266 OA
HETATM    4  H   UNL     1     -42.107  53.057 -54.364  1.00  0.00     0.169 HD
ENDROOT
BRANCH   1   5
HETATM    5  C   UNL     1     -42.485  54.098 -52.616  1.00  0.00     0.041 A 
HETATM    6  C   UNL     1     -41.373  53.825 -51.798  1.00  0.00    -0.027 A 
HETATM    7  C   UNL     1     -41.500  54.030 -50.412  1.00  0.00     0.010 A 
HETATM    8  C   UNL     1     -42.684  54.526 -49.864  1.00  0.00     0.001 A 
HETATM    9  C   UNL     1     -43.753  54.847 -50.694  1.00  0.00     0.002 A 
HETATM   10  C   UNL     1     -43.649  54.649 -52.071  1.00  0.00     0.030 A 
BRANCH   6  11
HETATM   11  C   UNL     1     -40.012  53.443 -52.352  1.00  0.00     0.079 C 
BRANCH  11  12
HETATM   12  C   UNL     1     -39.836  51.959 -52.593  1.00  0.00    -0.054 A 
HETATM   13  C   UNL     1     -39.832  51.435 -53.893  1.00  0.00     0.007 A 
HETATM   14  C   UNL     1     -39.658  50.066 -54.105  1.00  0.00     0.001 A 
HETATM   15  C   UNL     1     -39.489  49.206 -53.021  1.00  0.00     0.000 A 
HETATM   16  C   UNL     1     -39.495  49.713 -51.724  1.00  0.00     0.001 A 
HETATM   17  C   UNL     1     -39.667  51.081 -51.510  1.00  0.00     0.007 A 
ENDBRANCH  11  12
ENDBRANCH   6  11
ENDBRANCH   1   5
BRANCH   2  18
HETATM   18  C   UNL     1     -41.957  56.385 -54.431  1.00  0.00     0.156 A 
HETATM   19  N   UNL     1     -40.784  56.662 -53.939  1.00  0.00    -0.166 NA
HETATM   20  N   UNL     1     -40.554  57.927 -53.492  1.00  0.00    -0.242 N 
HETATM   21  C   UNL     1     -41.463  58.958 -53.477  1.00  0.00     0.272 A 
HETATM   22  H   UNL     1     -39.625  58.121 -53.131  1.00  0.00     0.192 HD
HETATM   23  O   UNL     1     -41.184  60.074 -53.055  1.00  0.00    -0.266 OA
HETATM   24  C   UNL     1     -42.805  58.645 -53.996  1.00  0.00     0.046 A 
HETATM   25  C   UNL     1     -43.062  57.368 -54.492  1.00  0.00     0.016 A 
HETATM   26  C   UNL     1     -43.811  59.618 -53.978  1.00  0.00     0.018 A 
HETATM   27  C   UNL     1     -44.338  57.064 -54.983  1.00  0.00     0.015 A 
HETATM   28  C   UNL     1     -45.344  58.035 -54.962  1.00  0.00     0.001 A 
HETATM   29  C   UNL     1     -45.082  59.309 -54.459  1.00  0.00     0.001 A 
ENDBRANCH   2  18
TORSDOF 4
ENDMDL
MODEL 5
REMARK VINA RESULT:      -8.9      2.532      4.086
REMARK  4 active torsions:
REMARK  status: ('A' for Active; 'I' for Inactive)
REMARK    1  A    between atoms: C_4  and  C_5 
REMARK    2  A    between atoms: C_5  and  C_6 
REMARK    3  A    between atoms: C_7  and  N_8 
REMARK       I    between atoms: N_8  and  C_9 
REMARK    4  A    between atoms: C_9  and  C_10 
ROOT
HETATM    1  N   UNL     1     -41.195  57.218 -51.750  1.00  0.00    -0.321 N 
HETATM    2  C   UNL     1     -40.853  57.666 -53.010  1.00  0.00     0.277 C 
HETATM    3  O   UNL     1     -40.069  58.598 -53.167  1.00  0.00    -0.266 OA
HETATM    4  H   UNL     1     -41.053  57.933 -51.046  1.00  0.00     0.169 HD
ENDROOT
BRANCH   1   5
HETATM    5  C   UNL     1     -42.123  56.210 -51.460  1.00  0.00     0.041 A 
HETATM    6  C   UNL     1     -41.747  54.855 -51.431  1.00  0.00    -0.027 A 
HETATM    7  C   UNL     1     -42.724  53.900 -51.097  1.00  0.00     0.010 A 
HETATM    8  C   UNL     1     -44.024  54.286 -50.764  1.00  0.00     0.001 A 
HETATM    9  C   UNL     1     -44.362  55.635 -50.739  1.00  0.00     0.002 A 
HETATM   10  C   UNL     1     -43.409  56.598 -51.071  1.00  0.00     0.030 A 
BRANCH   6  11
HETATM   11  C   UNL     1     -40.314  54.389 -51.620  1.00  0.00     0.079 C 
BRANCH  11  12
HETATM   12  C   UNL     1     -40.184  53.065 -52.344  1.00  0.00    -0.054 A 
HETATM   13  C   UNL     1     -40.559  52.939 -53.689  1.00  0.00     0.007 A 
HETATM   14  C   UNL     1     -40.425  51.717 -54.350  1.00  0.00     0.001 A 
HETATM   15  C   UNL     1     -39.916  50.608 -53.676  1.00  0.00     0.000 A 
HETATM   16  C   UNL     1     -39.544  50.719 -52.338  1.00  0.00     0.001 A 
HETATM   17  C   UNL     1     -39.676  51.940 -51.676  1.00  0.00     0.007 A 
ENDBRANCH  11  12
ENDBRANCH   6  11
ENDBRANCH   1   5
BRANCH   2  18
HETATM   18  C   UNL     1     -41.565  57.106 -54.234  1.00  0.00     0.156 A 
HETATM   19  N   UNL     1     -41.003  56.123 -54.875  1.00  0.00    -0.166 NA
HETATM   20  N   UNL     1     -41.633  55.627 -55.977  1.00  0.00    -0.242 N 
HETATM   21  C   UNL     1     -42.812  56.089 -56.511  1.00  0.00     0.272 A 
HETATM   22  H   UNL     1     -41.183  54.848 -56.447  1.00  0.00     0.192 HD
HETATM   23  O   UNL     1     -43.320  55.592 -57.509  1.00  0.00    -0.266 OA
HETATM   24  C   UNL     1     -43.436  57.226 -55.815  1.00  0.00     0.046 A 
HETATM   25  C   UNL     1     -42.833  57.734 -54.665  1.00  0.00     0.016 A 
HETATM   26  C   UNL     1     -44.615  57.794 -56.312  1.00  0.00     0.018 A 
HETATM   27  C   UNL     1     -43.421  58.819 -54.002  1.00  0.00     0.015 A 
HETATM   28  C   UNL     1     -44.597  59.389 -54.500  1.00  0.00     0.001 A 
HETATM   29  C   UNL     1     -45.192  58.879 -55.654  1.00  0.00     0.001 A 
ENDBRANCH   2  18
TORSDOF 4
ENDMDL
MODEL 6
REMARK VINA RESULT:      -8.8      2.097      3.868
REMARK  4 active torsions:
REMARK  status: ('A' for Active; 'I' for Inactive)
REMARK    1  A    between atoms: C_4  and  C_5 
REMARK    2  A    between atoms: C_5  and  C_6 
REMARK    3  A    between atoms: C_7  and  N_8 
REMARK       I    between atoms: N_8  and  C_9 
REMARK    4  A    between atoms: C_9  and  C_10 
ROOT
HETATM    1  N   UNL     1     -43.633  55.285 -50.134  1.00  0.00    -0.321 N 
HETATM    2  C   UNL     1     -43.988  56.508 -50.666  1.00  0.00     0.277 C 
HETATM    3  O   UNL     1     -45.137  56.932 -50.584  1.00  0.00    -0.266 OA
HETATM    4  H   UNL     1     -44.432  54.671 -50.038  1.00  0.00     0.169 HD
ENDROOT
BRANCH   1   5
HETATM    5  C   UNL     1     -42.371  54.683 -50.229  1.00  0.00     0.041 A 
HETATM    6  C   UNL     1     -42.033  53.857 -51.316  1.00  0.00    -0.027 A 
HETATM    7  C   UNL     1     -40.736  53.316 -51.363  1.00  0.00     0.010 A 
HETATM    8  C   UNL     1     -39.793  53.619 -50.379  1.00  0.00     0.001 A 
HETATM    9  C   UNL     1     -40.126  54.486 -49.343  1.00  0.00     0.002 A 
HETATM   10  C   UNL     1     -41.409  55.030 -49.276  1.00  0.00     0.030 A 
BRANCH   6  11
HETATM   11  C   UNL     1     -42.957  53.626 -52.499  1.00  0.00     0.079 C 
BRANCH  11  12
HETATM   12  C   UNL     1     -42.489  54.271 -53.786  1.00  0.00    -0.054 A 
HETATM   13  C   UNL     1     -41.244  54.911 -53.860  1.00  0.00     0.007 A 
HETATM   14  C   UNL     1     -40.816  55.493 -55.055  1.00  0.00     0.001 A 
HETATM   15  C   UNL     1     -41.628  55.444 -56.187  1.00  0.00     0.000 A 
HETATM   16  C   UNL     1     -42.869  54.815 -56.126  1.00  0.00     0.001 A 
HETATM   17  C   UNL     1     -43.297  54.231 -54.933  1.00  0.00     0.007 A 
ENDBRANCH  11  12
ENDBRANCH   6  11
ENDBRANCH   1   5
BRANCH   2  18
HETATM   18  C   UNL     1     -42.986  57.291 -51.504  1.00  0.00     0.156 A 
HETATM   19  N   UNL     1     -41.874  57.665 -50.942  1.00  0.00    -0.166 NA
HETATM   20  N   UNL     1     -40.981  58.375 -51.686  1.00  0.00    -0.242 N 
HETATM   21  C   UNL     1     -41.151  58.773 -52.991  1.00  0.00     0.272 A 
HETATM   22  H   UNL     1     -40.113  58.638 -51.229  1.00  0.00     0.192 HD
HETATM   23  O   UNL     1     -40.302  59.414 -53.598  1.00  0.00    -0.266 OA
HETATM   24  C   UNL     1     -42.423  58.388 -53.624  1.00  0.00     0.046 A 
HETATM   25  C   UNL     1     -43.343  57.633 -52.899  1.00  0.00     0.016 A 
HETATM   26  C   UNL     1     -42.706  58.788 -54.935  1.00  0.00     0.018 A 
HETATM   27  C   UNL     1     -44.556  57.267 -53.496  1.00  0.00     0.015 A 
HETATM   28  C   UNL     1     -44.841  57.670 -54.805  1.00  0.00     0.001 A 
HETATM   29  C   UNL     1     -43.918  58.431 -55.522  1.00  0.00     0.001 A 
ENDBRANCH   2  18
TORSDOF 4
ENDMDL
MODEL 7
REMARK VINA RESULT:      -8.7      2.425      3.808
REMARK  4 active torsions:
REMARK  status: ('A' for Active; 'I' for Inactive)
REMARK    1  A    between atoms: C_4  and  C_5 
REMARK    2  A    between atoms: C_5  and  C_6 
REMARK    3  A    between atoms: C_7  and  N_8 
REMARK       I    between atoms: N_8  and  C_9 
REMARK    4  A    between atoms: C_9  and  C_10 
ROOT
HETATM    1  N   UNL     1     -40.855  57.123 -52.219  1.00  0.00    -0.321 N 
HETATM    2  C   UNL     1     -40.942  58.080 -53.209  1.00  0.00     0.277 C 
HETATM    3  O   UNL     1     -40.071  58.933 -53.353  1.00  0.00    -0.266 OA
HETATM    4  H   UNL     1     -40.260  57.423 -51.457  1.00  0.00     0.169 HD
ENDROOT
BRANCH   1   5
HETATM    5  C   UNL     1     -41.820  56.149 -51.930  1.00  0.00     0.041 A 
HETATM    6  C   UNL     1     -41.769  54.871 -52.518  1.00  0.00    -0.027 A 
HETATM    7  C   UNL     1     -42.751  53.932 -52.154  1.00  0.00     0.010 A 
HETATM    8  C   UNL     1     -43.728  54.242 -51.206  1.00  0.00     0.001 A 
HETATM    9  C   UNL     1     -43.726  55.490 -50.590  1.00  0.00     0.002 A 
HETATM   10  C   UNL     1     -42.764  56.437 -50.940  1.00  0.00     0.030 A 
BRANCH   6  11
HETATM   11  C   UNL     1     -40.638  54.422 -53.426  1.00  0.00     0.079 C 
BRANCH  11  12
HETATM   12  C   UNL     1     -40.304  52.949 -53.315  1.00  0.00    -0.054 A 
HETATM   13  C   UNL     1     -40.474  52.087 -54.407  1.00  0.00     0.007 A 
HETATM   14  C   UNL     1     -40.152  50.733 -54.298  1.00  0.00     0.001 A 
HETATM   15  C   UNL     1     -39.659  50.225 -53.098  1.00  0.00     0.000 A 
HETATM   16  C   UNL     1     -39.489  51.071 -52.003  1.00  0.00     0.001 A 
HETATM   17  C   UNL     1     -39.808  52.425 -52.111  1.00  0.00     0.007 A 
ENDBRANCH  11  12
ENDBRANCH   6  11
ENDBRANCH   1   5
BRANCH   2  18
HETATM   18  C   UNL     1     -42.206  58.188 -54.051  1.00  0.00     0.156 A 
HETATM   19  N   UNL     1     -42.253  57.534 -55.176  1.00  0.00    -0.166 NA
HETATM   20  N   UNL     1     -43.378  57.637 -55.936  1.00  0.00    -0.242 N 
HETATM   21  C   UNL     1     -44.483  58.403 -55.647  1.00  0.00     0.272 A 
HETATM   22  H   UNL     1     -43.397  57.102 -56.799  1.00  0.00     0.192 HD
HETATM   23  O   UNL     1     -45.461  58.449 -56.383  1.00  0.00    -0.266 OA
HETATM   24  C   UNL     1     -44.424  59.177 -54.397  1.00  0.00     0.046 A 
HETATM   25  C   UNL     1     -43.299  59.067 -53.580  1.00  0.00     0.016 A 
HETATM   26  C   UNL     1     -45.482  60.022 -54.042  1.00  0.00     0.018 A 
HETATM   27  C   UNL     1     -43.237  59.804 -52.391  1.00  0.00     0.015 A 
HETATM   28  C   UNL     1     -44.293  60.651 -52.037  1.00  0.00     0.001 A 
HETATM   29  C   UNL     1     -45.412  60.762 -52.862  1.00  0.00     0.001 A 
ENDBRANCH   2  18
TORSDOF 4
ENDMDL
MODEL 8
REMARK VINA RESULT:      -8.7      1.558      4.130
REMARK  4 active torsions:
REMARK  status: ('A' for Active; 'I' for Inactive)
REMARK    1  A    between atoms: C_4  and  C_5 
REMARK    2  A    between atoms: C_5  and  C_6 
REMARK    3  A    between atoms: C_7  and  N_8 
REMARK       I    between atoms: N_8  and  C_9 
REMARK    4  A    between atoms: C_9  and  C_10 
ROOT
HETATM    1  N   UNL     1     -43.611  54.382 -51.641  1.00  0.00    -0.321 N 
HETATM    2  C   UNL     1     -43.736  55.589 -50.984  1.00  0.00     0.277 C 
HETATM    3  O   UNL     1     -44.736  55.858 -50.325  1.00  0.00    -0.266 OA
HETATM    4  H   UNL     1     -44.512  53.960 -51.827  1.00  0.00     0.169 HD
ENDROOT
BRANCH   1   5
HETATM    5  C   UNL     1     -42.545  54.003 -52.467  1.00  0.00     0.041 A 
HETATM    6  C   UNL     1     -42.565  54.254 -53.851  1.00  0.00    -0.027 A 
HETATM    7  C   UNL     1     -41.443  53.878 -54.612  1.00  0.00     0.010 A 
HETATM    8  C   UNL     1     -40.322  53.306 -54.008  1.00  0.00     0.001 A 
HETATM    9  C   UNL     1     -40.295  53.120 -52.630  1.00  0.00     0.002 A 
HETATM   10  C   UNL     1     -41.399  53.483 -51.857  1.00  0.00     0.030 A 
BRANCH   6  11
HETATM   11  C   UNL     1     -43.681  55.021 -54.537  1.00  0.00     0.079 C 
BRANCH  11  12
HETATM   12  C   UNL     1     -43.238  55.799 -55.759  1.00  0.00    -0.054 A 
HETATM   13  C   UNL     1     -43.346  55.247 -57.043  1.00  0.00     0.007 A 
HETATM   14  C   UNL     1     -42.945  55.976 -58.163  1.00  0.00     0.001 A 
HETATM   15  C   UNL     1     -42.430  57.263 -58.014  1.00  0.00     0.000 A 
HETATM   16  C   UNL     1     -42.313  57.821 -56.743  1.00  0.00     0.001 A 
HETATM   17  C   UNL     1     -42.715  57.094 -55.622  1.00  0.00     0.007 A 
ENDBRANCH  11  12
ENDBRANCH   6  11
ENDBRANCH   1   5
BRANCH   2  18
HETATM   18  C   UNL     1     -42.692  56.678 -51.191  1.00  0.00     0.156 A 
HETATM   19  N   UNL     1     -41.547  56.555 -50.583  1.00  0.00    -0.166 NA
HETATM   20  N   UNL     1     -40.616  57.533 -50.758  1.00  0.00    -0.242 N 
HETATM   21  C   UNL     1     -40.775  58.678 -51.502  1.00  0.00     0.272 A 
HETATM   22  H   UNL     1     -39.725  57.403 -50.289  1.00  0.00     0.192 HD
HETATM   23  O   UNL     1     -39.889  59.518 -51.611  1.00  0.00    -0.266 OA
HETATM   24  C   UNL     1     -42.080  58.845 -52.161  1.00  0.00     0.046 A 
HETATM   25  C   UNL     1     -43.043  57.846 -52.029  1.00  0.00     0.016 A 
HETATM   26  C   UNL     1     -42.351  60.001 -52.902  1.00  0.00     0.018 A 
HETATM   27  C   UNL     1     -44.287  58.002 -52.651  1.00  0.00     0.015 A 
HETATM   28  C   UNL     1     -44.560  59.159 -53.389  1.00  0.00     0.001 A 
HETATM   29  C   UNL     1     -43.594  60.158 -53.512  1.00  0.00     0.001 A 
ENDBRANCH   2  18
TORSDOF 4
ENDMDL
MODEL 9
REMARK VINA RESULT:      -8.6      2.300      3.829
REMARK  4 active torsions:
REMARK  status: ('A' for Active; 'I' for Inactive)
REMARK    1  A    between atoms: C_4  and  C_5 
REMARK    2  A    between atoms: C_5  and  C_6 
REMARK    3  A    between atoms: C_7  and  N_8 
REMARK       I    between atoms: N_8  and  C_9 
REMARK    4  A    between atoms: C_9  and  C_10 
ROOT
HETATM    1  N   UNL     1     -40.640  57.064 -52.395  1.00  0.00    -0.321 N 
HETATM    2  C   UNL     1     -40.808  58.325 -52.931  1.00  0.00     0.277 C 
HETATM    3  O   UNL     1     -39.849  59.058 -53.156  1.00  0.00    -0.266 OA
HETATM    4  H   UNL     1     -39.765  56.985 -51.890  1.00  0.00     0.169 HD
ENDROOT
BRANCH   1   5
HETATM    5  C   UNL     1     -41.665  56.178 -52.043  1.00  0.00     0.041 A 
HETATM    6  C   UNL     1     -41.794  54.922 -52.665  1.00  0.00    -0.027 A 
HETATM    7  C   UNL     1     -42.826  54.069 -52.235  1.00  0.00     0.010 A 
HETATM    8  C   UNL     1     -43.677  54.438 -51.192  1.00  0.00     0.001 A 
HETATM    9  C   UNL     1     -43.497  55.657 -50.547  1.00  0.00     0.002 A 
HETATM   10  C   UNL     1     -42.482  56.520 -50.961  1.00  0.00     0.030 A 
BRANCH   6  11
HETATM   11  C   UNL     1     -40.800  54.399 -53.687  1.00  0.00     0.079 C 
BRANCH  11  12
HETATM   12  C   UNL     1     -40.385  52.960 -53.465  1.00  0.00    -0.054 A 
HETATM   13  C   UNL     1     -39.830  52.549 -52.245  1.00  0.00     0.007 A 
HETATM   14  C   UNL     1     -39.461  51.217 -52.048  1.00  0.00     0.001 A 
HETATM   15  C   UNL     1     -39.641  50.282 -53.066  1.00  0.00     0.000 A 
HETATM   16  C   UNL     1     -40.187  50.678 -54.284  1.00  0.00     0.001 A 
HETATM   17  C   UNL     1     -40.558  52.009 -54.484  1.00  0.00     0.007 A 
ENDBRANCH  11  12
ENDBRANCH   6  11
ENDBRANCH   1   5
BRANCH   2  18
HETATM   18  C   UNL     1     -42.210  58.891 -53.112  1.00  0.00     0.156 A 
HETATM   19  N   UNL     1     -42.697  59.641 -52.166  1.00  0.00    -0.166 NA
HETATM   20  N   UNL     1     -43.955  60.140 -52.322  1.00  0.00    -0.242 N 
HETATM   21  C   UNL     1     -44.794  59.903 -53.384  1.00  0.00     0.272 A 
HETATM   22  H   UNL     1     -44.303  60.737 -51.578  1.00  0.00     0.192 HD
HETATM   23  O   UNL     1     -45.918  60.386 -53.454  1.00  0.00    -0.266 OA
HETATM   24  C   UNL     1     -44.266  59.025 -54.441  1.00  0.00     0.046 A 
HETATM   25  C   UNL     1     -42.970  58.525 -54.327  1.00  0.00     0.016 A 
HETATM   26  C   UNL     1     -45.066  58.689 -55.540  1.00  0.00     0.018 A 
HETATM   27  C   UNL     1     -42.466  57.686 -55.329  1.00  0.00     0.015 A 
HETATM   28  C   UNL     1     -43.265  57.347 -56.426  1.00  0.00     0.001 A 
HETATM   29  C   UNL     1     -44.563  57.846 -56.530  1.00  0.00     0.001 A 
ENDBRANCH   2  18
TORSDOF 4
ENDMDL
MODEL 10
REMARK VINA RESULT:      -8.6      1.701      2.862
REMARK  4 active torsions:
REMARK  status: ('A' for Active; 'I' for Inactive)
REMARK    1  A    between atoms: C_4  and  C_5 
REMARK    2  A    between atoms: C_5  and  C_6 
REMARK    3  A    between atoms: C_7  and  N_8 
REMARK       I    between atoms: N_8  and  C_9 
REMARK    4  A    between atoms: C_9  and  C_10 
ROOT
HETATM    1  N   UNL     1     -40.477  56.993 -53.913  1.00  0.00    -0.321 N 
HETATM    2  C   UNL     1     -40.787  57.952 -52.971  1.00  0.00     0.277 C 
HETATM    3  O   UNL     1     -39.930  58.704 -52.517  1.00  0.00    -0.266 OA
HETATM    4  H   UNL     1     -39.495  56.744 -53.886  1.00  0.00     0.169 HD
ENDROOT
BRANCH   1   5
HETATM    5  C   UNL     1     -41.362  56.047 -54.446  1.00  0.00     0.041 A 
HETATM    6  C   UNL     1     -41.508  54.773 -53.869  1.00  0.00    -0.027 A 
HETATM    7  C   UNL     1     -42.443  53.888 -54.436  1.00  0.00     0.010 A 
HETATM    8  C   UNL     1     -43.234  54.274 -55.519  1.00  0.00     0.001 A 
HETATM    9  C   UNL     1     -43.119  55.559 -56.040  1.00  0.00     0.002 A 
HETATM   10  C   UNL     1     -42.196  56.451 -55.494  1.00  0.00     0.030 A 
BRANCH   6  11
HETATM   11  C   UNL     1     -40.798  54.356 -52.593  1.00  0.00     0.079 C 
BRANCH  11  12
HETATM   12  C   UNL     1     -40.324  52.918 -52.590  1.00  0.00    -0.054 A 
HETATM   13  C   UNL     1     -40.096  52.236 -51.386  1.00  0.00     0.007 A 
HETATM   14  C   UNL     1     -39.670  50.907 -51.394  1.00  0.00     0.001 A 
HETATM   15  C   UNL     1     -39.466  50.245 -52.603  1.00  0.00     0.000 A 
HETATM   16  C   UNL     1     -39.684  50.912 -53.806  1.00  0.00     0.001 A 
HETATM   17  C   UNL     1     -40.112  52.240 -53.800  1.00  0.00     0.007 A 
ENDBRANCH  11  12
ENDBRANCH   6  11
ENDBRANCH   1   5
BRANCH   2  18
HETATM   18  C   UNL     1     -42.182  57.993 -52.361  1.00  0.00     0.156 A 
HETATM   19  N   UNL     1     -42.428  57.229 -51.337  1.00  0.00    -0.166 NA
HETATM   20  N   UNL     1     -43.678  57.256 -50.797  1.00  0.00    -0.242 N 
HETATM   21  C   UNL     1     -44.740  58.001 -51.251  1.00  0.00     0.272 A 
HETATM   22  H   UNL     1     -43.838  56.664 -49.987  1.00  0.00     0.192 HD
HETATM   23  O   UNL     1     -45.840  57.972 -50.713  1.00  0.00    -0.266 OA
HETATM   24  C   UNL     1     -44.482  58.840 -52.433  1.00  0.00     0.046 A 
HETATM   25  C   UNL     1     -43.205  58.859 -52.989  1.00  0.00     0.016 A 
HETATM   26  C   UNL     1     -45.516  59.599 -52.996  1.00  0.00     0.018 A 
HETATM   27  C   UNL     1     -42.956  59.653 -54.116  1.00  0.00     0.015 A 
HETATM   28  C   UNL     1     -43.989  60.409 -54.681  1.00  0.00     0.001 A 
HETATM   29  C   UNL     1     -45.267  60.380 -54.123  1.00  0.00     0.001 A 
ENDBRANCH   2  18
TORSDOF 4
ENDMDL
