MODEL 1
REMARK VINA RESULT:      -8.8      0.000      0.000
REMARK  8 active torsions:
REMARK  status: ('A' for Active; 'I' for Inactive)
REMARK    1  A    between atoms: N_5  and  C_6 
REMARK    2  A    between atoms: C_6  and  C_7 
REMARK       I    between atoms: C_7  and  N_8 
REMARK    3  A    between atoms: N_8  and  C_9 
REMARK    4  A    between atoms: N_19  and  C_20 
REMARK    5  A    between atoms: C_20  and  C_21 
REMARK    6  A    between atoms: C_24  and  C_25 
REMARK       I    between atoms: C_25  and  N_26 
REMARK    7  A    between atoms: N_26  and  C_27 
REMARK    8  A    between atoms: C_27  and  C_28 
ROOT
HETATM    1  C   UNL     1     -40.071  62.876 -62.106  1.00  0.00     0.001 A 
HETATM    2  C   UNL     1     -40.079  62.534 -60.758  1.00  0.00     0.019 A 
HETATM    3  C   UNL     1     -41.298  62.310 -60.098  1.00  0.00     0.059 A 
HETATM    4  C   UNL     1     -42.514  62.415 -60.770  1.00  0.00     0.055 A 
HETATM    5  N   UNL     1     -43.724  62.182 -60.060  1.00  0.00    -0.290 N 
HETATM    6  C   UNL     1     -43.741  61.942 -58.692  1.00  0.00     0.332 C 
HETATM    7  O   UNL     1     -44.808  61.939 -58.073  1.00  0.00    -0.246 OA
HETATM    8  N   UNL     1     -42.521  61.766 -58.064  1.00  0.00    -0.261 N 
HETATM    9  C   UNL     1     -41.287  61.946 -58.673  1.00  0.00     0.264 C 
HETATM   10  O   UNL     1     -40.211  61.832 -58.090  1.00  0.00    -0.267 OA
HETATM   11  C   UNL     1     -42.489  62.766 -62.129  1.00  0.00     0.031 A 
HETATM   12  C   UNL     1     -41.275  62.993 -62.790  1.00  0.00     0.002 A 
ENDROOT
BRANCH   8  13
HETATM   13  C   UNL     1     -42.528  61.398 -56.653  1.00  0.00     0.175 C 
BRANCH  13  14
HETATM   14  C   UNL     1     -42.412  59.899 -56.455  1.00  0.00    -0.040 A 
HETATM   15  C   UNL     1     -42.546  59.019 -57.537  1.00  0.00     0.010 A 
HETATM   16  C   UNL     1     -42.440  57.632 -57.359  1.00  0.00     0.017 A 
HETATM   17  C   UNL     1     -42.194  57.102 -56.088  1.00  0.00     0.032 A 
HETATM   18  C   UNL     1     -42.061  57.983 -55.004  1.00  0.00     0.017 A 
HETATM   19  C   UNL     1     -42.174  59.365 -55.183  1.00  0.00     0.010 A 
BRANCH  17  20
HETATM   20  C   UNL     1     -42.066  55.637 -55.807  1.00  0.00     0.251 C 
HETATM   21  N   UNL     1     -40.880  55.180 -55.273  1.00  0.00    -0.353 N 
HETATM   22  H   UNL     1     -40.156  55.813 -54.973  1.00  0.00     0.163 HD
HETATM   23  O   UNL     1     -42.999  54.885 -56.070  1.00  0.00    -0.268 OA
BRANCH  21  24
HETATM   24  C   UNL     1     -40.691  53.776 -54.972  1.00  0.00     0.161 C 
BRANCH  24  25
HETATM   25  C   UNL     1     -40.522  53.516 -53.492  1.00  0.00    -0.038 A 
HETATM   26  C   UNL     1     -40.964  54.478 -52.567  1.00  0.00     0.048 A 
HETATM   27  C   UNL     1     -40.871  54.184 -51.222  1.00  0.00     0.105 A 
HETATM   28  C   UNL     1     -40.362  52.990 -50.773  1.00  0.00     0.105 A 
HETATM   29  O   UNL     1     -41.269  54.993 -50.203  1.00  0.00    -0.323 OA
HETATM   30  O   UNL     1     -40.370  52.897 -49.417  1.00  0.00    -0.323 OA
HETATM   31  C   UNL     1     -39.922  52.019 -51.644  1.00  0.00     0.040 A 
HETATM   32  C   UNL     1     -40.979  54.157 -49.064  1.00  0.00     0.352 A 
HETATM   33  C   UNL     1     -40.018  52.282 -53.015  1.00  0.00     0.012 A 
ENDBRANCH  24  25
ENDBRANCH  21  24
ENDBRANCH  17  20
ENDBRANCH  13  14
ENDBRANCH   8  13
BRANCH   5  34
HETATM   34  C   UNL     1     -45.008  62.155 -60.775  1.00  0.00     0.237 C 
BRANCH  34  35
HETATM   35  C   UNL     1     -45.470  60.768 -61.237  1.00  0.00     0.240 C 
HETATM   36  N   UNL     1     -45.524  59.826 -60.225  1.00  0.00    -0.326 N 
HETATM   37  H   UNL     1     -45.290  60.156 -59.296  1.00  0.00     0.169 HD
HETATM   38  O   UNL     1     -45.653  60.555 -62.433  1.00  0.00    -0.271 OA
BRANCH  36  39
HETATM   39  C   UNL     1     -45.818  58.451 -60.343  1.00  0.00     0.036 A 
HETATM   40  C   UNL     1     -44.900  57.429 -60.092  1.00  0.00     0.053 A 
HETATM   41  C   UNL     1     -45.290  56.092 -60.210  1.00  0.00     0.036 A 
HETATM   42 CL   UNL     1     -44.159  54.838 -59.874  1.00  0.00    -0.084 Cl
HETATM   43  C   UNL     1     -46.588  55.759 -60.591  1.00  0.00     0.024 A 
HETATM   44  C   UNL     1     -47.507  56.771 -60.851  1.00  0.00     0.004 A 
HETATM   45  C   UNL     1     -47.124  58.110 -60.722  1.00  0.00     0.029 A 
ENDBRANCH  36  39
ENDBRANCH  34  35
ENDBRANCH   5  34
TORSDOF 8
ENDMDL
MODEL 2
REMARK VINA RESULT:      -8.8      3.561      5.602
REMARK  8 active torsions:
REMARK  status: ('A' for Active; 'I' for Inactive)
REMARK    1  A    between atoms: N_5  and  C_6 
REMARK    2  A    between atoms: C_6  and  C_7 
REMARK       I    between atoms: C_7  and  N_8 
REMARK    3  A    between atoms: N_8  and  C_9 
REMARK    4  A    between atoms: N_19  and  C_20 
REMARK    5  A    between atoms: C_20  and  C_21 
REMARK    6  A    between atoms: C_24  and  C_25 
REMARK       I    between atoms: C_25  and  N_26 
REMARK    7  A    between atoms: N_26  and  C_27 
REMARK    8  A    between atoms: C_27  and  C_28 
ROOT
HETATM    1  C   UNL     1     -47.087  62.456 -53.989  1.00  0.00     0.001 A 
HETATM    2  C   UNL     1     -46.075  62.191 -53.072  1.00  0.00     0.019 A 
HETATM    3  C   UNL     1     -44.921  61.503 -53.480  1.00  0.00     0.059 A 
HETATM    4  C   UNL     1     -44.758  61.079 -54.798  1.00  0.00     0.055 A 
HETATM    5  N   UNL     1     -43.574  60.383 -55.164  1.00  0.00    -0.290 N 
HETATM    6  C   UNL     1     -42.610  60.027 -54.231  1.00  0.00     0.332 C 
HETATM    7  O   UNL     1     -41.696  59.259 -54.540  1.00  0.00    -0.246 OA
HETATM    8  N   UNL     1     -42.756  60.524 -52.947  1.00  0.00    -0.261 N 
HETATM    9  C   UNL     1     -43.860  61.234 -52.498  1.00  0.00     0.264 C 
HETATM   10  O   UNL     1     -43.998  61.629 -51.342  1.00  0.00    -0.267 OA
HETATM   11  C   UNL     1     -45.791  61.351 -55.710  1.00  0.00     0.031 A 
HETATM   12  C   UNL     1     -46.945  62.035 -55.306  1.00  0.00     0.002 A 
ENDROOT
BRANCH   8  13
HETATM   13  C   UNL     1     -41.691  60.255 -51.987  1.00  0.00     0.175 C 
BRANCH  13  14
HETATM   14  C   UNL     1     -41.743  58.834 -51.463  1.00  0.00    -0.040 A 
HETATM   15  C   UNL     1     -42.941  58.106 -51.479  1.00  0.00     0.010 A 
HETATM   16  C   UNL     1     -42.994  56.791 -50.994  1.00  0.00     0.017 A 
HETATM   17  C   UNL     1     -41.843  56.180 -50.485  1.00  0.00     0.032 A 
HETATM   18  C   UNL     1     -40.644  56.911 -50.467  1.00  0.00     0.017 A 
HETATM   19  C   UNL     1     -40.595  58.224 -50.945  1.00  0.00     0.010 A 
BRANCH  17  20
HETATM   20  C   UNL     1     -41.808  54.783 -49.948  1.00  0.00     0.251 C 
HETATM   21  N   UNL     1     -40.589  54.144 -49.880  1.00  0.00    -0.353 N 
HETATM   22  H   UNL     1     -39.727  54.626 -50.076  1.00  0.00     0.163 HD
HETATM   23  O   UNL     1     -42.853  54.241 -49.602  1.00  0.00    -0.268 OA
BRANCH  21  24
HETATM   24  C   UNL     1     -40.484  52.794 -49.366  1.00  0.00     0.161 C 
BRANCH  24  25
HETATM   25  C   UNL     1     -40.258  51.773 -50.458  1.00  0.00    -0.038 A 
HETATM   26  C   UNL     1     -40.114  52.204 -51.788  1.00  0.00     0.048 A 
HETATM   27  C   UNL     1     -39.830  51.261 -52.756  1.00  0.00     0.105 A 
HETATM   28  C   UNL     1     -39.689  49.929 -52.451  1.00  0.00     0.105 A 
HETATM   29  O   UNL     1     -39.644  51.513 -54.079  1.00  0.00    -0.323 OA
HETATM   30  O   UNL     1     -39.400  49.173 -53.544  1.00  0.00    -0.323 OA
HETATM   31  C   UNL     1     -39.817  49.465 -51.162  1.00  0.00     0.040 A 
HETATM   32  C   UNL     1     -39.338  50.190 -54.566  1.00  0.00     0.352 A 
HETATM   33  C   UNL     1     -40.090  50.400 -50.157  1.00  0.00     0.012 A 
ENDBRANCH  24  25
ENDBRANCH  21  24
ENDBRANCH  17  20
ENDBRANCH  13  14
ENDBRANCH   8  13
BRANCH   5  34
HETATM   34  C   UNL     1     -43.320  60.047 -56.572  1.00  0.00     0.237 C 
BRANCH  34  35
HETATM   35  C   UNL     1     -43.881  58.696 -57.034  1.00  0.00     0.240 C 
HETATM   36  N   UNL     1     -43.883  58.525 -58.406  1.00  0.00    -0.326 N 
HETATM   37  H   UNL     1     -43.487  59.284 -58.950  1.00  0.00     0.169 HD
HETATM   38  O   UNL     1     -44.371  57.928 -56.209  1.00  0.00    -0.271 OA
BRANCH  36  39
HETATM   39  C   UNL     1     -44.414  57.444 -59.140  1.00  0.00     0.036 A 
HETATM   40  C   UNL     1     -45.674  57.449 -59.742  1.00  0.00     0.053 A 
HETATM   41  C   UNL     1     -46.106  56.338 -60.471  1.00  0.00     0.036 A 
HETATM   42 CL   UNL     1     -47.651  56.363 -61.232  1.00  0.00    -0.084 Cl
HETATM   43  C   UNL     1     -45.299  55.210 -60.598  1.00  0.00     0.024 A 
HETATM   44  C   UNL     1     -44.045  55.193 -59.994  1.00  0.00     0.004 A 
HETATM   45  C   UNL     1     -43.604  56.307 -59.273  1.00  0.00     0.029 A 
ENDBRANCH  36  39
ENDBRANCH  34  35
ENDBRANCH   5  34
TORSDOF 8
ENDMDL
MODEL 3
REMARK VINA RESULT:      -8.6      3.927     10.238
REMARK  8 active torsions:
REMARK  status: ('A' for Active; 'I' for Inactive)
REMARK    1  A    between atoms: N_5  and  C_6 
REMARK    2  A    between atoms: C_6  and  C_7 
REMARK       I    between atoms: C_7  and  N_8 
REMARK    3  A    between atoms: N_8  and  C_9 
REMARK    4  A    between atoms: N_19  and  C_20 
REMARK    5  A    between atoms: C_20  and  C_21 
REMARK    6  A    between atoms: C_24  and  C_25 
REMARK       I    between atoms: C_25  and  N_26 
REMARK    7  A    between atoms: N_26  and  C_27 
REMARK    8  A    between atoms: C_27  and  C_28 
ROOT
HETATM    1  C   UNL     1     -41.940  59.878 -51.891  1.00  0.00     0.001 A 
HETATM    2  C   UNL     1     -41.824  59.971 -53.274  1.00  0.00     0.019 A 
HETATM    3  C   UNL     1     -42.281  58.922 -54.089  1.00  0.00     0.059 A 
HETATM    4  C   UNL     1     -42.861  57.780 -53.540  1.00  0.00     0.055 A 
HETATM    5  N   UNL     1     -43.306  56.742 -54.404  1.00  0.00    -0.290 N 
HETATM    6  C   UNL     1     -43.099  56.786 -55.776  1.00  0.00     0.332 C 
HETATM    7  O   UNL     1     -43.318  55.792 -56.472  1.00  0.00    -0.246 OA
HETATM    8  N   UNL     1     -42.593  57.961 -56.304  1.00  0.00    -0.261 N 
HETATM    9  C   UNL     1     -42.154  59.039 -55.549  1.00  0.00     0.264 C 
HETATM   10  O   UNL     1     -41.662  60.058 -56.029  1.00  0.00    -0.267 OA
HETATM   11  C   UNL     1     -42.966  57.700 -52.142  1.00  0.00     0.031 A 
HETATM   12  C   UNL     1     -42.509  58.743 -51.326  1.00  0.00     0.002 A 
ENDROOT
BRANCH   8  13
HETATM   13  C   UNL     1     -42.480  58.064 -57.755  1.00  0.00     0.175 C 
BRANCH  13  14
HETATM   14  C   UNL     1     -43.810  58.386 -58.407  1.00  0.00    -0.040 A 
HETATM   15  C   UNL     1     -44.372  57.521 -59.357  1.00  0.00     0.010 A 
HETATM   16  C   UNL     1     -45.601  57.816 -59.964  1.00  0.00     0.017 A 
HETATM   17  C   UNL     1     -46.292  58.984 -59.627  1.00  0.00     0.032 A 
HETATM   18  C   UNL     1     -45.728  59.850 -58.677  1.00  0.00     0.017 A 
HETATM   19  C   UNL     1     -44.499  59.558 -58.078  1.00  0.00     0.010 A 
BRANCH  17  20
HETATM   20  C   UNL     1     -47.608  59.376 -60.224  1.00  0.00     0.251 C 
HETATM   21  N   UNL     1     -48.387  60.285 -59.539  1.00  0.00    -0.353 N 
HETATM   22  H   UNL     1     -48.047  60.761 -58.720  1.00  0.00     0.163 HD
HETATM   23  O   UNL     1     -47.965  58.875 -61.285  1.00  0.00    -0.268 OA
BRANCH  21  24
HETATM   24  C   UNL     1     -49.668  60.711 -60.063  1.00  0.00     0.161 C 
BRANCH  24  25
HETATM   25  C   UNL     1     -50.790  60.540 -59.063  1.00  0.00    -0.038 A 
HETATM   26  C   UNL     1     -50.529  60.722 -57.694  1.00  0.00     0.048 A 
HETATM   27  C   UNL     1     -51.585  60.638 -56.809  1.00  0.00     0.105 A 
HETATM   28  C   UNL     1     -52.867  60.383 -57.232  1.00  0.00     0.105 A 
HETATM   29  O   UNL     1     -51.508  60.807 -55.462  1.00  0.00    -0.323 OA
HETATM   30  O   UNL     1     -53.757  60.353 -56.204  1.00  0.00    -0.323 OA
HETATM   31  C   UNL     1     -53.167  60.202 -58.563  1.00  0.00     0.040 A 
HETATM   32  C   UNL     1     -52.893  60.658 -55.090  1.00  0.00     0.352 A 
HETATM   33  C   UNL     1     -52.119  60.296 -59.485  1.00  0.00     0.012 A 
ENDBRANCH  24  25
ENDBRANCH  21  24
ENDBRANCH  17  20
ENDBRANCH  13  14
ENDBRANCH   8  13
BRANCH   5  34
HETATM   34  C   UNL     1     -44.041  55.591 -53.860  1.00  0.00     0.237 C 
BRANCH  34  35
HETATM   35  C   UNL     1     -43.186  54.570 -53.100  1.00  0.00     0.240 C 
HETATM   36  N   UNL     1     -42.064  54.148 -53.790  1.00  0.00    -0.326 N 
HETATM   37  H   UNL     1     -41.911  54.578 -54.695  1.00  0.00     0.169 HD
HETATM   38  O   UNL     1     -43.582  54.126 -52.024  1.00  0.00    -0.271 OA
BRANCH  36  39
HETATM   39  C   UNL     1     -41.139  53.156 -53.406  1.00  0.00     0.036 A 
HETATM   40  C   UNL     1     -40.810  52.045 -54.186  1.00  0.00     0.053 A 
HETATM   41  C   UNL     1     -39.860  51.126 -53.732  1.00  0.00     0.036 A 
HETATM   42 CL   UNL     1     -39.443  49.773 -54.712  1.00  0.00    -0.084 Cl
HETATM   43  C   UNL     1     -39.239  51.294 -52.497  1.00  0.00     0.024 A 
HETATM   44  C   UNL     1     -39.566  52.394 -51.709  1.00  0.00     0.004 A 
HETATM   45  C   UNL     1     -40.507  53.322 -52.164  1.00  0.00     0.029 A 
ENDBRANCH  36  39
ENDBRANCH  34  35
ENDBRANCH   5  34
TORSDOF 8
ENDMDL
MODEL 4
REMARK VINA RESULT:      -8.6      7.113      9.931
REMARK  8 active torsions:
REMARK  status: ('A' for Active; 'I' for Inactive)
REMARK    1  A    between atoms: N_5  and  C_6 
REMARK    2  A    between atoms: C_6  and  C_7 
REMARK       I    between atoms: C_7  and  N_8 
REMARK    3  A    between atoms: N_8  and  C_9 
REMARK    4  A    between atoms: N_19  and  C_20 
REMARK    5  A    between atoms: C_20  and  C_21 
REMARK    6  A    between atoms: C_24  and  C_25 
REMARK       I    between atoms: C_25  and  N_26 
REMARK    7  A    between atoms: N_26  and  C_27 
REMARK    8  A    between atoms: C_27  and  C_28 
ROOT
HETATM    1  C   UNL     1     -50.281  62.366 -53.073  1.00  0.00     0.001 A 
HETATM    2  C   UNL     1     -48.974  62.155 -53.498  1.00  0.00     0.019 A 
HETATM    3  C   UNL     1     -47.903  62.704 -52.774  1.00  0.00     0.059 A 
HETATM    4  C   UNL     1     -48.119  63.458 -51.623  1.00  0.00     0.055 A 
HETATM    5  N   UNL     1     -47.004  63.997 -50.923  1.00  0.00    -0.290 N 
HETATM    6  C   UNL     1     -45.706  63.875 -51.401  1.00  0.00     0.332 C 
HETATM    7  O   UNL     1     -44.788  64.514 -50.883  1.00  0.00    -0.246 OA
HETATM    8  N   UNL     1     -45.509  63.058 -52.502  1.00  0.00    -0.261 N 
HETATM    9  C   UNL     1     -46.527  62.467 -53.237  1.00  0.00     0.264 C 
HETATM   10  O   UNL     1     -46.340  61.783 -54.240  1.00  0.00    -0.267 OA
HETATM   11  C   UNL     1     -49.445  63.666 -51.209  1.00  0.00     0.031 A 
HETATM   12  C   UNL     1     -50.516  63.123 -51.930  1.00  0.00     0.002 A 
ENDROOT
BRANCH   8  13
HETATM   13  C   UNL     1     -44.138  62.828 -52.942  1.00  0.00     0.175 C 
BRANCH  13  14
HETATM   14  C   UNL     1     -43.570  61.537 -52.385  1.00  0.00    -0.040 A 
HETATM   15  C   UNL     1     -43.206  61.437 -51.035  1.00  0.00     0.010 A 
HETATM   16  C   UNL     1     -42.679  60.246 -50.515  1.00  0.00     0.017 A 
HETATM   17  C   UNL     1     -42.511  59.129 -51.342  1.00  0.00     0.032 A 
HETATM   18  C   UNL     1     -42.875  59.231 -52.693  1.00  0.00     0.017 A 
HETATM   19  C   UNL     1     -43.393  60.422 -53.211  1.00  0.00     0.010 A 
BRANCH  17  20
HETATM   20  C   UNL     1     -41.958  57.820 -50.872  1.00  0.00     0.251 C 
HETATM   21  N   UNL     1     -42.828  56.758 -50.739  1.00  0.00    -0.353 N 
HETATM   22  H   UNL     1     -43.784  56.816 -51.050  1.00  0.00     0.163 HD
HETATM   23  O   UNL     1     -40.765  57.728 -50.603  1.00  0.00    -0.268 OA
BRANCH  21  24
HETATM   24  C   UNL     1     -42.358  55.463 -50.294  1.00  0.00     0.161 C 
BRANCH  24  25
HETATM   25  C   UNL     1     -41.835  54.613 -51.430  1.00  0.00    -0.038 A 
HETATM   26  C   UNL     1     -40.805  53.688 -51.184  1.00  0.00     0.048 A 
HETATM   27  C   UNL     1     -40.399  52.869 -52.218  1.00  0.00     0.105 A 
HETATM   28  C   UNL     1     -40.970  52.938 -53.465  1.00  0.00     0.105 A 
HETATM   29  O   UNL     1     -39.433  51.915 -52.142  1.00  0.00    -0.323 OA
HETATM   30  O   UNL     1     -40.434  52.040 -54.334  1.00  0.00    -0.323 OA
HETATM   31  C   UNL     1     -41.984  53.825 -53.748  1.00  0.00     0.040 A 
HETATM   32  C   UNL     1     -39.486  51.370 -53.477  1.00  0.00     0.352 A 
HETATM   33  C   UNL     1     -42.427  54.658 -52.715  1.00  0.00     0.012 A 
ENDBRANCH  24  25
ENDBRANCH  21  24
ENDBRANCH  17  20
ENDBRANCH  13  14
ENDBRANCH   8  13
BRANCH   5  34
HETATM   34  C   UNL     1     -47.197  64.680 -49.636  1.00  0.00     0.237 C 
BRANCH  34  35
HETATM   35  C   UNL     1     -47.075  63.786 -48.397  1.00  0.00     0.240 C 
HETATM   36  N   UNL     1     -45.816  63.784 -47.825  1.00  0.00    -0.326 N 
HETATM   37  H   UNL     1     -45.129  64.391 -48.258  1.00  0.00     0.169 HD
HETATM   38  O   UNL     1     -48.021  63.076 -48.063  1.00  0.00    -0.271 OA
BRANCH  36  39
HETATM   39  C   UNL     1     -45.361  63.001 -46.743  1.00  0.00     0.036 A 
HETATM   40  C   UNL     1     -45.110  63.501 -45.463  1.00  0.00     0.053 A 
HETATM   41  C   UNL     1     -44.685  62.642 -44.446  1.00  0.00     0.036 A 
HETATM   42 CL   UNL     1     -44.401  63.264 -42.865  1.00  0.00    -0.084 Cl
HETATM   43  C   UNL     1     -44.493  61.285 -44.693  1.00  0.00     0.024 A 
HETATM   44  C   UNL     1     -44.734  60.779 -45.967  1.00  0.00     0.004 A 
HETATM   45  C   UNL     1     -45.170  61.633 -46.985  1.00  0.00     0.029 A 
ENDBRANCH  36  39
ENDBRANCH  34  35
ENDBRANCH   5  34
TORSDOF 8
ENDMDL
MODEL 5
REMARK VINA RESULT:      -8.3      3.688      5.132
REMARK  8 active torsions:
REMARK  status: ('A' for Active; 'I' for Inactive)
REMARK    1  A    between atoms: N_5  and  C_6 
REMARK    2  A    between atoms: C_6  and  C_7 
REMARK       I    between atoms: C_7  and  N_8 
REMARK    3  A    between atoms: N_8  and  C_9 
REMARK    4  A    between atoms: N_19  and  C_20 
REMARK    5  A    between atoms: C_20  and  C_21 
REMARK    6  A    between atoms: C_24  and  C_25 
REMARK       I    between atoms: C_25  and  N_26 
REMARK    7  A    between atoms: N_26  and  C_27 
REMARK    8  A    between atoms: C_27  and  C_28 
ROOT
HETATM    1  C   UNL     1     -42.039  58.284 -60.211  1.00  0.00     0.001 A 
HETATM    2  C   UNL     1     -41.806  58.694 -58.902  1.00  0.00     0.019 A 
HETATM    3  C   UNL     1     -42.872  58.776 -57.992  1.00  0.00     0.059 A 
HETATM    4  C   UNL     1     -44.173  58.448 -58.370  1.00  0.00     0.055 A 
HETATM    5  N   UNL     1     -45.222  58.549 -57.415  1.00  0.00    -0.290 N 
HETATM    6  C   UNL     1     -45.011  59.055 -56.140  1.00  0.00     0.332 C 
HETATM    7  O   UNL     1     -45.967  59.313 -55.405  1.00  0.00    -0.246 OA
HETATM    8  N   UNL     1     -43.701  59.301 -55.764  1.00  0.00    -0.261 N 
HETATM    9  C   UNL     1     -42.607  59.208 -56.611  1.00  0.00     0.264 C 
HETATM   10  O   UNL     1     -41.455  59.476 -56.277  1.00  0.00    -0.267 OA
HETATM   11  C   UNL     1     -44.392  58.040 -59.696  1.00  0.00     0.031 A 
HETATM   12  C   UNL     1     -43.331  57.959 -60.607  1.00  0.00     0.002 A 
ENDROOT
BRANCH   8  13
HETATM   13  C   UNL     1     -43.455  59.721 -54.389  1.00  0.00     0.175 C 
BRANCH  13  14
HETATM   14  C   UNL     1     -43.084  58.554 -53.495  1.00  0.00    -0.040 A 
HETATM   15  C   UNL     1     -41.853  58.526 -52.824  1.00  0.00     0.010 A 
HETATM   16  C   UNL     1     -41.506  57.448 -51.997  1.00  0.00     0.017 A 
HETATM   17  C   UNL     1     -42.390  56.378 -51.825  1.00  0.00     0.032 A 
HETATM   18  C   UNL     1     -43.621  56.406 -52.498  1.00  0.00     0.017 A 
HETATM   19  C   UNL     1     -43.963  57.478 -53.328  1.00  0.00     0.010 A 
BRANCH  17  20
HETATM   20  C   UNL     1     -42.102  55.189 -50.962  1.00  0.00     0.251 C 
HETATM   21  N   UNL     1     -40.791  54.780 -50.839  1.00  0.00    -0.353 N 
HETATM   22  H   UNL     1     -40.030  55.318 -51.221  1.00  0.00     0.163 HD
HETATM   23  O   UNL     1     -43.026  54.605 -50.406  1.00  0.00    -0.268 OA
BRANCH  21  24
HETATM   24  C   UNL     1     -40.441  53.640 -50.016  1.00  0.00     0.161 C 
BRANCH  24  25
HETATM   25  C   UNL     1     -40.240  52.380 -50.825  1.00  0.00    -0.038 A 
HETATM   26  C   UNL     1     -40.106  52.469 -52.222  1.00  0.00     0.048 A 
HETATM   27  C   UNL     1     -39.844  51.313 -52.930  1.00  0.00     0.105 A 
HETATM   28  C   UNL     1     -39.715  50.095 -52.309  1.00  0.00     0.105 A 
HETATM   29  O   UNL     1     -39.670  51.229 -54.276  1.00  0.00    -0.323 OA
HETATM   30  O   UNL     1     -39.448  49.090 -53.185  1.00  0.00    -0.323 OA
HETATM   31  C   UNL     1     -39.834  49.963 -50.944  1.00  0.00     0.040 A 
HETATM   32  C   UNL     1     -39.386  49.823 -54.426  1.00  0.00     0.352 A 
HETATM   33  C   UNL     1     -40.084  51.120 -50.197  1.00  0.00     0.012 A 
ENDBRANCH  24  25
ENDBRANCH  21  24
ENDBRANCH  17  20
ENDBRANCH  13  14
ENDBRANCH   8  13
BRANCH   5  34
HETATM   34  C   UNL     1     -46.574  58.081 -57.750  1.00  0.00     0.237 C 
BRANCH  34  35
HETATM   35  C   UNL     1     -47.506  59.143 -58.345  1.00  0.00     0.240 C 
HETATM   36  N   UNL     1     -48.261  59.821 -57.406  1.00  0.00    -0.326 N 
HETATM   37  H   UNL     1     -48.096  59.571 -56.438  1.00  0.00     0.169 HD
HETATM   38  O   UNL     1     -47.603  59.252 -59.565  1.00  0.00    -0.271 OA
BRANCH  36  39
HETATM   39  C   UNL     1     -49.269  60.781 -57.639  1.00  0.00     0.036 A 
HETATM   40  C   UNL     1     -50.635  60.541 -57.474  1.00  0.00     0.053 A 
HETATM   41  C   UNL     1     -51.558  61.563 -57.705  1.00  0.00     0.036 A 
HETATM   42 CL   UNL     1     -53.239  61.265 -57.475  1.00  0.00    -0.084 Cl
HETATM   43  C   UNL     1     -51.137  62.826 -58.115  1.00  0.00     0.024 A 
HETATM   44  C   UNL     1     -49.779  63.072 -58.290  1.00  0.00     0.004 A 
HETATM   45  C   UNL     1     -48.850  62.055 -58.048  1.00  0.00     0.029 A 
ENDBRANCH  36  39
ENDBRANCH  34  35
ENDBRANCH   5  34
TORSDOF 8
ENDMDL
MODEL 6
REMARK VINA RESULT:      -8.2      2.322      4.974
REMARK  8 active torsions:
REMARK  status: ('A' for Active; 'I' for Inactive)
REMARK    1  A    between atoms: N_5  and  C_6 
REMARK    2  A    between atoms: C_6  and  C_7 
REMARK       I    between atoms: C_7  and  N_8 
REMARK    3  A    between atoms: N_8  and  C_9 
REMARK    4  A    between atoms: N_19  and  C_20 
REMARK    5  A    between atoms: C_20  and  C_21 
REMARK    6  A    between atoms: C_24  and  C_25 
REMARK       I    between atoms: C_25  and  N_26 
REMARK    7  A    between atoms: N_26  and  C_27 
REMARK    8  A    between atoms: C_27  and  C_28 
ROOT
HETATM    1  C   UNL     1     -47.996  62.500 -60.825  1.00  0.00     0.001 A 
HETATM    2  C   UNL     1     -47.798  61.131 -60.683  1.00  0.00     0.019 A 
HETATM    3  C   UNL     1     -46.501  60.625 -60.493  1.00  0.00     0.059 A 
HETATM    4  C   UNL     1     -45.396  61.471 -60.437  1.00  0.00     0.055 A 
HETATM    5  N   UNL     1     -44.101  60.914 -60.247  1.00  0.00    -0.290 N 
HETATM    6  C   UNL     1     -43.888  59.543 -60.207  1.00  0.00     0.332 C 
HETATM    7  O   UNL     1     -42.742  59.089 -60.238  1.00  0.00    -0.246 OA
HETATM    8  N   UNL     1     -45.007  58.727 -60.187  1.00  0.00    -0.261 N 
HETATM    9  C   UNL     1     -46.311  59.175 -60.340  1.00  0.00     0.264 C 
HETATM   10  O   UNL     1     -47.292  58.434 -60.368  1.00  0.00    -0.267 OA
HETATM   11  C   UNL     1     -45.612  62.851 -60.588  1.00  0.00     0.031 A 
HETATM   12  C   UNL     1     -46.903  63.358 -60.780  1.00  0.00     0.002 A 
ENDROOT
BRANCH   8  13
HETATM   13  C   UNL     1     -44.801  57.292 -60.027  1.00  0.00     0.175 C 
BRANCH  13  14
HETATM   14  C   UNL     1     -44.240  56.947 -58.661  1.00  0.00    -0.040 A 
HETATM   15  C   UNL     1     -43.285  55.930 -58.513  1.00  0.00     0.010 A 
HETATM   16  C   UNL     1     -42.764  55.607 -57.252  1.00  0.00     0.017 A 
HETATM   17  C   UNL     1     -43.191  56.300 -56.114  1.00  0.00     0.032 A 
HETATM   18  C   UNL     1     -44.147  57.316 -56.263  1.00  0.00     0.017 A 
HETATM   19  C   UNL     1     -44.671  57.632 -57.520  1.00  0.00     0.010 A 
BRANCH  17  20
HETATM   20  C   UNL     1     -42.688  56.021 -54.732  1.00  0.00     0.251 C 
HETATM   21  N   UNL     1     -41.542  55.266 -54.598  1.00  0.00    -0.353 N 
HETATM   22  H   UNL     1     -40.989  54.998 -55.396  1.00  0.00     0.163 HD
HETATM   23  O   UNL     1     -43.307  56.450 -53.764  1.00  0.00    -0.268 OA
BRANCH  21  24
HETATM   24  C   UNL     1     -40.999  54.963 -53.290  1.00  0.00     0.161 C 
BRANCH  24  25
HETATM   25  C   UNL     1     -40.535  53.529 -53.172  1.00  0.00    -0.038 A 
HETATM   26  C   UNL     1     -40.319  52.975 -51.898  1.00  0.00     0.048 A 
HETATM   27  C   UNL     1     -39.972  51.641 -51.814  1.00  0.00     0.105 A 
HETATM   28  C   UNL     1     -39.835  50.855 -52.932  1.00  0.00     0.105 A 
HETATM   29  O   UNL     1     -39.746  50.951 -50.664  1.00  0.00    -0.323 OA
HETATM   30  O   UNL     1     -39.501  49.573 -52.628  1.00  0.00    -0.323 OA
HETATM   31  C   UNL     1     -40.042  51.355 -54.198  1.00  0.00     0.040 A 
HETATM   32  C   UNL     1     -39.482  49.633 -51.187  1.00  0.00     0.352 A 
HETATM   33  C   UNL     1     -40.409  52.701 -54.314  1.00  0.00     0.012 A 
ENDBRANCH  24  25
ENDBRANCH  21  24
ENDBRANCH  17  20
ENDBRANCH  13  14
ENDBRANCH   8  13
BRANCH   5  34
HETATM   34  C   UNL     1     -42.939  61.793 -60.050  1.00  0.00     0.237 C 
BRANCH  34  35
HETATM   35  C   UNL     1     -42.377  61.824 -58.624  1.00  0.00     0.240 C 
HETATM   36  N   UNL     1     -43.074  61.036 -57.725  1.00  0.00    -0.326 N 
HETATM   37  H   UNL     1     -43.848  60.505 -58.107  1.00  0.00     0.169 HD
HETATM   38  O   UNL     1     -41.454  62.588 -58.350  1.00  0.00    -0.271 OA
BRANCH  36  39
HETATM   39  C   UNL     1     -42.866  60.925 -56.335  1.00  0.00     0.036 A 
HETATM   40  C   UNL     1     -42.014  59.992 -55.740  1.00  0.00     0.053 A 
HETATM   41  C   UNL     1     -41.853  59.974 -54.352  1.00  0.00     0.036 A 
HETATM   42 CL   UNL     1     -40.781  58.836 -53.630  1.00  0.00    -0.084 Cl
HETATM   43  C   UNL     1     -42.545  60.871 -53.543  1.00  0.00     0.024 A 
HETATM   44  C   UNL     1     -43.403  61.799 -54.125  1.00  0.00     0.004 A 
HETATM   45  C   UNL     1     -43.558  61.829 -55.515  1.00  0.00     0.029 A 
ENDBRANCH  36  39
ENDBRANCH  34  35
ENDBRANCH   5  34
TORSDOF 8
ENDMDL
MODEL 7
REMARK VINA RESULT:      -8.2     18.400     21.964
REMARK  8 active torsions:
REMARK  status: ('A' for Active; 'I' for Inactive)
REMARK    1  A    between atoms: N_5  and  C_6 
REMARK    2  A    between atoms: C_6  and  C_7 
REMARK       I    between atoms: C_7  and  N_8 
REMARK    3  A    between atoms: N_8  and  C_9 
REMARK    4  A    between atoms: N_19  and  C_20 
REMARK    5  A    between atoms: C_20  and  C_21 
REMARK    6  A    between atoms: C_24  and  C_25 
REMARK       I    between atoms: C_25  and  N_26 
REMARK    7  A    between atoms: N_26  and  C_27 
REMARK    8  A    between atoms: C_27  and  C_28 
ROOT
HETATM    1  C   UNL     1     -32.526  39.910 -49.793  1.00  0.00     0.001 A 
HETATM    2  C   UNL     1     -33.275  40.789 -50.570  1.00  0.00     0.019 A 
HETATM    3  C   UNL     1     -34.607  40.482 -50.890  1.00  0.00     0.059 A 
HETATM    4  C   UNL     1     -35.208  39.308 -50.438  1.00  0.00     0.055 A 
HETATM    5  N   UNL     1     -36.559  39.037 -50.789  1.00  0.00    -0.290 N 
HETATM    6  C   UNL     1     -37.276  39.860 -51.648  1.00  0.00     0.332 C 
HETATM    7  O   UNL     1     -38.370  39.500 -52.088  1.00  0.00    -0.246 OA
HETATM    8  N   UNL     1     -36.686  41.056 -52.021  1.00  0.00    -0.261 N 
HETATM    9  C   UNL     1     -35.385  41.424 -51.709  1.00  0.00     0.264 C 
HETATM   10  O   UNL     1     -34.858  42.467 -52.087  1.00  0.00    -0.267 OA
HETATM   11  C   UNL     1     -34.437  38.430 -49.659  1.00  0.00     0.031 A 
HETATM   12  C   UNL     1     -33.107  38.732 -49.340  1.00  0.00     0.002 A 
ENDROOT
BRANCH   8  13
HETATM   13  C   UNL     1     -37.473  41.982 -52.827  1.00  0.00     0.175 C 
BRANCH  13  14
HETATM   14  C   UNL     1     -37.285  41.745 -54.312  1.00  0.00    -0.040 A 
HETATM   15  C   UNL     1     -36.095  42.116 -54.954  1.00  0.00     0.010 A 
HETATM   16  C   UNL     1     -35.917  41.900 -56.328  1.00  0.00     0.017 A 
HETATM   17  C   UNL     1     -36.931  41.304 -57.085  1.00  0.00     0.032 A 
HETATM   18  C   UNL     1     -38.123  40.935 -56.443  1.00  0.00     0.017 A 
HETATM   19  C   UNL     1     -38.302  41.158 -55.074  1.00  0.00     0.010 A 
BRANCH  17  20
HETATM   20  C   UNL     1     -36.826  41.037 -58.554  1.00  0.00     0.251 C 
HETATM   21  N   UNL     1     -36.596  39.740 -58.963  1.00  0.00    -0.353 N 
HETATM   22  H   UNL     1     -36.606  38.971 -58.312  1.00  0.00     0.163 HD
HETATM   23  O   UNL     1     -36.930  41.965 -59.348  1.00  0.00    -0.268 OA
BRANCH  21  24
HETATM   24  C   UNL     1     -36.488  39.411 -60.369  1.00  0.00     0.161 C 
BRANCH  24  25
HETATM   25  C   UNL     1     -37.726  38.724 -60.900  1.00  0.00    -0.038 A 
HETATM   26  C   UNL     1     -38.747  38.352 -60.008  1.00  0.00     0.048 A 
HETATM   27  C   UNL     1     -39.900  37.798 -60.527  1.00  0.00     0.105 A 
HETATM   28  C   UNL     1     -40.068  37.603 -61.876  1.00  0.00     0.105 A 
HETATM   29  O   UNL     1     -40.985  37.403 -59.807  1.00  0.00    -0.323 OA
HETATM   30  O   UNL     1     -41.277  37.057 -62.176  1.00  0.00    -0.323 OA
HETATM   31  C   UNL     1     -39.096  37.956 -62.785  1.00  0.00     0.040 A 
HETATM   32  C   UNL     1     -41.866  36.967 -60.862  1.00  0.00     0.352 A 
HETATM   33  C   UNL     1     -37.922  38.534 -62.289  1.00  0.00     0.012 A 
ENDBRANCH  24  25
ENDBRANCH  21  24
ENDBRANCH  17  20
ENDBRANCH  13  14
ENDBRANCH   8  13
BRANCH   5  34
HETATM   34  C   UNL     1     -37.254  37.877 -50.215  1.00  0.00     0.237 C 
BRANCH  34  35
HETATM   35  C   UNL     1     -38.052  38.159 -48.937  1.00  0.00     0.240 C 
HETATM   36  N   UNL     1     -39.387  37.807 -49.016  1.00  0.00    -0.326 N 
HETATM   37  H   UNL     1     -39.683  37.376 -49.884  1.00  0.00     0.169 HD
HETATM   38  O   UNL     1     -37.514  38.749 -48.002  1.00  0.00    -0.271 OA
BRANCH  36  39
HETATM   39  C   UNL     1     -40.394  38.024 -48.052  1.00  0.00     0.036 A 
HETATM   40  C   UNL     1     -40.523  39.194 -47.300  1.00  0.00     0.053 A 
HETATM   41  C   UNL     1     -41.570  39.327 -46.385  1.00  0.00     0.036 A 
HETATM   42 CL   UNL     1     -41.735  40.783 -45.480  1.00  0.00    -0.084 Cl
HETATM   43  C   UNL     1     -42.490  38.298 -46.199  1.00  0.00     0.024 A 
HETATM   44  C   UNL     1     -42.366  37.125 -46.938  1.00  0.00     0.004 A 
HETATM   45  C   UNL     1     -41.326  36.992 -47.863  1.00  0.00     0.029 A 
ENDBRANCH  36  39
ENDBRANCH  34  35
ENDBRANCH   5  34
TORSDOF 8
ENDMDL
MODEL 8
REMARK VINA RESULT:      -8.2      2.216      3.213
REMARK  8 active torsions:
REMARK  status: ('A' for Active; 'I' for Inactive)
REMARK    1  A    between atoms: N_5  and  C_6 
REMARK    2  A    between atoms: C_6  and  C_7 
REMARK       I    between atoms: C_7  and  N_8 
REMARK    3  A    between atoms: N_8  and  C_9 
REMARK    4  A    between atoms: N_19  and  C_20 
REMARK    5  A    between atoms: C_20  and  C_21 
REMARK    6  A    between atoms: C_24  and  C_25 
REMARK       I    between atoms: C_25  and  N_26 
REMARK    7  A    between atoms: N_26  and  C_27 
REMARK    8  A    between atoms: C_27  and  C_28 
ROOT
HETATM    1  C   UNL     1     -39.192  64.201 -59.877  1.00  0.00     0.001 A 
HETATM    2  C   UNL     1     -40.094  64.240 -58.819  1.00  0.00     0.019 A 
HETATM    3  C   UNL     1     -41.256  63.453 -58.858  1.00  0.00     0.059 A 
HETATM    4  C   UNL     1     -41.529  62.619 -59.941  1.00  0.00     0.055 A 
HETATM    5  N   UNL     1     -42.721  61.843 -59.938  1.00  0.00    -0.290 N 
HETATM    6  C   UNL     1     -43.672  61.956 -58.934  1.00  0.00     0.332 C 
HETATM    7  O   UNL     1     -44.776  61.421 -59.057  1.00  0.00    -0.246 OA
HETATM    8  N   UNL     1     -43.344  62.731 -57.834  1.00  0.00    -0.261 N 
HETATM    9  C   UNL     1     -42.197  63.504 -57.729  1.00  0.00     0.264 C 
HETATM   10  O   UNL     1     -41.941  64.225 -56.766  1.00  0.00    -0.267 OA
HETATM   11  C   UNL     1     -40.611  62.595 -61.003  1.00  0.00     0.031 A 
HETATM   12  C   UNL     1     -39.452  63.381 -60.968  1.00  0.00     0.002 A 
ENDROOT
BRANCH   8  13
HETATM   13  C   UNL     1     -44.284  62.764 -56.719  1.00  0.00     0.175 C 
BRANCH  13  14
HETATM   14  C   UNL     1     -44.009  61.668 -55.709  1.00  0.00    -0.040 A 
HETATM   15  C   UNL     1     -44.447  60.356 -55.936  1.00  0.00     0.010 A 
HETATM   16  C   UNL     1     -44.195  59.338 -55.004  1.00  0.00     0.017 A 
HETATM   17  C   UNL     1     -43.496  59.619 -53.826  1.00  0.00     0.032 A 
HETATM   18  C   UNL     1     -43.059  60.933 -53.599  1.00  0.00     0.017 A 
HETATM   19  C   UNL     1     -43.317  61.948 -54.526  1.00  0.00     0.010 A 
BRANCH  17  20
HETATM   20  C   UNL     1     -43.183  58.596 -52.779  1.00  0.00     0.251 C 
HETATM   21  N   UNL     1     -43.660  57.315 -52.960  1.00  0.00    -0.353 N 
HETATM   22  H   UNL     1     -44.110  57.034 -53.817  1.00  0.00     0.163 HD
HETATM   23  O   UNL     1     -42.534  58.919 -51.790  1.00  0.00    -0.268 OA
BRANCH  21  24
HETATM   24  C   UNL     1     -43.390  56.276 -51.988  1.00  0.00     0.161 C 
BRANCH  24  25
HETATM   25  C   UNL     1     -42.531  55.165 -52.549  1.00  0.00    -0.038 A 
HETATM   26  C   UNL     1     -41.643  54.482 -51.700  1.00  0.00     0.048 A 
HETATM   27  C   UNL     1     -40.928  53.421 -52.217  1.00  0.00     0.105 A 
HETATM   28  C   UNL     1     -41.061  53.024 -53.526  1.00  0.00     0.105 A 
HETATM   29  O   UNL     1     -40.045  52.648 -51.529  1.00  0.00    -0.323 OA
HETATM   30  O   UNL     1     -40.278  51.955 -53.828  1.00  0.00    -0.323 OA
HETATM   31  C   UNL     1     -41.922  53.662 -54.390  1.00  0.00     0.040 A 
HETATM   32  C   UNL     1     -39.664  51.700 -52.548  1.00  0.00     0.352 A 
HETATM   33  C   UNL     1     -42.673  54.732 -53.890  1.00  0.00     0.012 A 
ENDBRANCH  24  25
ENDBRANCH  21  24
ENDBRANCH  17  20
ENDBRANCH  13  14
ENDBRANCH   8  13
BRANCH   5  34
HETATM   34  C   UNL     1     -42.964  60.858 -61.002  1.00  0.00     0.237 C 
BRANCH  34  35
HETATM   35  C   UNL     1     -42.670  59.401 -60.624  1.00  0.00     0.240 C 
HETATM   36  N   UNL     1     -43.546  58.873 -59.692  1.00  0.00    -0.326 N 
HETATM   37  H   UNL     1     -44.296  59.484 -59.390  1.00  0.00     0.169 HD
HETATM   38  O   UNL     1     -41.664  58.849 -61.064  1.00  0.00    -0.271 OA
BRANCH  36  39
HETATM   39  C   UNL     1     -43.488  57.605 -59.077  1.00  0.00     0.036 A 
HETATM   40  C   UNL     1     -44.078  56.452 -59.599  1.00  0.00     0.053 A 
HETATM   41  C   UNL     1     -43.946  55.233 -58.929  1.00  0.00     0.036 A 
HETATM   42 CL   UNL     1     -44.655  53.810 -59.594  1.00  0.00    -0.084 Cl
HETATM   43  C   UNL     1     -43.240  55.150 -57.731  1.00  0.00     0.024 A 
HETATM   44  C   UNL     1     -42.656  56.295 -57.199  1.00  0.00     0.004 A 
HETATM   45  C   UNL     1     -42.776  57.515 -57.872  1.00  0.00     0.029 A 
ENDBRANCH  36  39
ENDBRANCH  34  35
ENDBRANCH   5  34
TORSDOF 8
ENDMDL
MODEL 9
REMARK VINA RESULT:      -8.1      4.552      9.782
REMARK  8 active torsions:
REMARK  status: ('A' for Active; 'I' for Inactive)
REMARK    1  A    between atoms: N_5  and  C_6 
REMARK    2  A    between atoms: C_6  and  C_7 
REMARK       I    between atoms: C_7  and  N_8 
REMARK    3  A    between atoms: N_8  and  C_9 
REMARK    4  A    between atoms: N_19  and  C_20 
REMARK    5  A    between atoms: C_20  and  C_21 
REMARK    6  A    between atoms: C_24  and  C_25 
REMARK       I    between atoms: C_25  and  N_26 
REMARK    7  A    between atoms: N_26  and  C_27 
REMARK    8  A    between atoms: C_27  and  C_28 
ROOT
HETATM    1  C   UNL     1     -43.984  54.667 -50.574  1.00  0.00     0.001 A 
HETATM    2  C   UNL     1     -43.966  56.053 -50.696  1.00  0.00     0.019 A 
HETATM    3  C   UNL     1     -43.324  56.652 -51.792  1.00  0.00     0.059 A 
HETATM    4  C   UNL     1     -42.703  55.884 -52.776  1.00  0.00     0.055 A 
HETATM    5  N   UNL     1     -42.063  56.535 -53.866  1.00  0.00    -0.290 N 
HETATM    6  C   UNL     1     -41.953  57.917 -53.937  1.00  0.00     0.332 C 
HETATM    7  O   UNL     1     -41.228  58.442 -54.785  1.00  0.00    -0.246 OA
HETATM    8  N   UNL     1     -42.642  58.658 -52.992  1.00  0.00    -0.261 N 
HETATM    9  C   UNL     1     -43.317  58.118 -51.906  1.00  0.00     0.264 C 
HETATM   10  O   UNL     1     -43.884  58.790 -51.048  1.00  0.00    -0.267 OA
HETATM   11  C   UNL     1     -42.727  54.487 -52.635  1.00  0.00     0.031 A 
HETATM   12  C   UNL     1     -43.364  53.886 -51.542  1.00  0.00     0.002 A 
ENDROOT
BRANCH   8  13
HETATM   13  C   UNL     1     -42.631  60.110 -53.124  1.00  0.00     0.175 C 
BRANCH  13  14
HETATM   14  C   UNL     1     -43.869  60.626 -53.832  1.00  0.00    -0.040 A 
HETATM   15  C   UNL     1     -44.322  60.027 -55.016  1.00  0.00     0.010 A 
HETATM   16  C   UNL     1     -45.465  60.502 -55.675  1.00  0.00     0.017 A 
HETATM   17  C   UNL     1     -46.179  61.587 -55.155  1.00  0.00     0.032 A 
HETATM   18  C   UNL     1     -45.724  62.187 -53.970  1.00  0.00     0.017 A 
HETATM   19  C   UNL     1     -44.580  61.717 -53.319  1.00  0.00     0.010 A 
BRANCH  17  20
HETATM   20  C   UNL     1     -47.408  62.157 -55.791  1.00  0.00     0.251 C 
HETATM   21  N   UNL     1     -48.439  62.557 -54.967  1.00  0.00    -0.353 N 
HETATM   22  H   UNL     1     -48.339  62.574 -53.965  1.00  0.00     0.163 HD
HETATM   23  O   UNL     1     -47.476  62.239 -57.013  1.00  0.00    -0.268 OA
BRANCH  21  24
HETATM   24  C   UNL     1     -49.654  63.122 -55.516  1.00  0.00     0.161 C 
BRANCH  24  25
HETATM   25  C   UNL     1     -50.768  62.106 -55.627  1.00  0.00    -0.038 A 
HETATM   26  C   UNL     1     -51.055  61.527 -56.876  1.00  0.00     0.048 A 
HETATM   27  C   UNL     1     -52.023  60.545 -56.936  1.00  0.00     0.105 A 
HETATM   28  C   UNL     1     -52.704  60.128 -55.819  1.00  0.00     0.105 A 
HETATM   29  O   UNL     1     -52.405  59.875 -58.056  1.00  0.00    -0.323 OA
HETATM   30  O   UNL     1     -53.604  59.146 -56.094  1.00  0.00    -0.323 OA
HETATM   31  C   UNL     1     -52.452  60.664 -54.576  1.00  0.00     0.040 A 
HETATM   32  C   UNL     1     -53.383  58.967 -57.508  1.00  0.00     0.352 A 
HETATM   33  C   UNL     1     -51.465  61.651 -54.481  1.00  0.00     0.012 A 
ENDBRANCH  24  25
ENDBRANCH  21  24
ENDBRANCH  17  20
ENDBRANCH  13  14
ENDBRANCH   8  13
BRANCH   5  34
HETATM   34  C   UNL     1     -41.520  55.748 -54.982  1.00  0.00     0.237 C 
BRANCH  34  35
HETATM   35  C   UNL     1     -42.481  55.530 -56.157  1.00  0.00     0.240 C 
HETATM   36  N   UNL     1     -42.596  56.620 -57.001  1.00  0.00    -0.326 N 
HETATM   37  H   UNL     1     -42.016  57.420 -56.776  1.00  0.00     0.169 HD
HETATM   38  O   UNL     1     -43.142  54.495 -56.219  1.00  0.00    -0.271 OA
BRANCH  36  39
HETATM   39  C   UNL     1     -43.461  56.767 -58.105  1.00  0.00     0.036 A 
HETATM   40  C   UNL     1     -43.669  55.785 -59.076  1.00  0.00     0.053 A 
HETATM   41  C   UNL     1     -44.566  56.013 -60.123  1.00  0.00     0.036 A 
HETATM   42 CL   UNL     1     -44.835  54.786 -61.301  1.00  0.00    -0.084 Cl
HETATM   43  C   UNL     1     -45.253  57.221 -60.223  1.00  0.00     0.024 A 
HETATM   44  C   UNL     1     -45.046  58.209 -59.265  1.00  0.00     0.004 A 
HETATM   45  C   UNL     1     -44.158  57.980 -58.209  1.00  0.00     0.029 A 
ENDBRANCH  36  39
ENDBRANCH  34  35
ENDBRANCH   5  34
TORSDOF 8
ENDMDL
MODEL 10
REMARK VINA RESULT:      -8.1      3.178      5.713
REMARK  8 active torsions:
REMARK  status: ('A' for Active; 'I' for Inactive)
REMARK    1  A    between atoms: N_5  and  C_6 
REMARK    2  A    between atoms: C_6  and  C_7 
REMARK       I    between atoms: C_7  and  N_8 
REMARK    3  A    between atoms: N_8  and  C_9 
REMARK    4  A    between atoms: N_19  and  C_20 
REMARK    5  A    between atoms: C_20  and  C_21 
REMARK    6  A    between atoms: C_24  and  C_25 
REMARK       I    between atoms: C_25  and  N_26 
REMARK    7  A    between atoms: N_26  and  C_27 
REMARK    8  A    between atoms: C_27  and  C_28 
ROOT
HETATM    1  C   UNL     1     -49.605  61.046 -57.534  1.00  0.00     0.001 A 
HETATM    2  C   UNL     1     -48.659  60.255 -58.178  1.00  0.00     0.019 A 
HETATM    3  C   UNL     1     -47.290  60.526 -58.016  1.00  0.00     0.059 A 
HETATM    4  C   UNL     1     -46.850  61.575 -57.212  1.00  0.00     0.055 A 
HETATM    5  N   UNL     1     -45.455  61.813 -57.080  1.00  0.00    -0.290 N 
HETATM    6  C   UNL     1     -44.513  61.092 -57.801  1.00  0.00     0.332 C 
HETATM    7  O   UNL     1     -43.332  61.448 -57.816  1.00  0.00    -0.246 OA
HETATM    8  N   UNL     1     -44.968  60.007 -58.532  1.00  0.00    -0.261 N 
HETATM    9  C   UNL     1     -46.304  59.676 -58.701  1.00  0.00     0.264 C 
HETATM   10  O   UNL     1     -46.697  58.738 -59.392  1.00  0.00    -0.267 OA
HETATM   11  C   UNL     1     -47.818  62.367 -56.573  1.00  0.00     0.031 A 
HETATM   12  C   UNL     1     -49.184  62.102 -56.734  1.00  0.00     0.002 A 
ENDROOT
BRANCH   8  13
HETATM   13  C   UNL     1     -43.976  59.171 -59.199  1.00  0.00     0.175 C 
BRANCH  13  14
HETATM   14  C   UNL     1     -43.555  57.994 -58.341  1.00  0.00    -0.040 A 
HETATM   15  C   UNL     1     -43.692  56.679 -58.809  1.00  0.00     0.010 A 
HETATM   16  C   UNL     1     -43.304  55.587 -58.019  1.00  0.00     0.017 A 
HETATM   17  C   UNL     1     -42.769  55.795 -56.744  1.00  0.00     0.032 A 
HETATM   18  C   UNL     1     -42.634  57.111 -56.276  1.00  0.00     0.017 A 
HETATM   19  C   UNL     1     -43.027  58.198 -57.062  1.00  0.00     0.010 A 
BRANCH  17  20
HETATM   20  C   UNL     1     -42.329  54.689 -55.835  1.00  0.00     0.251 C 
HETATM   21  N   UNL     1     -41.040  54.723 -55.348  1.00  0.00    -0.353 N 
HETATM   22  H   UNL     1     -40.438  55.516 -55.500  1.00  0.00     0.163 HD
HETATM   23  O   UNL     1     -43.109  53.783 -55.562  1.00  0.00    -0.268 OA
BRANCH  21  24
HETATM   24  C   UNL     1     -40.552  53.688 -54.460  1.00  0.00     0.161 C 
BRANCH  24  25
HETATM   25  C   UNL     1     -40.766  54.026 -53.002  1.00  0.00    -0.038 A 
HETATM   26  C   UNL     1     -40.415  53.087 -52.016  1.00  0.00     0.048 A 
HETATM   27  C   UNL     1     -40.546  53.448 -50.690  1.00  0.00     0.105 A 
HETATM   28  C   UNL     1     -41.007  54.688 -50.319  1.00  0.00     0.105 A 
HETATM   29  O   UNL     1     -40.236  52.668 -49.621  1.00  0.00    -0.323 OA
HETATM   30  O   UNL     1     -41.050  54.844 -48.969  1.00  0.00    -0.323 OA
HETATM   31  C   UNL     1     -41.358  55.639 -51.250  1.00  0.00     0.040 A 
HETATM   32  C   UNL     1     -40.525  53.572 -48.534  1.00  0.00     0.352 A 
HETATM   33  C   UNL     1     -41.221  55.306 -52.603  1.00  0.00     0.012 A 
ENDBRANCH  24  25
ENDBRANCH  21  24
ENDBRANCH  17  20
ENDBRANCH  13  14
ENDBRANCH   8  13
BRANCH   5  34
HETATM   34  C   UNL     1     -44.963  62.826 -56.135  1.00  0.00     0.237 C 
BRANCH  34  35
HETATM   35  C   UNL     1     -44.592  62.297 -54.744  1.00  0.00     0.240 C 
HETATM   36  N   UNL     1     -44.198  60.971 -54.732  1.00  0.00    -0.326 N 
HETATM   37  H   UNL     1     -44.163  60.509 -55.633  1.00  0.00     0.169 HD
HETATM   38  O   UNL     1     -44.761  63.009 -53.757  1.00  0.00    -0.271 OA
BRANCH  36  39
HETATM   39  C   UNL     1     -43.887  60.174 -53.610  1.00  0.00     0.036 A 
HETATM   40  C   UNL     1     -42.816  60.417 -52.747  1.00  0.00     0.053 A 
HETATM   41  C   UNL     1     -42.602  59.585 -51.645  1.00  0.00     0.036 A 
HETATM   42 CL   UNL     1     -41.294  59.907 -50.572  1.00  0.00    -0.084 Cl
HETATM   43  C   UNL     1     -43.439  58.500 -51.397  1.00  0.00     0.024 A 
HETATM   44  C   UNL     1     -44.504  58.245 -52.257  1.00  0.00     0.004 A 
HETATM   45  C   UNL     1     -44.729  59.082 -53.354  1.00  0.00     0.029 A 
ENDBRANCH  36  39
ENDBRANCH  34  35
ENDBRANCH   5  34
TORSDOF 8
ENDMDL
