MODEL 1
REMARK VINA RESULT:      -9.6      0.000      0.000
REMARK  6 active torsions:
REMARK  status: ('A' for Active; 'I' for Inactive)
REMARK    1  A    between atoms: C_4  and  C_5 
REMARK    2  A    between atoms: N_7  and  C_8 
REMARK    3  A    between atoms: C_19  and  N_20 
REMARK       I    between atoms: N_20  and  C_21 
REMARK    4  A    between atoms: C_21  and  C_22 
REMARK    5  A    between atoms: C_25  and  S_26 
REMARK    6  A    between atoms: S_26  and  N_27 
ROOT
HETATM    1  C   UNL     1     -40.530  52.848 -53.034  1.00  0.00     0.115 A 
HETATM    2  N   UNL     1     -41.084  53.824 -52.306  1.00  0.00    -0.148 NA
HETATM    3  N   UNL     1     -41.393  54.788 -53.227  1.00  0.00    -0.044 N 
HETATM    4  C   UNL     1     -41.058  54.414 -54.520  1.00  0.00     0.152 A 
HETATM    5  C   UNL     1     -40.473  53.171 -54.404  1.00  0.00     0.087 A 
ENDROOT
BRANCH   4   6
HETATM    6  N   UNL     1     -41.326  55.205 -55.633  1.00  0.00    -0.307 N 
HETATM    7  C   UNL     1     -42.519  55.121 -56.326  1.00  0.00     0.257 C 
HETATM    8  O   UNL     1     -43.368  54.246 -56.192  1.00  0.00    -0.267 OA
HETATM    9  H   UNL     1     -40.585  55.825 -55.959  1.00  0.00     0.170 HD
BRANCH   7  10
HETATM   10  C   UNL     1     -42.769  56.194 -57.327  1.00  0.00     0.032 A 
HETATM   11  C   UNL     1     -43.126  55.893 -58.650  1.00  0.00     0.018 A 
HETATM   12  C   UNL     1     -43.186  56.914 -59.605  1.00  0.00     0.026 A 
HETATM   13  C   UNL     1     -42.896  58.232 -59.232  1.00  0.00     0.079 A 
HETATM   14  C   UNL     1     -42.563  58.543 -57.911  1.00  0.00     0.026 A 
HETATM   15  C   UNL     1     -42.499  57.521 -56.961  1.00  0.00     0.018 A 
BRANCH  13  16
HETATM   16  S   UNL     1     -42.781  59.484 -60.492  1.00  0.00     0.260 S 
HETATM   17  O   UNL     1     -41.572  59.250 -61.252  1.00  0.00    -0.200 OA
HETATM   18  O   UNL     1     -44.072  59.529 -61.146  1.00  0.00    -0.200 OA
BRANCH  16  19
HETATM   19  N   UNL     1     -42.586  60.923 -59.601  1.00  0.00    -0.307 N 
HETATM   20  C   UNL     1     -41.222  61.500 -59.497  1.00  0.00     0.135 C 
HETATM   21  C   UNL     1     -40.862  62.362 -60.704  1.00  0.00     0.021 C 
HETATM   22  C   UNL     1     -41.930  63.410 -60.998  1.00  0.00     0.003 C 
HETATM   23  C   UNL     1     -43.313  62.775 -61.092  1.00  0.00     0.021 C 
HETATM   24  C   UNL     1     -43.622  61.962 -59.840  1.00  0.00     0.135 C 
ENDBRANCH  16  19
ENDBRANCH  13  16
ENDBRANCH   7  10
ENDBRANCH   4   6
BRANCH   3  25
HETATM   25  C   UNL     1     -41.964  55.999 -52.787  1.00  0.00     0.732 A 
HETATM   26  N   UNL     1     -41.538  57.169 -53.153  1.00  0.00    -0.067 NA
HETATM   27  C   UNL     1     -42.189  58.248 -52.593  1.00  0.00     0.065 A 
HETATM   28  C   UNL     1     -43.215  58.150 -51.723  1.00  0.00     0.036 A 
HETATM   29  C   UNL     1     -41.659  59.600 -53.016  1.00  0.00     0.060 C 
HETATM   30  C   UNL     1     -43.896  59.319 -51.073  1.00  0.00     0.046 C 
HETATM   31  C   UNL     1     -43.692  56.795 -51.357  1.00  0.00     0.268 A 
HETATM   32  C   UNL     1     -43.113  60.623 -51.231  1.00  0.00     0.005 C 
HETATM   33  C   UNL     1     -42.579  60.769 -52.652  1.00  0.00     0.006 C 
HETATM   34  O   UNL     1     -44.633  56.613 -50.594  1.00  0.00    -0.267 OA
HETATM   35  N   UNL     1     -43.003  55.775 -51.930  1.00  0.00    -0.152 N 
HETATM   36  H   UNL     1     -43.266  54.819 -51.709  1.00  0.00     0.188 HD
ENDBRANCH   3  25
BRANCH   1  37
HETATM   37  C   UNL     1     -40.048  51.565 -52.442  1.00  0.00     0.105 A 
HETATM   38  O   UNL     1     -39.787  50.432 -53.163  1.00  0.00    -0.320 OA
HETATM   39  C   UNL     1     -39.381  49.479 -52.287  1.00  0.00     0.142 A 
HETATM   40  C   UNL     1     -39.374  49.974 -51.005  1.00  0.00     0.027 A 
HETATM   41  C   UNL     1     -39.803  51.321 -51.104  1.00  0.00     0.041 A 
ENDBRANCH   1  37
TORSDOF 6
ENDMDL
MODEL 2
REMARK VINA RESULT:      -9.2      4.083      9.109
REMARK  6 active torsions:
REMARK  status: ('A' for Active; 'I' for Inactive)
REMARK    1  A    between atoms: C_4  and  C_5 
REMARK    2  A    between atoms: N_7  and  C_8 
REMARK    3  A    between atoms: C_19  and  N_20 
REMARK       I    between atoms: N_20  and  C_21 
REMARK    4  A    between atoms: C_21  and  C_22 
REMARK    5  A    between atoms: C_25  and  S_26 
REMARK    6  A    between atoms: S_26  and  N_27 
ROOT
HETATM    1  C   UNL     1     -43.179  56.682 -56.580  1.00  0.00     0.115 A 
HETATM    2  N   UNL     1     -42.517  55.825 -55.795  1.00  0.00    -0.148 NA
HETATM    3  N   UNL     1     -42.728  56.306 -54.530  1.00  0.00    -0.044 N 
HETATM    4  C   UNL     1     -43.532  57.437 -54.520  1.00  0.00     0.152 A 
HETATM    5  C   UNL     1     -43.806  57.705 -55.843  1.00  0.00     0.087 A 
ENDROOT
BRANCH   4   6
HETATM    6  N   UNL     1     -43.931  58.073 -53.349  1.00  0.00    -0.307 N 
HETATM    7  C   UNL     1     -43.332  59.236 -52.903  1.00  0.00     0.257 C 
HETATM    8  O   UNL     1     -42.294  59.723 -53.337  1.00  0.00    -0.267 OA
HETATM    9  H   UNL     1     -44.658  57.623 -52.793  1.00  0.00     0.170 HD
BRANCH   7  10
HETATM   10  C   UNL     1     -44.022  59.938 -51.785  1.00  0.00     0.032 A 
HETATM   11  C   UNL     1     -45.420  59.930 -51.666  1.00  0.00     0.018 A 
HETATM   12  C   UNL     1     -46.043  60.737 -50.708  1.00  0.00     0.026 A 
HETATM   13  C   UNL     1     -45.266  61.544 -49.868  1.00  0.00     0.079 A 
HETATM   14  C   UNL     1     -43.872  61.539 -49.964  1.00  0.00     0.026 A 
HETATM   15  C   UNL     1     -43.253  60.737 -50.926  1.00  0.00     0.018 A 
BRANCH  13  16
HETATM   16  S   UNL     1     -46.075  62.710 -48.794  1.00  0.00     0.260 S 
HETATM   17  O   UNL     1     -45.091  63.676 -48.354  1.00  0.00    -0.200 OA
HETATM   18  O   UNL     1     -47.278  63.134 -49.478  1.00  0.00    -0.200 OA
BRANCH  16  19
HETATM   19  N   UNL     1     -46.532  61.760 -47.455  1.00  0.00    -0.307 N 
HETATM   20  C   UNL     1     -45.683  60.594 -47.104  1.00  0.00     0.135 C 
HETATM   21  C   UNL     1     -44.485  60.985 -46.243  1.00  0.00     0.021 C 
HETATM   22  C   UNL     1     -44.898  61.807 -45.026  1.00  0.00     0.003 C 
HETATM   23  C   UNL     1     -45.771  62.989 -45.432  1.00  0.00     0.021 C 
HETATM   24  C   UNL     1     -46.966  62.523 -46.255  1.00  0.00     0.135 C 
ENDBRANCH  16  19
ENDBRANCH  13  16
ENDBRANCH   7  10
ENDBRANCH   4   6
BRANCH   3  25
HETATM   25  C   UNL     1     -42.123  55.653 -53.438  1.00  0.00     0.732 A 
HETATM   26  N   UNL     1     -42.163  56.101 -52.221  1.00  0.00    -0.067 NA
HETATM   27  C   UNL     1     -41.481  55.354 -51.283  1.00  0.00     0.065 A 
HETATM   28  C   UNL     1     -40.808  54.218 -51.558  1.00  0.00     0.036 A 
HETATM   29  C   UNL     1     -41.522  55.909 -49.876  1.00  0.00     0.060 C 
HETATM   30  C   UNL     1     -40.025  53.427 -50.551  1.00  0.00     0.046 C 
HETATM   31  C   UNL     1     -40.816  53.723 -52.955  1.00  0.00     0.268 A 
HETATM   32  C   UNL     1     -39.784  54.197 -49.252  1.00  0.00     0.005 C 
HETATM   33  C   UNL     1     -41.048  54.922 -48.806  1.00  0.00     0.006 C 
HETATM   34  O   UNL     1     -40.252  52.689 -53.289  1.00  0.00    -0.267 OA
HETATM   35  N   UNL     1     -41.491  54.508 -53.833  1.00  0.00    -0.152 N 
HETATM   36  H   UNL     1     -41.523  54.237 -54.811  1.00  0.00     0.188 HD
ENDBRANCH   3  25
BRANCH   1  37
HETATM   37  C   UNL     1     -43.244  56.540 -58.065  1.00  0.00     0.105 A 
HETATM   38  O   UNL     1     -42.865  57.512 -58.950  1.00  0.00    -0.320 OA
HETATM   39  C   UNL     1     -43.076  57.025 -60.200  1.00  0.00     0.142 A 
HETATM   40  C   UNL     1     -43.588  55.752 -60.141  1.00  0.00     0.027 A 
HETATM   41  C   UNL     1     -43.696  55.437 -58.764  1.00  0.00     0.041 A 
ENDBRANCH   1  37
TORSDOF 6
ENDMDL
MODEL 3
REMARK VINA RESULT:      -9.2      1.893      2.533
REMARK  6 active torsions:
REMARK  status: ('A' for Active; 'I' for Inactive)
REMARK    1  A    between atoms: C_4  and  C_5 
REMARK    2  A    between atoms: N_7  and  C_8 
REMARK    3  A    between atoms: C_19  and  N_20 
REMARK       I    between atoms: N_20  and  C_21 
REMARK    4  A    between atoms: C_21  and  C_22 
REMARK    5  A    between atoms: C_25  and  S_26 
REMARK    6  A    between atoms: S_26  and  N_27 
ROOT
HETATM    1  C   UNL     1     -40.535  52.829 -53.020  1.00  0.00     0.115 A 
HETATM    2  N   UNL     1     -41.084  53.783 -52.258  1.00  0.00    -0.148 NA
HETATM    3  N   UNL     1     -41.407  54.771 -53.149  1.00  0.00    -0.044 N 
HETATM    4  C   UNL     1     -41.085  54.433 -54.456  1.00  0.00     0.152 A 
HETATM    5  C   UNL     1     -40.495  53.190 -54.380  1.00  0.00     0.087 A 
ENDROOT
BRANCH   4   6
HETATM    6  N   UNL     1     -41.368  55.254 -55.543  1.00  0.00    -0.307 N 
HETATM    7  C   UNL     1     -42.536  55.131 -56.274  1.00  0.00     0.257 C 
HETATM    8  O   UNL     1     -43.336  54.205 -56.200  1.00  0.00    -0.267 OA
HETATM    9  H   UNL     1     -40.656  55.928 -55.822  1.00  0.00     0.170 HD
BRANCH   7  10
HETATM   10  C   UNL     1     -42.820  56.229 -57.238  1.00  0.00     0.032 A 
HETATM   11  C   UNL     1     -42.752  57.577 -56.856  1.00  0.00     0.018 A 
HETATM   12  C   UNL     1     -43.189  58.574 -57.735  1.00  0.00     0.026 A 
HETATM   13  C   UNL     1     -43.687  58.220 -58.995  1.00  0.00     0.079 A 
HETATM   14  C   UNL     1     -43.735  56.881 -59.392  1.00  0.00     0.026 A 
HETATM   15  C   UNL     1     -43.303  55.887 -58.510  1.00  0.00     0.018 A 
BRANCH  13  16
HETATM   16  S   UNL     1     -44.422  59.475 -60.021  1.00  0.00     0.260 S 
HETATM   17  O   UNL     1     -44.556  60.681 -59.231  1.00  0.00    -0.200 OA
HETATM   18  O   UNL     1     -43.677  59.480 -61.262  1.00  0.00    -0.200 OA
BRANCH  16  19
HETATM   19  N   UNL     1     -45.980  58.863 -60.337  1.00  0.00    -0.307 N 
HETATM   20  C   UNL     1     -46.782  58.368 -59.190  1.00  0.00     0.135 C 
HETATM   21  C   UNL     1     -47.520  59.492 -58.469  1.00  0.00     0.021 C 
HETATM   22  C   UNL     1     -48.330  60.356 -59.431  1.00  0.00     0.003 C 
HETATM   23  C   UNL     1     -47.469  60.837 -60.594  1.00  0.00     0.021 C 
HETATM   24  C   UNL     1     -46.793  59.663 -61.291  1.00  0.00     0.135 C 
ENDBRANCH  16  19
ENDBRANCH  13  16
ENDBRANCH   7  10
ENDBRANCH   4   6
BRANCH   3  25
HETATM   25  C   UNL     1     -41.976  55.967 -52.670  1.00  0.00     0.732 A 
HETATM   26  N   UNL     1     -41.515  57.146 -52.952  1.00  0.00    -0.067 NA
HETATM   27  C   UNL     1     -42.172  58.206 -52.363  1.00  0.00     0.065 A 
HETATM   28  C   UNL     1     -43.238  58.081 -51.547  1.00  0.00     0.036 A 
HETATM   29  C   UNL     1     -41.601  59.569 -52.688  1.00  0.00     0.060 C 
HETATM   30  C   UNL     1     -43.929  59.227 -50.865  1.00  0.00     0.046 C 
HETATM   31  C   UNL     1     -43.754  56.718 -51.277  1.00  0.00     0.268 A 
HETATM   32  C   UNL     1     -43.117  60.522 -50.917  1.00  0.00     0.005 C 
HETATM   33  C   UNL     1     -42.517  60.733 -52.302  1.00  0.00     0.006 C 
HETATM   34  O   UNL     1     -44.731  56.513 -50.568  1.00  0.00    -0.267 OA
HETATM   35  N   UNL     1     -43.057  55.717 -51.873  1.00  0.00    -0.152 N 
HETATM   36  H   UNL     1     -43.346  54.756 -51.717  1.00  0.00     0.188 HD
ENDBRANCH   3  25
BRANCH   1  37
HETATM   37  C   UNL     1     -40.042  51.533 -52.469  1.00  0.00     0.105 A 
HETATM   38  O   UNL     1     -39.796  50.417 -53.222  1.00  0.00    -0.320 OA
HETATM   39  C   UNL     1     -39.374  49.443 -52.377  1.00  0.00     0.142 A 
HETATM   40  C   UNL     1     -39.341  49.906 -51.085  1.00  0.00     0.027 A 
HETATM   41  C   UNL     1     -39.771  51.255 -51.142  1.00  0.00     0.041 A 
ENDBRANCH   1  37
TORSDOF 6
ENDMDL
MODEL 4
REMARK VINA RESULT:      -9.1      3.517      7.831
REMARK  6 active torsions:
REMARK  status: ('A' for Active; 'I' for Inactive)
REMARK    1  A    between atoms: C_4  and  C_5 
REMARK    2  A    between atoms: N_7  and  C_8 
REMARK    3  A    between atoms: C_19  and  N_20 
REMARK       I    between atoms: N_20  and  C_21 
REMARK    4  A    between atoms: C_21  and  C_22 
REMARK    5  A    between atoms: C_25  and  S_26 
REMARK    6  A    between atoms: S_26  and  N_27 
ROOT
HETATM    1  C   UNL     1     -41.155  53.431 -53.561  1.00  0.00     0.115 A 
HETATM    2  N   UNL     1     -41.177  54.086 -54.728  1.00  0.00    -0.148 NA
HETATM    3  N   UNL     1     -41.863  55.236 -54.447  1.00  0.00    -0.044 N 
HETATM    4  C   UNL     1     -42.247  55.315 -53.116  1.00  0.00     0.152 A 
HETATM    5  C   UNL     1     -41.818  54.139 -52.540  1.00  0.00     0.087 A 
ENDROOT
BRANCH   4   6
HETATM    6  N   UNL     1     -42.908  56.415 -52.580  1.00  0.00    -0.307 N 
HETATM    7  C   UNL     1     -42.273  57.326 -51.757  1.00  0.00     0.257 C 
HETATM    8  O   UNL     1     -41.167  57.186 -51.248  1.00  0.00    -0.267 OA
HETATM    9  H   UNL     1     -43.905  56.506 -52.775  1.00  0.00     0.170 HD
BRANCH   7  10
HETATM   10  C   UNL     1     -43.025  58.579 -51.468  1.00  0.00     0.032 A 
HETATM   11  C   UNL     1     -42.362  59.784 -51.192  1.00  0.00     0.018 A 
HETATM   12  C   UNL     1     -43.091  60.896 -50.758  1.00  0.00     0.026 A 
HETATM   13  C   UNL     1     -44.480  60.801 -50.608  1.00  0.00     0.079 A 
HETATM   14  C   UNL     1     -45.150  59.611 -50.905  1.00  0.00     0.026 A 
HETATM   15  C   UNL     1     -44.419  58.501 -51.332  1.00  0.00     0.018 A 
BRANCH  13  16
HETATM   16  S   UNL     1     -45.367  62.156 -49.869  1.00  0.00     0.260 S 
HETATM   17  O   UNL     1     -45.131  63.339 -50.669  1.00  0.00    -0.200 OA
HETATM   18  O   UNL     1     -46.713  61.682 -49.623  1.00  0.00    -0.200 OA
BRANCH  16  19
HETATM   19  N   UNL     1     -44.593  62.360 -48.365  1.00  0.00    -0.307 N 
HETATM   20  C   UNL     1     -44.757  63.659 -47.665  1.00  0.00     0.135 C 
HETATM   21  C   UNL     1     -46.048  63.722 -46.852  1.00  0.00     0.021 C 
HETATM   22  C   UNL     1     -46.198  62.521 -45.923  1.00  0.00     0.003 C 
HETATM   23  C   UNL     1     -46.017  61.212 -46.682  1.00  0.00     0.021 C 
HETATM   24  C   UNL     1     -44.693  61.202 -47.438  1.00  0.00     0.135 C 
ENDBRANCH  16  19
ENDBRANCH  13  16
ENDBRANCH   7  10
ENDBRANCH   4   6
BRANCH   3  25
HETATM   25  C   UNL     1     -42.114  56.156 -55.485  1.00  0.00     0.732 A 
HETATM   26  N   UNL     1     -41.999  57.441 -55.350  1.00  0.00    -0.067 NA
HETATM   27  C   UNL     1     -42.324  58.194 -56.459  1.00  0.00     0.065 A 
HETATM   28  C   UNL     1     -42.731  57.677 -57.636  1.00  0.00     0.036 A 
HETATM   29  C   UNL     1     -42.205  59.690 -56.270  1.00  0.00     0.060 C 
HETATM   30  C   UNL     1     -43.132  58.492 -58.832  1.00  0.00     0.046 C 
HETATM   31  C   UNL     1     -42.818  56.202 -57.759  1.00  0.00     0.268 A 
HETATM   32  C   UNL     1     -43.352  59.967 -58.495  1.00  0.00     0.005 C 
HETATM   33  C   UNL     1     -42.251  60.486 -57.577  1.00  0.00     0.006 C 
HETATM   34  O   UNL     1     -43.154  55.647 -58.797  1.00  0.00    -0.267 OA
HETATM   35  N   UNL     1     -42.499  55.518 -56.630  1.00  0.00    -0.152 N 
HETATM   36  H   UNL     1     -42.553  54.504 -56.638  1.00  0.00     0.188 HD
ENDBRANCH   3  25
BRANCH   1  37
HETATM   37  C   UNL     1     -40.483  52.110 -53.383  1.00  0.00     0.105 A 
HETATM   38  O   UNL     1     -39.971  51.658 -52.198  1.00  0.00    -0.320 OA
HETATM   39  C   UNL     1     -39.436  50.432 -52.429  1.00  0.00     0.142 A 
HETATM   40  C   UNL     1     -39.591  50.079 -53.747  1.00  0.00     0.027 A 
HETATM   41  C   UNL     1     -40.268  51.161 -54.364  1.00  0.00     0.041 A 
ENDBRANCH   1  37
TORSDOF 6
ENDMDL
MODEL 5
REMARK VINA RESULT:      -8.8      1.065      1.634
REMARK  6 active torsions:
REMARK  status: ('A' for Active; 'I' for Inactive)
REMARK    1  A    between atoms: C_4  and  C_5 
REMARK    2  A    between atoms: N_7  and  C_8 
REMARK    3  A    between atoms: C_19  and  N_20 
REMARK       I    between atoms: N_20  and  C_21 
REMARK    4  A    between atoms: C_21  and  C_22 
REMARK    5  A    between atoms: C_25  and  S_26 
REMARK    6  A    between atoms: S_26  and  N_27 
ROOT
HETATM    1  C   UNL     1     -40.634  53.299 -53.582  1.00  0.00     0.115 A 
HETATM    2  N   UNL     1     -41.241  54.166 -52.763  1.00  0.00    -0.148 NA
HETATM    3  N   UNL     1     -41.512  55.242 -53.566  1.00  0.00    -0.044 N 
HETATM    4  C   UNL     1     -41.102  55.043 -54.876  1.00  0.00     0.152 A 
HETATM    5  C   UNL     1     -40.507  53.800 -54.891  1.00  0.00     0.087 A 
ENDROOT
BRANCH   4   6
HETATM    6  N   UNL     1     -41.319  55.973 -55.888  1.00  0.00    -0.307 N 
HETATM    7  C   UNL     1     -42.486  55.995 -56.629  1.00  0.00     0.257 C 
HETATM    8  O   UNL     1     -43.348  55.123 -56.639  1.00  0.00    -0.267 OA
HETATM    9  H   UNL     1     -40.560  56.618 -56.105  1.00  0.00     0.170 HD
BRANCH   7  10
HETATM   10  C   UNL     1     -42.687  57.189 -57.495  1.00  0.00     0.032 A 
HETATM   11  C   UNL     1     -43.057  58.431 -56.957  1.00  0.00     0.018 A 
HETATM   12  C   UNL     1     -43.403  59.484 -57.810  1.00  0.00     0.026 A 
HETATM   13  C   UNL     1     -43.370  59.295 -59.197  1.00  0.00     0.079 A 
HETATM   14  C   UNL     1     -42.978  58.069 -59.741  1.00  0.00     0.026 A 
HETATM   15  C   UNL     1     -42.639  57.017 -58.887  1.00  0.00     0.018 A 
BRANCH  13  16
HETATM   16  S   UNL     1     -44.001  60.575 -60.262  1.00  0.00     0.260 S 
HETATM   17  O   UNL     1     -44.846  59.955 -61.260  1.00  0.00    -0.200 OA
HETATM   18  O   UNL     1     -44.514  61.615 -59.396  1.00  0.00    -0.200 OA
BRANCH  16  19
HETATM   19  N   UNL     1     -42.603  61.169 -61.034  1.00  0.00    -0.307 N 
HETATM   20  C   UNL     1     -42.767  62.240 -62.049  1.00  0.00     0.135 C 
HETATM   21  C   UNL     1     -42.842  63.629 -61.421  1.00  0.00     0.021 C 
HETATM   22  C   UNL     1     -41.682  63.888 -60.465  1.00  0.00     0.003 C 
HETATM   23  C   UNL     1     -41.548  62.763 -59.445  1.00  0.00     0.021 C 
HETATM   24  C   UNL     1     -41.440  61.411 -60.140  1.00  0.00     0.135 C 
ENDBRANCH  16  19
ENDBRANCH  13  16
ENDBRANCH   7  10
ENDBRANCH   4   6
BRANCH   3  25
HETATM   25  C   UNL     1     -42.123  56.380 -53.003  1.00  0.00     0.732 A 
HETATM   26  N   UNL     1     -41.779  57.597 -53.294  1.00  0.00    -0.067 NA
HETATM   27  C   UNL     1     -42.456  58.591 -52.618  1.00  0.00     0.065 A 
HETATM   28  C   UNL     1     -43.429  58.367 -51.711  1.00  0.00     0.036 A 
HETATM   29  C   UNL     1     -42.022  60.000 -52.957  1.00  0.00     0.060 C 
HETATM   30  C   UNL     1     -44.136  59.441 -50.938  1.00  0.00     0.046 C 
HETATM   31  C   UNL     1     -43.814  56.963 -51.432  1.00  0.00     0.268 A 
HETATM   32  C   UNL     1     -43.433  60.796 -51.028  1.00  0.00     0.005 C 
HETATM   33  C   UNL     1     -42.983  61.082 -52.456  1.00  0.00     0.006 C 
HETATM   34  O   UNL     1     -44.702  56.669 -50.643  1.00  0.00    -0.267 OA
HETATM   35  N   UNL     1     -43.102  56.032 -52.117  1.00  0.00    -0.152 N 
HETATM   36  H   UNL     1     -43.302  55.048 -51.962  1.00  0.00     0.188 HD
ENDBRANCH   3  25
BRANCH   1  37
HETATM   37  C   UNL     1     -40.168  51.952 -53.137  1.00  0.00     0.105 A 
HETATM   38  O   UNL     1     -39.791  51.649 -51.858  1.00  0.00    -0.320 OA
HETATM   39  C   UNL     1     -39.423  50.343 -51.842  1.00  0.00     0.142 A 
HETATM   40  C   UNL     1     -39.554  49.790 -53.093  1.00  0.00     0.027 A 
HETATM   41  C   UNL     1     -40.035  50.828 -53.930  1.00  0.00     0.041 A 
ENDBRANCH   1  37
TORSDOF 6
ENDMDL
MODEL 6
REMARK VINA RESULT:      -8.7      3.007      7.077
REMARK  6 active torsions:
REMARK  status: ('A' for Active; 'I' for Inactive)
REMARK    1  A    between atoms: C_4  and  C_5 
REMARK    2  A    between atoms: N_7  and  C_8 
REMARK    3  A    between atoms: C_19  and  N_20 
REMARK       I    between atoms: N_20  and  C_21 
REMARK    4  A    between atoms: C_21  and  C_22 
REMARK    5  A    between atoms: C_25  and  S_26 
REMARK    6  A    between atoms: S_26  and  N_27 
ROOT
HETATM    1  C   UNL     1     -43.817  61.422 -50.593  1.00  0.00     0.115 A 
HETATM    2  N   UNL     1     -43.531  60.150 -50.290  1.00  0.00    -0.148 NA
HETATM    3  N   UNL     1     -43.410  59.540 -51.510  1.00  0.00    -0.044 N 
HETATM    4  C   UNL     1     -43.594  60.422 -52.565  1.00  0.00     0.152 A 
HETATM    5  C   UNL     1     -43.885  61.637 -51.983  1.00  0.00     0.087 A 
ENDROOT
BRANCH   4   6
HETATM    6  N   UNL     1     -43.466  60.047 -53.899  1.00  0.00    -0.307 N 
HETATM    7  C   UNL     1     -42.235  59.804 -54.479  1.00  0.00     0.257 C 
HETATM    8  O   UNL     1     -41.143  60.071 -53.989  1.00  0.00    -0.267 OA
HETATM    9  H   UNL     1     -44.316  60.004 -54.460  1.00  0.00     0.170 HD
BRANCH   7  10
HETATM   10  C   UNL     1     -42.263  59.169 -55.826  1.00  0.00     0.032 A 
HETATM   11  C   UNL     1     -42.381  59.936 -56.995  1.00  0.00     0.018 A 
HETATM   12  C   UNL     1     -42.576  59.302 -58.227  1.00  0.00     0.026 A 
HETATM   13  C   UNL     1     -42.645  57.905 -58.287  1.00  0.00     0.079 A 
HETATM   14  C   UNL     1     -42.504  57.134 -57.130  1.00  0.00     0.026 A 
HETATM   15  C   UNL     1     -42.315  57.769 -55.900  1.00  0.00     0.018 A 
BRANCH  13  16
HETATM   16  S   UNL     1     -43.090  57.124 -59.823  1.00  0.00     0.260 S 
HETATM   17  O   UNL     1     -43.530  58.153 -60.741  1.00  0.00    -0.200 OA
HETATM   18  O   UNL     1     -41.996  56.240 -60.168  1.00  0.00    -0.200 OA
BRANCH  16  19
HETATM   19  N   UNL     1     -44.435  56.167 -59.403  1.00  0.00    -0.307 N 
HETATM   20  C   UNL     1     -45.714  56.855 -59.096  1.00  0.00     0.135 C 
HETATM   21  C   UNL     1     -46.514  57.183 -60.354  1.00  0.00     0.021 C 
HETATM   22  C   UNL     1     -46.696  55.962 -61.251  1.00  0.00     0.003 C 
HETATM   23  C   UNL     1     -45.360  55.284 -61.536  1.00  0.00     0.021 C 
HETATM   24  C   UNL     1     -44.634  54.952 -60.238  1.00  0.00     0.135 C 
ENDBRANCH  16  19
ENDBRANCH  13  16
ENDBRANCH   7  10
ENDBRANCH   4   6
BRANCH   3  25
HETATM   25  C   UNL     1     -43.151  58.156 -51.562  1.00  0.00     0.732 A 
HETATM   26  N   UNL     1     -42.173  57.633 -52.237  1.00  0.00    -0.067 NA
HETATM   27  C   UNL     1     -42.092  56.257 -52.209  1.00  0.00     0.065 A 
HETATM   28  C   UNL     1     -42.941  55.459 -51.531  1.00  0.00     0.036 A 
HETATM   29  C   UNL     1     -40.959  55.670 -53.021  1.00  0.00     0.060 C 
HETATM   30  C   UNL     1     -42.888  53.958 -51.535  1.00  0.00     0.046 C 
HETATM   31  C   UNL     1     -44.025  56.098 -50.746  1.00  0.00     0.268 A 
HETATM   32  C   UNL     1     -41.984  53.402 -52.636  1.00  0.00     0.005 C 
HETATM   33  C   UNL     1     -40.685  54.193 -52.726  1.00  0.00     0.006 C 
HETATM   34  O   UNL     1     -44.825  55.452 -50.082  1.00  0.00    -0.267 OA
HETATM   35  N   UNL     1     -44.060  57.453 -50.825  1.00  0.00    -0.152 N 
HETATM   36  H   UNL     1     -44.788  57.956 -50.325  1.00  0.00     0.188 HD
ENDBRANCH   3  25
BRANCH   1  37
HETATM   37  C   UNL     1     -44.019  62.478 -49.558  1.00  0.00     0.105 A 
HETATM   38  O   UNL     1     -44.776  62.318 -48.430  1.00  0.00    -0.320 OA
HETATM   39  C   UNL     1     -44.732  63.487 -47.742  1.00  0.00     0.142 A 
HETATM   40  C   UNL     1     -43.957  64.407 -48.406  1.00  0.00     0.027 A 
HETATM   41  C   UNL     1     -43.496  63.757 -49.578  1.00  0.00     0.041 A 
ENDBRANCH   1  37
TORSDOF 6
ENDMDL
MODEL 7
REMARK VINA RESULT:      -8.5      1.878      2.255
REMARK  6 active torsions:
REMARK  status: ('A' for Active; 'I' for Inactive)
REMARK    1  A    between atoms: C_4  and  C_5 
REMARK    2  A    between atoms: N_7  and  C_8 
REMARK    3  A    between atoms: C_19  and  N_20 
REMARK       I    between atoms: N_20  and  C_21 
REMARK    4  A    between atoms: C_21  and  C_22 
REMARK    5  A    between atoms: C_25  and  S_26 
REMARK    6  A    between atoms: S_26  and  N_27 
ROOT
HETATM    1  C   UNL     1     -41.005  53.448 -53.996  1.00  0.00     0.115 A 
HETATM    2  N   UNL     1     -41.848  54.107 -53.192  1.00  0.00    -0.148 NA
HETATM    3  N   UNL     1     -42.182  55.224 -53.908  1.00  0.00    -0.044 N 
HETATM    4  C   UNL     1     -41.575  55.256 -55.156  1.00  0.00     0.152 A 
HETATM    5  C   UNL     1     -40.789  54.126 -55.211  1.00  0.00     0.087 A 
ENDROOT
BRANCH   4   6
HETATM    6  N   UNL     1     -41.805  56.265 -56.086  1.00  0.00    -0.307 N 
HETATM    7  C   UNL     1     -42.745  56.138 -57.091  1.00  0.00     0.257 C 
HETATM    8  O   UNL     1     -43.321  55.105 -57.411  1.00  0.00    -0.267 OA
HETATM    9  H   UNL     1     -41.216  57.096 -56.034  1.00  0.00     0.170 HD
BRANCH   7  10
HETATM   10  C   UNL     1     -43.061  57.381 -57.849  1.00  0.00     0.032 A 
HETATM   11  C   UNL     1     -42.178  57.901 -58.807  1.00  0.00     0.018 A 
HETATM   12  C   UNL     1     -42.425  59.155 -59.374  1.00  0.00     0.026 A 
HETATM   13  C   UNL     1     -43.556  59.883 -58.987  1.00  0.00     0.079 A 
HETATM   14  C   UNL     1     -44.454  59.361 -58.051  1.00  0.00     0.026 A 
HETATM   15  C   UNL     1     -44.202  58.111 -57.482  1.00  0.00     0.018 A 
BRANCH  13  16
HETATM   16  S   UNL     1     -43.752  61.555 -59.565  1.00  0.00     0.260 S 
HETATM   17  O   UNL     1     -43.429  61.585 -60.975  1.00  0.00    -0.200 OA
HETATM   18  O   UNL     1     -45.042  62.007 -59.089  1.00  0.00    -0.200 OA
BRANCH  16  19
HETATM   19  N   UNL     1     -42.544  62.408 -58.719  1.00  0.00    -0.307 N 
HETATM   20  C   UNL     1     -42.529  63.889 -58.826  1.00  0.00     0.135 C 
HETATM   21  C   UNL     1     -43.491  64.552 -57.843  1.00  0.00     0.021 C 
HETATM   22  C   UNL     1     -43.284  64.056 -56.415  1.00  0.00     0.003 C 
HETATM   23  C   UNL     1     -43.301  62.533 -56.354  1.00  0.00     0.021 C 
HETATM   24  C   UNL     1     -42.293  61.940 -57.330  1.00  0.00     0.135 C 
ENDBRANCH  16  19
ENDBRANCH  13  16
ENDBRANCH   7  10
ENDBRANCH   4   6
BRANCH   3  25
HETATM   25  C   UNL     1     -43.039  56.181 -53.328  1.00  0.00     0.732 A 
HETATM   26  N   UNL     1     -43.323  57.320 -53.880  1.00  0.00    -0.067 NA
HETATM   27  C   UNL     1     -44.148  58.152 -53.152  1.00  0.00     0.065 A 
HETATM   28  C   UNL     1     -44.662  57.846 -51.944  1.00  0.00     0.036 A 
HETATM   29  C   UNL     1     -44.445  59.483 -53.806  1.00  0.00     0.060 C 
HETATM   30  C   UNL     1     -45.521  58.765 -51.125  1.00  0.00     0.046 C 
HETATM   31  C   UNL     1     -44.339  56.520 -51.363  1.00  0.00     0.268 A 
HETATM   32  C   UNL     1     -45.496  60.207 -51.634  1.00  0.00     0.005 C 
HETATM   33  C   UNL     1     -45.599  60.250 -53.154  1.00  0.00     0.006 C 
HETATM   34  O   UNL     1     -44.782  56.150 -50.283  1.00  0.00    -0.267 OA
HETATM   35  N   UNL     1     -43.513  55.754 -52.120  1.00  0.00    -0.152 N 
HETATM   36  H   UNL     1     -43.237  54.839 -51.775  1.00  0.00     0.188 HD
ENDBRANCH   3  25
BRANCH   1  37
HETATM   37  C   UNL     1     -40.389  52.139 -53.630  1.00  0.00     0.105 A 
HETATM   38  O   UNL     1     -40.338  51.051 -54.458  1.00  0.00    -0.320 OA
HETATM   39  C   UNL     1     -39.717  50.054 -53.779  1.00  0.00     0.142 A 
HETATM   40  C   UNL     1     -39.363  50.475 -52.521  1.00  0.00     0.027 A 
HETATM   41  C   UNL     1     -39.795  51.821 -52.423  1.00  0.00     0.041 A 
ENDBRANCH   1  37
TORSDOF 6
ENDMDL
MODEL 8
REMARK VINA RESULT:      -8.3      3.534      6.868
REMARK  6 active torsions:
REMARK  status: ('A' for Active; 'I' for Inactive)
REMARK    1  A    between atoms: C_4  and  C_5 
REMARK    2  A    between atoms: N_7  and  C_8 
REMARK    3  A    between atoms: C_19  and  N_20 
REMARK       I    between atoms: N_20  and  C_21 
REMARK    4  A    between atoms: C_21  and  C_22 
REMARK    5  A    between atoms: C_25  and  S_26 
REMARK    6  A    between atoms: S_26  and  N_27 
ROOT
HETATM    1  C   UNL     1     -41.108  54.066 -53.625  1.00  0.00     0.115 A 
HETATM    2  N   UNL     1     -41.448  54.507 -54.842  1.00  0.00    -0.148 NA
HETATM    3  N   UNL     1     -41.972  55.750 -54.607  1.00  0.00    -0.044 N 
HETATM    4  C   UNL     1     -41.940  56.094 -53.262  1.00  0.00     0.152 A 
HETATM    5  C   UNL     1     -41.409  55.000 -52.615  1.00  0.00     0.087 A 
ENDROOT
BRANCH   4   6
HETATM    6  N   UNL     1     -42.367  57.329 -52.785  1.00  0.00    -0.307 N 
HETATM    7  C   UNL     1     -41.479  58.305 -52.371  1.00  0.00     0.257 C 
HETATM    8  O   UNL     1     -40.278  58.150 -52.182  1.00  0.00    -0.267 OA
HETATM    9  H   UNL     1     -43.372  57.480 -52.702  1.00  0.00     0.170 HD
BRANCH   7  10
HETATM   10  C   UNL     1     -42.060  59.654 -52.129  1.00  0.00     0.032 A 
HETATM   11  C   UNL     1     -42.230  60.157 -50.831  1.00  0.00     0.018 A 
HETATM   12  C   UNL     1     -42.932  61.351 -50.632  1.00  0.00     0.026 A 
HETATM   13  C   UNL     1     -43.455  62.041 -51.732  1.00  0.00     0.079 A 
HETATM   14  C   UNL     1     -43.269  61.559 -53.031  1.00  0.00     0.026 A 
HETATM   15  C   UNL     1     -42.572  60.364 -53.226  1.00  0.00     0.018 A 
BRANCH  13  16
HETATM   16  S   UNL     1     -44.512  63.446 -51.452  1.00  0.00     0.260 S 
HETATM   17  O   UNL     1     -43.898  64.276 -50.438  1.00  0.00    -0.200 OA
HETATM   18  O   UNL     1     -44.836  63.984 -52.756  1.00  0.00    -0.200 OA
BRANCH  16  19
HETATM   19  N   UNL     1     -45.923  62.752 -50.797  1.00  0.00    -0.307 N 
HETATM   20  C   UNL     1     -47.095  63.636 -50.568  1.00  0.00     0.135 C 
HETATM   21  C   UNL     1     -47.937  63.822 -51.827  1.00  0.00     0.021 C 
HETATM   22  C   UNL     1     -48.313  62.489 -52.467  1.00  0.00     0.003 C 
HETATM   23  C   UNL     1     -47.083  61.614 -52.678  1.00  0.00     0.021 C 
HETATM   24  C   UNL     1     -46.312  61.439 -51.376  1.00  0.00     0.135 C 
ENDBRANCH  16  19
ENDBRANCH  13  16
ENDBRANCH   7  10
ENDBRANCH   4   6
BRANCH   3  25
HETATM   25  C   UNL     1     -42.480  56.496 -55.688  1.00  0.00     0.732 A 
HETATM   26  N   UNL     1     -42.922  57.711 -55.579  1.00  0.00    -0.067 NA
HETATM   27  C   UNL     1     -43.422  58.275 -56.734  1.00  0.00     0.065 A 
HETATM   28  C   UNL     1     -43.462  57.652 -57.929  1.00  0.00     0.036 A 
HETATM   29  C   UNL     1     -43.952  59.683 -56.577  1.00  0.00     0.060 C 
HETATM   30  C   UNL     1     -44.048  58.242 -59.179  1.00  0.00     0.046 C 
HETATM   31  C   UNL     1     -42.917  56.276 -58.018  1.00  0.00     0.268 A 
HETATM   32  C   UNL     1     -44.891  59.489 -58.906  1.00  0.00     0.005 C 
HETATM   33  C   UNL     1     -44.199  60.405 -57.904  1.00  0.00     0.006 C 
HETATM   34  O   UNL     1     -42.892  55.645 -59.067  1.00  0.00    -0.267 OA
HETATM   35  N   UNL     1     -42.454  55.771 -56.846  1.00  0.00    -0.152 N 
HETATM   36  H   UNL     1     -42.081  54.827 -56.831  1.00  0.00     0.188 HD
ENDBRANCH   3  25
BRANCH   1  37
HETATM   37  C   UNL     1     -40.469  52.737 -53.392  1.00  0.00     0.105 A 
HETATM   38  O   UNL     1     -39.942  52.333 -52.196  1.00  0.00    -0.320 OA
HETATM   39  C   UNL     1     -39.446  51.082 -52.374  1.00  0.00     0.142 A 
HETATM   40  C   UNL     1     -39.642  50.665 -53.668  1.00  0.00     0.027 A 
HETATM   41  C   UNL     1     -40.303  51.732 -54.326  1.00  0.00     0.041 A 
ENDBRANCH   1  37
TORSDOF 6
ENDMDL
MODEL 9
REMARK VINA RESULT:      -8.3      3.510      7.277
REMARK  6 active torsions:
REMARK  status: ('A' for Active; 'I' for Inactive)
REMARK    1  A    between atoms: C_4  and  C_5 
REMARK    2  A    between atoms: N_7  and  C_8 
REMARK    3  A    between atoms: C_19  and  N_20 
REMARK       I    between atoms: N_20  and  C_21 
REMARK    4  A    between atoms: C_21  and  C_22 
REMARK    5  A    between atoms: C_25  and  S_26 
REMARK    6  A    between atoms: S_26  and  N_27 
ROOT
HETATM    1  C   UNL     1     -45.479  60.936 -50.257  1.00  0.00     0.115 A 
HETATM    2  N   UNL     1     -44.617  59.913 -50.212  1.00  0.00    -0.148 NA
HETATM    3  N   UNL     1     -44.675  59.379 -51.472  1.00  0.00    -0.044 N 
HETATM    4  C   UNL     1     -45.544  60.072 -52.303  1.00  0.00     0.152 A 
HETATM    5  C   UNL     1     -46.091  61.064 -51.519  1.00  0.00     0.087 A 
ENDROOT
BRANCH   4   6
HETATM    6  N   UNL     1     -45.728  59.750 -53.644  1.00  0.00    -0.307 N 
HETATM    7  C   UNL     1     -44.960  60.311 -54.647  1.00  0.00     0.257 C 
HETATM    8  O   UNL     1     -44.199  61.264 -54.523  1.00  0.00    -0.267 OA
HETATM    9  H   UNL     1     -46.492  59.116 -53.875  1.00  0.00     0.170 HD
BRANCH   7  10
HETATM   10  C   UNL     1     -45.093  59.691 -55.994  1.00  0.00     0.032 A 
HETATM   11  C   UNL     1     -45.063  60.465 -57.164  1.00  0.00     0.018 A 
HETATM   12  C   UNL     1     -45.361  59.876 -58.397  1.00  0.00     0.026 A 
HETATM   13  C   UNL     1     -45.682  58.514 -58.458  1.00  0.00     0.079 A 
HETATM   14  C   UNL     1     -45.689  57.731 -57.300  1.00  0.00     0.026 A 
HETATM   15  C   UNL     1     -45.397  58.323 -56.070  1.00  0.00     0.018 A 
BRANCH  13  16
HETATM   16  S   UNL     1     -46.250  57.824 -59.997  1.00  0.00     0.260 S 
HETATM   17  O   UNL     1     -47.121  56.708 -59.697  1.00  0.00    -0.200 OA
HETATM   18  O   UNL     1     -46.717  58.936 -60.799  1.00  0.00    -0.200 OA
BRANCH  16  19
HETATM   19  N   UNL     1     -44.826  57.218 -60.707  1.00  0.00    -0.307 N 
HETATM   20  C   UNL     1     -43.536  57.857 -60.342  1.00  0.00     0.135 C 
HETATM   21  C   UNL     1     -42.960  57.302 -59.042  1.00  0.00     0.021 C 
HETATM   22  C   UNL     1     -42.886  55.778 -59.053  1.00  0.00     0.003 C 
HETATM   23  C   UNL     1     -44.229  55.166 -59.437  1.00  0.00     0.021 C 
HETATM   24  C   UNL     1     -44.726  55.735 -60.761  1.00  0.00     0.135 C 
ENDBRANCH  16  19
ENDBRANCH  13  16
ENDBRANCH   7  10
ENDBRANCH   4   6
BRANCH   3  25
HETATM   25  C   UNL     1     -43.908  58.235 -51.767  1.00  0.00     0.732 A 
HETATM   26  N   UNL     1     -44.180  57.417 -52.737  1.00  0.00    -0.067 NA
HETATM   27  C   UNL     1     -43.346  56.325 -52.856  1.00  0.00     0.065 A 
HETATM   28  C   UNL     1     -42.294  56.081 -52.049  1.00  0.00     0.036 A 
HETATM   29  C   UNL     1     -43.698  55.375 -53.979  1.00  0.00     0.060 C 
HETATM   30  C   UNL     1     -41.410  54.871 -52.144  1.00  0.00     0.046 C 
HETATM   31  C   UNL     1     -41.997  57.058 -50.974  1.00  0.00     0.268 A 
HETATM   32  C   UNL     1     -42.004  53.773 -53.027  1.00  0.00     0.005 C 
HETATM   33  C   UNL     1     -42.597  54.362 -54.302  1.00  0.00     0.006 C 
HETATM   34  O   UNL     1     -41.047  56.928 -50.211  1.00  0.00    -0.267 OA
HETATM   35  N   UNL     1     -42.861  58.102 -50.899  1.00  0.00    -0.152 N 
HETATM   36  H   UNL     1     -42.727  58.800 -50.174  1.00  0.00     0.188 HD
ENDBRANCH   3  25
BRANCH   1  37
HETATM   37  C   UNL     1     -45.734  61.834 -49.093  1.00  0.00     0.105 A 
HETATM   38  O   UNL     1     -46.979  62.164 -48.630  1.00  0.00    -0.320 OA
HETATM   39  C   UNL     1     -46.811  63.001 -47.575  1.00  0.00     0.142 A 
HETATM   40  C   UNL     1     -45.475  63.222 -47.343  1.00  0.00     0.027 A 
HETATM   41  C   UNL     1     -44.779  62.469 -48.321  1.00  0.00     0.041 A 
ENDBRANCH   1  37
TORSDOF 6
ENDMDL
MODEL 10
REMARK VINA RESULT:      -8.1      3.664     10.511
REMARK  6 active torsions:
REMARK  status: ('A' for Active; 'I' for Inactive)
REMARK    1  A    between atoms: C_4  and  C_5 
REMARK    2  A    between atoms: N_7  and  C_8 
REMARK    3  A    between atoms: C_19  and  N_20 
REMARK       I    between atoms: N_20  and  C_21 
REMARK    4  A    between atoms: C_21  and  C_22 
REMARK    5  A    between atoms: C_25  and  S_26 
REMARK    6  A    between atoms: S_26  and  N_27 
ROOT
HETATM    1  C   UNL     1     -47.334  59.082 -61.108  1.00  0.00     0.115 A 
HETATM    2  N   UNL     1     -46.315  59.867 -61.475  1.00  0.00    -0.148 NA
HETATM    3  N   UNL     1     -45.326  59.565 -60.578  1.00  0.00    -0.044 N 
HETATM    4  C   UNL     1     -45.711  58.586 -59.673  1.00  0.00     0.152 A 
HETATM    5  C   UNL     1     -47.019  58.287 -59.989  1.00  0.00     0.087 A 
ENDROOT
BRANCH   4   6
HETATM    6  N   UNL     1     -44.859  58.074 -58.701  1.00  0.00    -0.307 N 
HETATM    7  C   UNL     1     -45.085  58.263 -57.350  1.00  0.00     0.257 C 
HETATM    8  O   UNL     1     -45.900  59.035 -56.859  1.00  0.00    -0.267 OA
HETATM    9  H   UNL     1     -44.020  57.589 -59.018  1.00  0.00     0.170 HD
BRANCH   7  10
HETATM   10  C   UNL     1     -44.243  57.452 -56.428  1.00  0.00     0.032 A 
HETATM   11  C   UNL     1     -44.327  57.602 -55.036  1.00  0.00     0.018 A 
HETATM   12  C   UNL     1     -43.405  56.952 -54.208  1.00  0.00     0.026 A 
HETATM   13  C   UNL     1     -42.408  56.149 -54.775  1.00  0.00     0.079 A 
HETATM   14  C   UNL     1     -42.333  55.975 -56.159  1.00  0.00     0.026 A 
HETATM   15  C   UNL     1     -43.251  56.630 -56.983  1.00  0.00     0.018 A 
BRANCH  13  16
HETATM   16  S   UNL     1     -41.126  55.490 -53.729  1.00  0.00     0.260 S 
HETATM   17  O   UNL     1     -39.935  55.316 -54.532  1.00  0.00    -0.200 OA
HETATM   18  O   UNL     1     -41.105  56.311 -52.537  1.00  0.00    -0.200 OA
BRANCH  16  19
HETATM   19  N   UNL     1     -41.718  53.950 -53.304  1.00  0.00    -0.307 N 
HETATM   20  C   UNL     1     -41.522  52.836 -54.266  1.00  0.00     0.135 C 
HETATM   21  C   UNL     1     -40.145  52.191 -54.136  1.00  0.00     0.021 C 
HETATM   22  C   UNL     1     -39.831  51.795 -52.697  1.00  0.00     0.003 C 
HETATM   23  C   UNL     1     -40.050  52.965 -51.744  1.00  0.00     0.021 C 
HETATM   24  C   UNL     1     -41.455  53.536 -51.900  1.00  0.00     0.135 C 
ENDBRANCH  16  19
ENDBRANCH  13  16
ENDBRANCH   7  10
ENDBRANCH   4   6
BRANCH   3  25
HETATM   25  C   UNL     1     -44.100  60.256 -60.649  1.00  0.00     0.732 A 
HETATM   26  N   UNL     1     -43.431  60.642 -59.607  1.00  0.00    -0.067 NA
HETATM   27  C   UNL     1     -42.271  61.342 -59.863  1.00  0.00     0.065 A 
HETATM   28  C   UNL     1     -41.810  61.626 -61.098  1.00  0.00     0.036 A 
HETATM   29  C   UNL     1     -41.521  61.802 -58.632  1.00  0.00     0.060 C 
HETATM   30  C   UNL     1     -40.574  62.428 -61.383  1.00  0.00     0.046 C 
HETATM   31  C   UNL     1     -42.588  61.138 -62.262  1.00  0.00     0.268 A 
HETATM   32  C   UNL     1     -40.057  63.176 -60.153  1.00  0.00     0.005 C 
HETATM   33  C   UNL     1     -40.096  62.283 -58.918  1.00  0.00     0.006 C 
HETATM   34  O   UNL     1     -42.231  61.329 -63.418  1.00  0.00    -0.267 OA
HETATM   35  N   UNL     1     -43.725  60.469 -61.946  1.00  0.00    -0.152 N 
HETATM   36  H   UNL     1     -44.316  60.121 -62.695  1.00  0.00     0.188 HD
ENDBRANCH   3  25
BRANCH   1  37
HETATM   37  C   UNL     1     -48.642  59.059 -61.826  1.00  0.00     0.105 A 
HETATM   38  O   UNL     1     -49.703  59.869 -61.525  1.00  0.00    -0.320 OA
HETATM   39  C   UNL     1     -50.709  59.553 -62.380  1.00  0.00     0.142 A 
HETATM   40  C   UNL     1     -50.320  58.550 -63.233  1.00  0.00     0.027 A 
HETATM   41  C   UNL     1     -48.986  58.230 -62.878  1.00  0.00     0.041 A 
ENDBRANCH   1  37
TORSDOF 6
ENDMDL
