MODEL 1
REMARK VINA RESULT:      -9.6      0.000      0.000
REMARK  7 active torsions:
REMARK  status: ('A' for Active; 'I' for Inactive)
REMARK    1  A    between atoms: C_2  and  C_3 
REMARK    2  A    between atoms: C_5  and  N_6 
REMARK    3  A    between atoms: C_8  and  C_9 
REMARK    4  A    between atoms: C_15  and  N_16 
REMARK       I    between atoms: N_16  and  C_17 
REMARK    5  A    between atoms: C_17  and  C_18 
REMARK    6  A    between atoms: C_18  and  O_19 
REMARK    7  A    between atoms: O_19  and  C_20 
ROOT
HETATM    1  N   UNL     1     -41.047  55.098 -53.071  1.00  0.00    -0.044 N 
HETATM    2  N   UNL     1     -40.581  54.008 -52.385  1.00  0.00    -0.148 NA
HETATM    3  C   UNL     1     -40.472  53.056 -53.318  1.00  0.00     0.115 C 
HETATM    4  C   UNL     1     -40.787  53.531 -54.610  1.00  0.00     0.087 C 
HETATM    5  C   UNL     1     -41.037  54.873 -54.445  1.00  0.00     0.152 C 
ENDROOT
BRANCH   5   6
HETATM    6  N   UNL     1     -41.259  55.746 -55.500  1.00  0.00    -0.309 N 
HETATM    7  C   UNL     1     -42.598  56.113 -55.882  1.00  0.00     0.247 C 
HETATM    8  O   UNL     1     -43.526  55.884 -55.120  1.00  0.00    -0.271 OA
HETATM    9  H   UNL     1     -40.486  56.232 -55.944  1.00  0.00     0.170 HD
BRANCH   7  10
HETATM   10  C   UNL     1     -42.724  56.771 -57.239  1.00  0.00     0.278 C 
BRANCH  10  11
HETATM   11  O   UNL     1     -42.783  55.775 -58.258  1.00  0.00    -0.342 OA
BRANCH  11  12
HETATM   12  C   UNL     1     -43.894  55.842 -59.061  1.00  0.00     0.070 A 
HETATM   13  C   UNL     1     -44.515  57.091 -59.127  1.00  0.00     0.049 A 
HETATM   14  C   UNL     1     -45.670  57.289 -59.906  1.00  0.00    -0.023 A 
HETATM   15  C   UNL     1     -46.196  56.208 -60.647  1.00  0.00    -0.026 A 
HETATM   16  C   UNL     1     -46.318  58.534 -59.962  1.00  0.00     0.012 A 
HETATM   17  C   UNL     1     -45.553  54.964 -60.592  1.00  0.00     0.015 A 
HETATM   18  C   UNL     1     -47.350  56.397 -61.424  1.00  0.00     0.012 A 
HETATM   19  C   UNL     1     -44.410  54.781 -59.807  1.00  0.00     0.037 A 
HETATM   20  C   UNL     1     -47.981  57.641 -61.467  1.00  0.00     0.001 A 
HETATM   21  C   UNL     1     -47.466  58.708 -60.737  1.00  0.00     0.001 A 
ENDBRANCH  11  12
ENDBRANCH  10  11
ENDBRANCH   7  10
ENDBRANCH   5   6
BRANCH   1  22
HETATM   22  C   UNL     1     -41.601  56.171 -52.342  1.00  0.00     0.732 A 
HETATM   23  N   UNL     1     -41.032  57.328 -52.205  1.00  0.00    -0.067 NA
HETATM   24  C   UNL     1     -41.737  58.272 -51.480  1.00  0.00     0.062 A 
HETATM   25  C   UNL     1     -42.961  58.054 -50.972  1.00  0.00     0.103 A 
HETATM   26  C   UNL     1     -43.596  56.743 -51.173  1.00  0.00     0.261 A 
HETATM   27  N   UNL     1     -42.838  55.846 -51.852  1.00  0.00    -0.152 N 
HETATM   28  O   UNL     1     -44.722  56.504 -50.760  1.00  0.00    -0.268 OA
HETATM   29  H   UNL     1     -43.231  54.929 -52.044  1.00  0.00     0.187 HD
BRANCH  24  30
HETATM   30  C   UNL     1     -41.059  59.620 -51.268  1.00  0.00     0.030 C 
HETATM   31  C   UNL     1     -39.727  59.482 -50.527  1.00  0.00     0.016 C 
HETATM   32  C   UNL     1     -41.992  60.591 -50.544  1.00  0.00     0.016 C 
ENDBRANCH  24  30
ENDBRANCH   1  22
BRANCH   3  33
HETATM   33  C   UNL     1     -40.047  51.663 -53.000  1.00  0.00     0.105 A 
HETATM   34  O   UNL     1     -39.765  51.212 -51.739  1.00  0.00    -0.320 OA
HETATM   35  C   UNL     1     -39.419  49.903 -51.847  1.00  0.00     0.142 A 
HETATM   36  C   UNL     1     -39.471  49.497 -53.160  1.00  0.00     0.027 A 
HETATM   37  C   UNL     1     -39.875  50.631 -53.905  1.00  0.00     0.041 A 
ENDBRANCH   3  33
TORSDOF 7
ENDMDL
MODEL 2
REMARK VINA RESULT:      -9.4      2.601      8.520
REMARK  7 active torsions:
REMARK  status: ('A' for Active; 'I' for Inactive)
REMARK    1  A    between atoms: C_2  and  C_3 
REMARK    2  A    between atoms: C_5  and  N_6 
REMARK    3  A    between atoms: C_8  and  C_9 
REMARK    4  A    between atoms: C_15  and  N_16 
REMARK       I    between atoms: N_16  and  C_17 
REMARK    5  A    between atoms: C_17  and  C_18 
REMARK    6  A    between atoms: C_18  and  O_19 
REMARK    7  A    between atoms: O_19  and  C_20 
ROOT
HETATM    1  N   UNL     1     -44.767  57.935 -56.153  1.00  0.00    -0.044 N 
HETATM    2  N   UNL     1     -45.879  58.010 -56.951  1.00  0.00    -0.148 NA
HETATM    3  C   UNL     1     -45.420  57.736 -58.177  1.00  0.00     0.115 C 
HETATM    4  C   UNL     1     -44.046  57.410 -58.178  1.00  0.00     0.087 C 
HETATM    5  C   UNL     1     -43.676  57.428 -56.854  1.00  0.00     0.152 C 
ENDROOT
BRANCH   5   6
HETATM    6  N   UNL     1     -42.425  57.032 -56.404  1.00  0.00    -0.309 N 
HETATM    7  C   UNL     1     -42.267  55.821 -55.642  1.00  0.00     0.247 C 
HETATM    8  O   UNL     1     -43.171  54.998 -55.621  1.00  0.00    -0.271 OA
HETATM    9  H   UNL     1     -41.587  57.521 -56.701  1.00  0.00     0.170 HD
BRANCH   7  10
HETATM   10  C   UNL     1     -40.945  55.682 -54.917  1.00  0.00     0.278 C 
BRANCH  10  11
HETATM   11  O   UNL     1     -41.171  55.563 -53.514  1.00  0.00    -0.342 OA
BRANCH  11  12
HETATM   12  C   UNL     1     -40.784  54.363 -52.971  1.00  0.00     0.070 A 
HETATM   13  C   UNL     1     -40.594  53.323 -53.884  1.00  0.00     0.049 A 
HETATM   14  C   UNL     1     -40.208  52.040 -53.453  1.00  0.00    -0.023 A 
HETATM   15  C   UNL     1     -39.992  51.810 -52.077  1.00  0.00    -0.026 A 
HETATM   16  C   UNL     1     -40.036  50.980 -54.358  1.00  0.00     0.012 A 
HETATM   17  C   UNL     1     -40.164  52.865 -51.171  1.00  0.00     0.015 A 
HETATM   18  C   UNL     1     -39.610  50.531 -51.640  1.00  0.00     0.012 A 
HETATM   19  C   UNL     1     -40.556  54.134 -51.613  1.00  0.00     0.037 A 
HETATM   20  C   UNL     1     -39.445  49.489 -52.553  1.00  0.00     0.001 A 
HETATM   21  C   UNL     1     -39.658  49.712 -53.910  1.00  0.00     0.001 A 
ENDBRANCH  11  12
ENDBRANCH  10  11
ENDBRANCH   7  10
ENDBRANCH   5   6
BRANCH   1  22
HETATM   22  C   UNL     1     -44.820  58.503 -54.863  1.00  0.00     0.732 A 
HETATM   23  N   UNL     1     -44.216  58.010 -53.826  1.00  0.00    -0.067 NA
HETATM   24  C   UNL     1     -44.355  58.718 -52.646  1.00  0.00     0.062 A 
HETATM   25  C   UNL     1     -45.029  59.876 -52.552  1.00  0.00     0.103 A 
HETATM   26  C   UNL     1     -45.675  60.428 -53.752  1.00  0.00     0.261 A 
HETATM   27  N   UNL     1     -45.542  59.666 -54.867  1.00  0.00    -0.152 N 
HETATM   28  O   UNL     1     -46.272  61.494 -53.728  1.00  0.00    -0.268 OA
HETATM   29  H   UNL     1     -45.946  60.006 -55.735  1.00  0.00     0.187 HD
BRANCH  24  30
HETATM   30  C   UNL     1     -43.692  58.126 -51.410  1.00  0.00     0.030 C 
HETATM   31  C   UNL     1     -42.222  58.538 -51.294  1.00  0.00     0.016 C 
HETATM   32  C   UNL     1     -43.838  56.604 -51.390  1.00  0.00     0.016 C 
ENDBRANCH  24  30
ENDBRANCH   1  22
BRANCH   3  33
HETATM   33  C   UNL     1     -46.293  57.763 -59.386  1.00  0.00     0.105 A 
HETATM   34  O   UNL     1     -46.675  58.906 -60.035  1.00  0.00    -0.320 OA
HETATM   35  C   UNL     1     -47.458  58.532 -61.081  1.00  0.00     0.142 A 
HETATM   36  C   UNL     1     -47.590  57.164 -61.119  1.00  0.00     0.027 A 
HETATM   37  C   UNL     1     -46.840  56.667 -60.027  1.00  0.00     0.041 A 
ENDBRANCH   3  33
TORSDOF 7
ENDMDL
MODEL 3
REMARK VINA RESULT:      -9.4      2.809      3.581
REMARK  7 active torsions:
REMARK  status: ('A' for Active; 'I' for Inactive)
REMARK    1  A    between atoms: C_2  and  C_3 
REMARK    2  A    between atoms: C_5  and  N_6 
REMARK    3  A    between atoms: C_8  and  C_9 
REMARK    4  A    between atoms: C_15  and  N_16 
REMARK       I    between atoms: N_16  and  C_17 
REMARK    5  A    between atoms: C_17  and  C_18 
REMARK    6  A    between atoms: C_18  and  O_19 
REMARK    7  A    between atoms: O_19  and  C_20 
ROOT
HETATM    1  N   UNL     1     -41.078  55.160 -53.254  1.00  0.00    -0.044 N 
HETATM    2  N   UNL     1     -40.593  54.043 -52.625  1.00  0.00    -0.148 NA
HETATM    3  C   UNL     1     -40.503  53.132 -53.601  1.00  0.00     0.115 C 
HETATM    4  C   UNL     1     -40.848  53.660 -54.864  1.00  0.00     0.087 C 
HETATM    5  C   UNL     1     -41.098  54.993 -54.637  1.00  0.00     0.152 C 
ENDROOT
BRANCH   5   6
HETATM    6  N   UNL     1     -41.346  55.909 -55.648  1.00  0.00    -0.309 N 
HETATM    7  C   UNL     1     -42.694  56.298 -55.975  1.00  0.00     0.247 C 
HETATM    8  O   UNL     1     -43.601  56.043 -55.195  1.00  0.00    -0.271 OA
HETATM    9  H   UNL     1     -40.584  56.408 -56.095  1.00  0.00     0.170 HD
BRANCH   7  10
HETATM   10  C   UNL     1     -42.857  57.011 -57.299  1.00  0.00     0.278 C 
BRANCH  10  11
HETATM   11  O   UNL     1     -42.927  58.419 -57.088  1.00  0.00    -0.342 OA
BRANCH  11  12
HETATM   12  C   UNL     1     -42.559  59.180 -58.169  1.00  0.00     0.070 A 
HETATM   13  C   UNL     1     -41.701  60.246 -57.890  1.00  0.00     0.049 A 
HETATM   14  C   UNL     1     -41.259  61.109 -58.909  1.00  0.00    -0.023 A 
HETATM   15  C   UNL     1     -41.678  60.879 -60.238  1.00  0.00    -0.026 A 
HETATM   16  C   UNL     1     -40.415  62.199 -58.639  1.00  0.00     0.012 A 
HETATM   17  C   UNL     1     -42.522  59.794 -60.511  1.00  0.00     0.015 A 
HETATM   18  C   UNL     1     -41.243  61.739 -61.259  1.00  0.00     0.012 A 
HETATM   19  C   UNL     1     -42.959  58.949 -59.486  1.00  0.00     0.037 A 
HETATM   20  C   UNL     1     -40.406  62.817 -60.973  1.00  0.00     0.001 A 
HETATM   21  C   UNL     1     -39.992  63.047 -59.664  1.00  0.00     0.001 A 
ENDBRANCH  11  12
ENDBRANCH  10  11
ENDBRANCH   7  10
ENDBRANCH   5   6
BRANCH   1  22
HETATM   22  C   UNL     1     -41.618  56.199 -52.468  1.00  0.00     0.732 A 
HETATM   23  N   UNL     1     -41.056  57.357 -52.307  1.00  0.00    -0.067 NA
HETATM   24  C   UNL     1     -41.745  58.266 -51.525  1.00  0.00     0.062 A 
HETATM   25  C   UNL     1     -42.950  58.015 -50.985  1.00  0.00     0.103 A 
HETATM   26  C   UNL     1     -43.577  56.705 -51.213  1.00  0.00     0.261 A 
HETATM   27  N   UNL     1     -42.834  55.842 -51.950  1.00  0.00    -0.152 N 
HETATM   28  O   UNL     1     -44.686  56.438 -50.772  1.00  0.00    -0.268 OA
HETATM   29  H   UNL     1     -43.224  54.928 -52.162  1.00  0.00     0.187 HD
BRANCH  24  30
HETATM   30  C   UNL     1     -41.075  59.612 -51.287  1.00  0.00     0.030 C 
HETATM   31  C   UNL     1     -39.661  59.457 -50.722  1.00  0.00     0.016 C 
HETATM   32  C   UNL     1     -41.933  60.496 -50.381  1.00  0.00     0.016 C 
ENDBRANCH  24  30
ENDBRANCH   1  22
BRANCH   3  33
HETATM   33  C   UNL     1     -40.067  51.728 -53.351  1.00  0.00     0.105 A 
HETATM   34  O   UNL     1     -39.735  51.231 -52.120  1.00  0.00    -0.320 OA
HETATM   35  C   UNL     1     -39.395  49.927 -52.291  1.00  0.00     0.142 A 
HETATM   36  C   UNL     1     -39.501  49.570 -53.614  1.00  0.00     0.027 A 
HETATM   37  C   UNL     1     -39.934  50.731 -54.300  1.00  0.00     0.041 A 
ENDBRANCH   3  33
TORSDOF 7
ENDMDL
MODEL 4
REMARK VINA RESULT:      -9.3      2.337      3.818
REMARK  7 active torsions:
REMARK  status: ('A' for Active; 'I' for Inactive)
REMARK    1  A    between atoms: C_2  and  C_3 
REMARK    2  A    between atoms: C_5  and  N_6 
REMARK    3  A    between atoms: C_8  and  C_9 
REMARK    4  A    between atoms: C_15  and  N_16 
REMARK       I    between atoms: N_16  and  C_17 
REMARK    5  A    between atoms: C_17  and  C_18 
REMARK    6  A    between atoms: C_18  and  O_19 
REMARK    7  A    between atoms: O_19  and  C_20 
ROOT
HETATM    1  N   UNL     1     -41.070  54.947 -53.094  1.00  0.00    -0.044 N 
HETATM    2  N   UNL     1     -40.569  53.950 -52.299  1.00  0.00    -0.148 NA
HETATM    3  C   UNL     1     -40.460  52.900 -53.120  1.00  0.00     0.115 C 
HETATM    4  C   UNL     1     -40.809  53.219 -54.451  1.00  0.00     0.087 C 
HETATM    5  C   UNL     1     -41.082  54.566 -54.434  1.00  0.00     0.152 C 
ENDROOT
BRANCH   5   6
HETATM    6  N   UNL     1     -41.341  55.309 -55.576  1.00  0.00    -0.309 N 
HETATM    7  C   UNL     1     -42.675  55.394 -56.112  1.00  0.00     0.247 C 
HETATM    8  O   UNL     1     -43.625  55.048 -55.423  1.00  0.00    -0.271 OA
HETATM    9  H   UNL     1     -40.625  55.900 -55.986  1.00  0.00     0.170 HD
BRANCH   7  10
HETATM   10  C   UNL     1     -42.771  55.923 -57.526  1.00  0.00     0.278 C 
BRANCH  10  11
HETATM   11  O   UNL     1     -42.381  57.294 -57.558  1.00  0.00    -0.342 OA
BRANCH  11  12
HETATM   12  C   UNL     1     -43.140  58.125 -56.773  1.00  0.00     0.070 A 
HETATM   13  C   UNL     1     -42.426  58.942 -55.894  1.00  0.00     0.049 A 
HETATM   14  C   UNL     1     -43.088  59.830 -55.027  1.00  0.00    -0.023 A 
HETATM   15  C   UNL     1     -44.497  59.907 -55.062  1.00  0.00    -0.026 A 
HETATM   16  C   UNL     1     -42.383  60.640 -54.122  1.00  0.00     0.012 A 
HETATM   17  C   UNL     1     -45.204  59.100 -55.963  1.00  0.00     0.015 A 
HETATM   18  C   UNL     1     -45.164  60.789 -54.197  1.00  0.00     0.012 A 
HETATM   19  C   UNL     1     -44.533  58.216 -56.814  1.00  0.00     0.037 A 
HETATM   20  C   UNL     1     -44.448  61.586 -53.303  1.00  0.00     0.001 A 
HETATM   21  C   UNL     1     -43.059  61.511 -53.265  1.00  0.00     0.001 A 
ENDBRANCH  11  12
ENDBRANCH  10  11
ENDBRANCH   7  10
ENDBRANCH   5   6
BRANCH   1  22
HETATM   22  C   UNL     1     -41.631  56.086 -52.480  1.00  0.00     0.732 A 
HETATM   23  N   UNL     1     -40.956  56.934 -51.768  1.00  0.00    -0.067 NA
HETATM   24  C   UNL     1     -41.667  58.011 -51.267  1.00  0.00     0.062 A 
HETATM   25  C   UNL     1     -42.969  58.222 -51.521  1.00  0.00     0.103 A 
HETATM   26  C   UNL     1     -43.699  57.260 -52.361  1.00  0.00     0.261 A 
HETATM   27  N   UNL     1     -42.961  56.204 -52.784  1.00  0.00    -0.152 N 
HETATM   28  O   UNL     1     -44.876  57.423 -52.649  1.00  0.00    -0.268 OA
HETATM   29  H   UNL     1     -43.403  55.517 -53.388  1.00  0.00     0.187 HD
BRANCH  24  30
HETATM   30  C   UNL     1     -40.899  58.989 -50.388  1.00  0.00     0.030 C 
HETATM   31  C   UNL     1     -41.649  60.312 -50.213  1.00  0.00     0.016 C 
HETATM   32  C   UNL     1     -39.491  59.225 -50.937  1.00  0.00     0.016 C 
ENDBRANCH  24  30
ENDBRANCH   1  22
BRANCH   3  33
HETATM   33  C   UNL     1     -40.001  51.559 -52.655  1.00  0.00     0.105 A 
HETATM   34  O   UNL     1     -39.721  51.250 -51.352  1.00  0.00    -0.320 OA
HETATM   35  C   UNL     1     -39.339  49.947 -51.320  1.00  0.00     0.142 A 
HETATM   36  C   UNL     1     -39.366  49.406 -52.583  1.00  0.00     0.027 A 
HETATM   37  C   UNL     1     -39.793  50.444 -53.446  1.00  0.00     0.041 A 
ENDBRANCH   3  33
TORSDOF 7
ENDMDL
MODEL 5
REMARK VINA RESULT:      -9.2      2.799      8.405
REMARK  7 active torsions:
REMARK  status: ('A' for Active; 'I' for Inactive)
REMARK    1  A    between atoms: C_2  and  C_3 
REMARK    2  A    between atoms: C_5  and  N_6 
REMARK    3  A    between atoms: C_8  and  C_9 
REMARK    4  A    between atoms: C_15  and  N_16 
REMARK       I    between atoms: N_16  and  C_17 
REMARK    5  A    between atoms: C_17  and  C_18 
REMARK    6  A    between atoms: C_18  and  O_19 
REMARK    7  A    between atoms: O_19  and  C_20 
ROOT
HETATM    1  N   UNL     1     -44.162  57.729 -56.495  1.00  0.00    -0.044 N 
HETATM    2  N   UNL     1     -45.329  57.902 -57.194  1.00  0.00    -0.148 NA
HETATM    3  C   UNL     1     -45.086  57.331 -58.379  1.00  0.00     0.115 C 
HETATM    4  C   UNL     1     -43.812  56.725 -58.434  1.00  0.00     0.087 C 
HETATM    5  C   UNL     1     -43.285  56.889 -57.175  1.00  0.00     0.152 C 
ENDROOT
BRANCH   5   6
HETATM    6  N   UNL     1     -42.088  56.320 -56.766  1.00  0.00    -0.309 N 
HETATM    7  C   UNL     1     -42.077  55.098 -56.004  1.00  0.00     0.247 C 
HETATM    8  O   UNL     1     -43.088  54.413 -55.948  1.00  0.00    -0.271 OA
HETATM    9  H   UNL     1     -41.200  56.685 -57.094  1.00  0.00     0.170 HD
BRANCH   7  10
HETATM   10  C   UNL     1     -40.765  54.773 -55.324  1.00  0.00     0.278 C 
BRANCH  10  11
HETATM   11  O   UNL     1     -40.793  53.436 -54.828  1.00  0.00    -0.342 OA
BRANCH  11  12
HETATM   12  C   UNL     1     -40.622  53.324 -53.471  1.00  0.00     0.070 A 
HETATM   13  C   UNL     1     -41.099  54.397 -52.714  1.00  0.00     0.049 A 
HETATM   14  C   UNL     1     -40.974  54.409 -51.313  1.00  0.00    -0.023 A 
HETATM   15  C   UNL     1     -40.373  53.309 -50.664  1.00  0.00    -0.026 A 
HETATM   16  C   UNL     1     -41.428  55.492 -50.542  1.00  0.00     0.012 A 
HETATM   17  C   UNL     1     -39.918  52.228 -51.430  1.00  0.00     0.015 A 
HETATM   18  C   UNL     1     -40.242  53.317 -49.265  1.00  0.00     0.012 A 
HETATM   19  C   UNL     1     -40.042  52.232 -52.823  1.00  0.00     0.037 A 
HETATM   20  C   UNL     1     -40.697  54.401 -48.515  1.00  0.00     0.001 A 
HETATM   21  C   UNL     1     -41.289  55.488 -49.152  1.00  0.00     0.001 A 
ENDBRANCH  11  12
ENDBRANCH  10  11
ENDBRANCH   7  10
ENDBRANCH   5   6
BRANCH   1  22
HETATM   22  C   UNL     1     -43.945  58.507 -55.338  1.00  0.00     0.732 A 
HETATM   23  N   UNL     1     -42.844  58.498 -54.652  1.00  0.00    -0.067 NA
HETATM   24  C   UNL     1     -42.798  59.350 -53.563  1.00  0.00     0.062 A 
HETATM   25  C   UNL     1     -43.797  60.185 -53.232  1.00  0.00     0.103 A 
HETATM   26  C   UNL     1     -45.019  60.197 -54.050  1.00  0.00     0.261 A 
HETATM   27  N   UNL     1     -45.023  59.310 -55.076  1.00  0.00    -0.152 N 
HETATM   28  O   UNL     1     -45.944  60.961 -53.812  1.00  0.00    -0.268 OA
HETATM   29  H   UNL     1     -45.831  59.287 -55.692  1.00  0.00     0.187 HD
BRANCH  24  30
HETATM   30  C   UNL     1     -41.531  59.315 -52.718  1.00  0.00     0.030 C 
HETATM   31  C   UNL     1     -40.512  58.308 -53.256  1.00  0.00     0.016 C 
HETATM   32  C   UNL     1     -41.861  59.031 -51.252  1.00  0.00     0.016 C 
ENDBRANCH  24  30
ENDBRANCH   1  22
BRANCH   3  33
HETATM   33  C   UNL     1     -46.080  57.336 -59.491  1.00  0.00     0.105 A 
HETATM   34  O   UNL     1     -46.675  58.463 -59.988  1.00  0.00    -0.320 OA
HETATM   35  C   UNL     1     -47.509  58.072 -60.986  1.00  0.00     0.142 A 
HETATM   36  C   UNL     1     -47.466  56.707 -61.143  1.00  0.00     0.027 A 
HETATM   37  C   UNL     1     -46.544  56.230 -60.179  1.00  0.00     0.041 A 
ENDBRANCH   3  33
TORSDOF 7
ENDMDL
MODEL 6
REMARK VINA RESULT:      -9.1      3.377      9.393
REMARK  7 active torsions:
REMARK  status: ('A' for Active; 'I' for Inactive)
REMARK    1  A    between atoms: C_2  and  C_3 
REMARK    2  A    between atoms: C_5  and  N_6 
REMARK    3  A    between atoms: C_8  and  C_9 
REMARK    4  A    between atoms: C_15  and  N_16 
REMARK       I    between atoms: N_16  and  C_17 
REMARK    5  A    between atoms: C_17  and  C_18 
REMARK    6  A    between atoms: C_18  and  O_19 
REMARK    7  A    between atoms: O_19  and  C_20 
ROOT
HETATM    1  N   UNL     1     -43.581  59.408 -52.765  1.00  0.00    -0.044 N 
HETATM    2  N   UNL     1     -44.102  60.676 -52.766  1.00  0.00    -0.148 NA
HETATM    3  C   UNL     1     -44.812  60.738 -51.634  1.00  0.00     0.115 C 
HETATM    4  C   UNL     1     -44.699  59.561 -50.862  1.00  0.00     0.087 C 
HETATM    5  C   UNL     1     -43.809  58.769 -51.550  1.00  0.00     0.152 C 
ENDROOT
BRANCH   5   6
HETATM    6  N   UNL     1     -43.319  57.567 -51.061  1.00  0.00    -0.309 N 
HETATM    7  C   UNL     1     -41.924  57.419 -50.737  1.00  0.00     0.247 C 
HETATM    8  O   UNL     1     -41.222  58.414 -50.625  1.00  0.00    -0.271 OA
HETATM    9  H   UNL     1     -43.949  56.811 -50.813  1.00  0.00     0.170 HD
BRANCH   7  10
HETATM   10  C   UNL     1     -41.450  55.993 -50.558  1.00  0.00     0.278 C 
BRANCH  10  11
HETATM   11  O   UNL     1     -41.033  55.459 -51.813  1.00  0.00    -0.342 OA
BRANCH  11  12
HETATM   12  C   UNL     1     -40.659  54.139 -51.778  1.00  0.00     0.070 A 
HETATM   13  C   UNL     1     -40.584  53.503 -53.019  1.00  0.00     0.049 A 
HETATM   14  C   UNL     1     -40.223  52.146 -53.120  1.00  0.00    -0.023 A 
HETATM   15  C   UNL     1     -39.916  51.425 -51.945  1.00  0.00    -0.026 A 
HETATM   16  C   UNL     1     -40.166  51.488 -54.359  1.00  0.00     0.012 A 
HETATM   17  C   UNL     1     -39.973  52.078 -50.707  1.00  0.00     0.015 A 
HETATM   18  C   UNL     1     -39.559  50.070 -52.038  1.00  0.00     0.012 A 
HETATM   19  C   UNL     1     -40.340  53.425 -50.622  1.00  0.00     0.037 A 
HETATM   20  C   UNL     1     -39.509  49.432 -53.278  1.00  0.00     0.001 A 
HETATM   21  C   UNL     1     -39.812  50.140 -54.437  1.00  0.00     0.001 A 
ENDBRANCH  11  12
ENDBRANCH  10  11
ENDBRANCH   7  10
ENDBRANCH   5   6
BRANCH   1  22
HETATM   22  C   UNL     1     -43.067  58.887 -53.971  1.00  0.00     0.732 A 
HETATM   23  N   UNL     1     -43.089  57.629 -54.287  1.00  0.00    -0.067 NA
HETATM   24  C   UNL     1     -42.566  57.303 -55.526  1.00  0.00     0.062 A 
HETATM   25  C   UNL     1     -42.098  58.213 -56.396  1.00  0.00     0.103 A 
HETATM   26  C   UNL     1     -42.118  59.636 -56.023  1.00  0.00     0.261 A 
HETATM   27  N   UNL     1     -42.599  59.888 -54.780  1.00  0.00    -0.152 N 
HETATM   28  O   UNL     1     -41.734  60.507 -56.790  1.00  0.00    -0.268 OA
HETATM   29  H   UNL     1     -42.661  60.855 -54.473  1.00  0.00     0.187 HD
BRANCH  24  30
HETATM   30  C   UNL     1     -42.540  55.825 -55.891  1.00  0.00     0.030 C 
HETATM   31  C   UNL     1     -43.014  55.580 -57.325  1.00  0.00     0.016 C 
HETATM   32  C   UNL     1     -43.360  55.003 -54.895  1.00  0.00     0.016 C 
ENDBRANCH  24  30
ENDBRANCH   1  22
BRANCH   3  33
HETATM   33  C   UNL     1     -45.610  61.938 -51.251  1.00  0.00     0.105 A 
HETATM   34  O   UNL     1     -45.123  62.985 -50.517  1.00  0.00    -0.320 OA
HETATM   35  C   UNL     1     -46.134  63.881 -50.374  1.00  0.00     0.142 A 
HETATM   36  C   UNL     1     -47.270  63.431 -51.002  1.00  0.00     0.027 A 
HETATM   37  C   UNL     1     -46.934  62.177 -51.568  1.00  0.00     0.041 A 
ENDBRANCH   3  33
TORSDOF 7
ENDMDL
MODEL 7
REMARK VINA RESULT:      -8.9      2.993      9.428
REMARK  7 active torsions:
REMARK  status: ('A' for Active; 'I' for Inactive)
REMARK    1  A    between atoms: C_2  and  C_3 
REMARK    2  A    between atoms: C_5  and  N_6 
REMARK    3  A    between atoms: C_8  and  C_9 
REMARK    4  A    between atoms: C_15  and  N_16 
REMARK       I    between atoms: N_16  and  C_17 
REMARK    5  A    between atoms: C_17  and  C_18 
REMARK    6  A    between atoms: C_18  and  O_19 
REMARK    7  A    between atoms: O_19  and  C_20 
ROOT
HETATM    1  N   UNL     1     -42.458  60.352 -53.912  1.00  0.00    -0.044 N 
HETATM    2  N   UNL     1     -42.814  61.636 -53.592  1.00  0.00    -0.148 NA
HETATM    3  C   UNL     1     -43.165  61.566 -52.303  1.00  0.00     0.115 C 
HETATM    4  C   UNL     1     -42.971  60.276 -51.762  1.00  0.00     0.087 C 
HETATM    5  C   UNL     1     -42.405  59.545 -52.779  1.00  0.00     0.152 C 
ENDROOT
BRANCH   5   6
HETATM    6  N   UNL     1     -41.934  58.250 -52.620  1.00  0.00    -0.309 N 
HETATM    7  C   UNL     1     -42.844  57.134 -52.593  1.00  0.00     0.247 C 
HETATM    8  O   UNL     1     -43.994  57.284 -52.982  1.00  0.00    -0.271 OA
HETATM    9  H   UNL     1     -40.939  58.053 -52.638  1.00  0.00     0.170 HD
BRANCH   7  10
HETATM   10  C   UNL     1     -42.263  55.839 -52.068  1.00  0.00     0.278 C 
BRANCH  10  11
HETATM   11  O   UNL     1     -40.957  55.640 -52.605  1.00  0.00    -0.342 OA
BRANCH  11  12
HETATM   12  C   UNL     1     -40.672  54.343 -52.952  1.00  0.00     0.070 A 
HETATM   13  C   UNL     1     -40.441  53.471 -51.886  1.00  0.00     0.049 A 
HETATM   14  C   UNL     1     -40.127  52.118 -52.109  1.00  0.00    -0.023 A 
HETATM   15  C   UNL     1     -40.064  51.633 -53.434  1.00  0.00    -0.026 A 
HETATM   16  C   UNL     1     -39.869  51.236 -51.046  1.00  0.00     0.012 A 
HETATM   17  C   UNL     1     -40.320  52.510 -54.496  1.00  0.00     0.015 A 
HETATM   18  C   UNL     1     -39.748  50.284 -53.663  1.00  0.00     0.012 A 
HETATM   19  C   UNL     1     -40.623  53.855 -54.259  1.00  0.00     0.037 A 
HETATM   20  C   UNL     1     -39.494  49.422 -52.596  1.00  0.00     0.001 A 
HETATM   21  C   UNL     1     -39.554  49.898 -51.289  1.00  0.00     0.001 A 
ENDBRANCH  11  12
ENDBRANCH  10  11
ENDBRANCH   7  10
ENDBRANCH   5   6
BRANCH   1  22
HETATM   22  C   UNL     1     -42.366  59.994 -55.273  1.00  0.00     0.732 A 
HETATM   23  N   UNL     1     -42.648  58.816 -55.737  1.00  0.00    -0.067 NA
HETATM   24  C   UNL     1     -42.528  58.655 -57.106  1.00  0.00     0.062 A 
HETATM   25  C   UNL     1     -42.188  59.649 -57.942  1.00  0.00     0.103 A 
HETATM   26  C   UNL     1     -41.907  60.983 -57.391  1.00  0.00     0.261 A 
HETATM   27  N   UNL     1     -41.997  61.068 -56.039  1.00  0.00    -0.152 N 
HETATM   28  O   UNL     1     -41.625  61.930 -58.111  1.00  0.00    -0.268 OA
HETATM   29  H   UNL     1     -41.837  61.970 -55.600  1.00  0.00     0.187 HD
BRANCH  24  30
HETATM   30  C   UNL     1     -42.809  57.264 -57.659  1.00  0.00     0.030 C 
HETATM   31  C   UNL     1     -44.188  57.176 -58.317  1.00  0.00     0.016 C 
HETATM   32  C   UNL     1     -42.653  56.203 -56.568  1.00  0.00     0.016 C 
ENDBRANCH  24  30
ENDBRANCH   1  22
BRANCH   3  33
HETATM   33  C   UNL     1     -43.684  62.742 -51.547  1.00  0.00     0.105 A 
HETATM   34  O   UNL     1     -44.907  62.787 -50.936  1.00  0.00    -0.320 OA
HETATM   35  C   UNL     1     -45.022  64.008 -50.353  1.00  0.00     0.142 A 
HETATM   36  C   UNL     1     -43.891  64.757 -50.577  1.00  0.00     0.027 A 
HETATM   37  C   UNL     1     -43.027  63.942 -51.348  1.00  0.00     0.041 A 
ENDBRANCH   3  33
TORSDOF 7
ENDMDL
MODEL 8
REMARK VINA RESULT:      -8.9      2.617      3.719
REMARK  7 active torsions:
REMARK  status: ('A' for Active; 'I' for Inactive)
REMARK    1  A    between atoms: C_2  and  C_3 
REMARK    2  A    between atoms: C_5  and  N_6 
REMARK    3  A    between atoms: C_8  and  C_9 
REMARK    4  A    between atoms: C_15  and  N_16 
REMARK       I    between atoms: N_16  and  C_17 
REMARK    5  A    between atoms: C_17  and  C_18 
REMARK    6  A    between atoms: C_18  and  O_19 
REMARK    7  A    between atoms: O_19  and  C_20 
ROOT
HETATM    1  N   UNL     1     -41.023  54.992 -53.365  1.00  0.00    -0.044 N 
HETATM    2  N   UNL     1     -40.523  54.008 -52.552  1.00  0.00    -0.148 NA
HETATM    3  C   UNL     1     -40.458  52.932 -53.343  1.00  0.00     0.115 C 
HETATM    4  C   UNL     1     -40.833  53.219 -54.674  1.00  0.00     0.087 C 
HETATM    5  C   UNL     1     -41.077  54.571 -54.692  1.00  0.00     0.152 C 
ENDROOT
BRANCH   5   6
HETATM    6  N   UNL     1     -41.350  55.285 -55.849  1.00  0.00    -0.309 N 
HETATM    7  C   UNL     1     -42.681  55.319 -56.397  1.00  0.00     0.247 C 
HETATM    8  O   UNL     1     -43.625  54.956 -55.710  1.00  0.00    -0.271 OA
HETATM    9  H   UNL     1     -40.648  55.890 -56.264  1.00  0.00     0.170 HD
BRANCH   7  10
HETATM   10  C   UNL     1     -42.781  55.819 -57.822  1.00  0.00     0.278 C 
BRANCH  10  11
HETATM   11  O   UNL     1     -43.627  56.966 -57.875  1.00  0.00    -0.342 OA
BRANCH  11  12
HETATM   12  C   UNL     1     -42.966  58.161 -58.009  1.00  0.00     0.070 A 
HETATM   13  C   UNL     1     -42.828  58.629 -59.318  1.00  0.00     0.049 A 
HETATM   14  C   UNL     1     -42.160  59.836 -59.592  1.00  0.00    -0.023 A 
HETATM   15  C   UNL     1     -41.637  60.593 -58.520  1.00  0.00    -0.026 A 
HETATM   16  C   UNL     1     -41.994  60.306 -60.905  1.00  0.00     0.012 A 
HETATM   17  C   UNL     1     -41.799  60.127 -57.209  1.00  0.00     0.015 A 
HETATM   18  C   UNL     1     -40.966  61.798 -58.787  1.00  0.00     0.012 A 
HETATM   19  C   UNL     1     -42.460  58.921 -56.953  1.00  0.00     0.037 A 
HETATM   20  C   UNL     1     -40.809  62.249 -60.097  1.00  0.00     0.001 A 
HETATM   21  C   UNL     1     -41.322  61.505 -61.155  1.00  0.00     0.001 A 
ENDBRANCH  11  12
ENDBRANCH  10  11
ENDBRANCH   7  10
ENDBRANCH   5   6
BRANCH   1  22
HETATM   22  C   UNL     1     -41.544  56.161 -52.773  1.00  0.00     0.732 A 
HETATM   23  N   UNL     1     -42.460  56.904 -53.313  1.00  0.00    -0.067 NA
HETATM   24  C   UNL     1     -42.872  57.998 -52.572  1.00  0.00     0.062 A 
HETATM   25  C   UNL     1     -42.408  58.279 -51.343  1.00  0.00     0.103 A 
HETATM   26  C   UNL     1     -41.395  57.398 -50.743  1.00  0.00     0.261 A 
HETATM   27  N   UNL     1     -40.998  56.370 -51.534  1.00  0.00    -0.152 N 
HETATM   28  O   UNL     1     -40.963  57.590 -49.615  1.00  0.00    -0.268 OA
HETATM   29  H   UNL     1     -40.317  55.712 -51.166  1.00  0.00     0.187 HD
BRANCH  24  30
HETATM   30  C   UNL     1     -43.911  58.907 -53.214  1.00  0.00     0.030 C 
HETATM   31  C   UNL     1     -44.742  59.656 -52.169  1.00  0.00     0.016 C 
HETATM   32  C   UNL     1     -44.810  58.119 -54.168  1.00  0.00     0.016 C 
ENDBRANCH  24  30
ENDBRANCH   1  22
BRANCH   3  33
HETATM   33  C   UNL     1     -40.016  51.597 -52.848  1.00  0.00     0.105 A 
HETATM   34  O   UNL     1     -39.767  51.305 -51.535  1.00  0.00    -0.320 OA
HETATM   35  C   UNL     1     -39.392  50.001 -51.476  1.00  0.00     0.142 A 
HETATM   36  C   UNL     1     -39.391  49.442 -52.732  1.00  0.00     0.027 A 
HETATM   37  C   UNL     1     -39.793  50.470 -53.619  1.00  0.00     0.041 A 
ENDBRANCH   3  33
TORSDOF 7
ENDMDL
MODEL 9
REMARK VINA RESULT:      -8.8      1.851      2.477
REMARK  7 active torsions:
REMARK  status: ('A' for Active; 'I' for Inactive)
REMARK    1  A    between atoms: C_2  and  C_3 
REMARK    2  A    between atoms: C_5  and  N_6 
REMARK    3  A    between atoms: C_8  and  C_9 
REMARK    4  A    between atoms: C_15  and  N_16 
REMARK       I    between atoms: N_16  and  C_17 
REMARK    5  A    between atoms: C_17  and  C_18 
REMARK    6  A    between atoms: C_18  and  O_19 
REMARK    7  A    between atoms: O_19  and  C_20 
ROOT
HETATM    1  N   UNL     1     -41.941  55.908 -53.815  1.00  0.00    -0.044 N 
HETATM    2  N   UNL     1     -40.990  55.039 -53.346  1.00  0.00    -0.148 NA
HETATM    3  C   UNL     1     -41.357  53.853 -53.845  1.00  0.00     0.115 C 
HETATM    4  C   UNL     1     -42.483  53.950 -54.691  1.00  0.00     0.087 C 
HETATM    5  C   UNL     1     -42.768  55.294 -54.752  1.00  0.00     0.152 C 
ENDROOT
BRANCH   5   6
HETATM    6  N   UNL     1     -43.733  55.835 -55.588  1.00  0.00    -0.309 N 
HETATM    7  C   UNL     1     -43.393  56.869 -56.532  1.00  0.00     0.247 C 
HETATM    8  O   UNL     1     -42.218  57.081 -56.796  1.00  0.00    -0.271 OA
HETATM    9  H   UNL     1     -44.664  55.434 -55.635  1.00  0.00     0.170 HD
BRANCH   7  10
HETATM   10  C   UNL     1     -44.569  57.615 -57.124  1.00  0.00     0.278 C 
BRANCH  10  11
HETATM   11  O   UNL     1     -44.312  57.920 -58.492  1.00  0.00    -0.342 OA
BRANCH  11  12
HETATM   12  C   UNL     1     -45.291  57.515 -59.364  1.00  0.00     0.070 A 
HETATM   13  C   UNL     1     -46.121  58.529 -59.850  1.00  0.00     0.049 A 
HETATM   14  C   UNL     1     -47.171  58.243 -60.742  1.00  0.00    -0.023 A 
HETATM   15  C   UNL     1     -47.375  56.911 -61.164  1.00  0.00    -0.026 A 
HETATM   16  C   UNL     1     -48.027  59.250 -61.219  1.00  0.00     0.012 A 
HETATM   17  C   UNL     1     -46.524  55.905 -60.689  1.00  0.00     0.015 A 
HETATM   18  C   UNL     1     -48.424  56.620 -62.051  1.00  0.00     0.012 A 
HETATM   19  C   UNL     1     -45.488  56.203 -59.797  1.00  0.00     0.037 A 
HETATM   20  C   UNL     1     -49.265  57.631 -62.515  1.00  0.00     0.001 A 
HETATM   21  C   UNL     1     -49.067  58.945 -62.099  1.00  0.00     0.001 A 
ENDBRANCH  11  12
ENDBRANCH  10  11
ENDBRANCH   7  10
ENDBRANCH   5   6
BRANCH   1  22
HETATM   22  C   UNL     1     -42.060  57.174 -53.205  1.00  0.00     0.732 A 
HETATM   23  N   UNL     1     -43.185  57.694 -52.822  1.00  0.00    -0.067 NA
HETATM   24  C   UNL     1     -43.108  58.934 -52.215  1.00  0.00     0.062 A 
HETATM   25  C   UNL     1     -41.950  59.572 -51.976  1.00  0.00     0.103 A 
HETATM   26  C   UNL     1     -40.688  58.942 -52.391  1.00  0.00     0.261 A 
HETATM   27  N   UNL     1     -40.831  57.749 -53.021  1.00  0.00    -0.152 N 
HETATM   28  O   UNL     1     -39.605  59.464 -52.168  1.00  0.00    -0.268 OA
HETATM   29  H   UNL     1     -39.993  57.252 -53.311  1.00  0.00     0.187 HD
BRANCH  24  30
HETATM   30  C   UNL     1     -44.425  59.579 -51.804  1.00  0.00     0.030 C 
HETATM   31  C   UNL     1     -45.299  58.627 -50.984  1.00  0.00     0.016 C 
HETATM   32  C   UNL     1     -45.181  60.101 -53.027  1.00  0.00     0.016 C 
ENDBRANCH  24  30
ENDBRANCH   1  22
BRANCH   3  33
HETATM   33  C   UNL     1     -40.626  52.591 -53.536  1.00  0.00     0.105 A 
HETATM   34  O   UNL     1     -40.024  52.321 -52.338  1.00  0.00    -0.320 OA
HETATM   35  C   UNL     1     -39.468  51.086 -52.435  1.00  0.00     0.142 A 
HETATM   36  C   UNL     1     -39.699  50.549 -53.679  1.00  0.00     0.027 A 
HETATM   37  C   UNL     1     -40.446  51.519 -54.391  1.00  0.00     0.041 A 
ENDBRANCH   3  33
TORSDOF 7
ENDMDL
MODEL 10
REMARK VINA RESULT:      -8.8      3.419      8.730
REMARK  7 active torsions:
REMARK  status: ('A' for Active; 'I' for Inactive)
REMARK    1  A    between atoms: C_2  and  C_3 
REMARK    2  A    between atoms: C_5  and  N_6 
REMARK    3  A    between atoms: C_8  and  C_9 
REMARK    4  A    between atoms: C_15  and  N_16 
REMARK       I    between atoms: N_16  and  C_17 
REMARK    5  A    between atoms: C_17  and  C_18 
REMARK    6  A    between atoms: C_18  and  O_19 
REMARK    7  A    between atoms: O_19  and  C_20 
ROOT
HETATM    1  N   UNL     1     -42.379  59.620 -56.903  1.00  0.00    -0.044 N 
HETATM    2  N   UNL     1     -42.571  60.565 -57.878  1.00  0.00    -0.148 NA
HETATM    3  C   UNL     1     -42.095  59.990 -58.987  1.00  0.00     0.115 C 
HETATM    4  C   UNL     1     -41.668  58.662 -58.766  1.00  0.00     0.087 C 
HETATM    5  C   UNL     1     -41.970  58.407 -57.449  1.00  0.00     0.152 C 
ENDROOT
BRANCH   5   6
HETATM    6  N   UNL     1     -41.829  57.159 -56.860  1.00  0.00    -0.309 N 
HETATM    7  C   UNL     1     -42.970  56.300 -56.673  1.00  0.00     0.247 C 
HETATM    8  O   UNL     1     -44.009  56.538 -57.272  1.00  0.00    -0.271 OA
HETATM    9  H   UNL     1     -40.909  56.781 -56.658  1.00  0.00     0.170 HD
BRANCH   7  10
HETATM   10  C   UNL     1     -42.759  55.144 -55.719  1.00  0.00     0.278 C 
BRANCH  10  11
HETATM   11  O   UNL     1     -41.378  54.788 -55.685  1.00  0.00    -0.342 OA
BRANCH  11  12
HETATM   12  C   UNL     1     -40.997  54.075 -54.577  1.00  0.00     0.070 A 
HETATM   13  C   UNL     1     -40.668  52.737 -54.806  1.00  0.00     0.049 A 
HETATM   14  C   UNL     1     -40.273  51.895 -53.750  1.00  0.00    -0.023 A 
HETATM   15  C   UNL     1     -40.191  52.420 -52.442  1.00  0.00    -0.026 A 
HETATM   16  C   UNL     1     -39.962  50.542 -53.963  1.00  0.00     0.012 A 
HETATM   17  C   UNL     1     -40.502  53.769 -52.225  1.00  0.00     0.015 A 
HETATM   18  C   UNL     1     -39.800  51.584 -51.384  1.00  0.00     0.012 A 
HETATM   19  C   UNL     1     -40.900  54.592 -53.284  1.00  0.00     0.037 A 
HETATM   20  C   UNL     1     -39.496  50.242 -51.613  1.00  0.00     0.001 A 
HETATM   21  C   UNL     1     -39.577  49.721 -52.901  1.00  0.00     0.001 A 
ENDBRANCH  11  12
ENDBRANCH  10  11
ENDBRANCH   7  10
ENDBRANCH   5   6
BRANCH   1  22
HETATM   22  C   UNL     1     -42.449  60.018 -55.552  1.00  0.00     0.732 A 
HETATM   23  N   UNL     1     -41.892  59.372 -54.574  1.00  0.00    -0.067 NA
HETATM   24  C   UNL     1     -42.039  59.927 -53.315  1.00  0.00     0.062 A 
HETATM   25  C   UNL     1     -42.675  61.089 -53.087  1.00  0.00     0.103 A 
HETATM   26  C   UNL     1     -43.266  61.816 -54.220  1.00  0.00     0.261 A 
HETATM   27  N   UNL     1     -43.128  61.200 -55.421  1.00  0.00    -0.152 N 
HETATM   28  O   UNL     1     -43.825  62.893 -54.072  1.00  0.00    -0.268 OA
HETATM   29  H   UNL     1     -43.495  61.664 -56.247  1.00  0.00     0.187 HD
BRANCH  24  30
HETATM   30  C   UNL     1     -41.434  59.155 -52.151  1.00  0.00     0.030 C 
HETATM   31  C   UNL     1     -41.558  59.919 -50.830  1.00  0.00     0.016 C 
HETATM   32  C   UNL     1     -39.977  58.790 -52.438  1.00  0.00     0.016 C 
ENDBRANCH  24  30
ENDBRANCH   1  22
BRANCH   3  33
HETATM   33  C   UNL     1     -42.050  60.694 -60.301  1.00  0.00     0.105 A 
HETATM   34  O   UNL     1     -41.312  61.819 -60.548  1.00  0.00    -0.320 OA
HETATM   35  C   UNL     1     -41.523  62.163 -61.845  1.00  0.00     0.142 A 
HETATM   36  C   UNL     1     -42.388  61.279 -62.443  1.00  0.00     0.027 A 
HETATM   37  C   UNL     1     -42.730  60.331 -61.449  1.00  0.00     0.041 A 
ENDBRANCH   3  33
TORSDOF 7
ENDMDL
