MODEL 1
REMARK VINA RESULT:      -8.7      0.000      0.000
REMARK  4 active torsions:
REMARK  status: ('A' for Active; 'I' for Inactive)
REMARK    1  A    between atoms: C_2  and  C_3 
REMARK       I    between atoms: C_3  and  N_4 
REMARK    2  A    between atoms: N_4  and  C_5 
REMARK    3  A    between atoms: C_12  and  C_13 
REMARK       I    between atoms: C_13  and  N_14 
REMARK    4  A    between atoms: C_19  and  C_20 
ROOT
HETATM    1  C   UNL     1     -42.809  56.376 -52.084  1.00  0.00     0.036 A 
HETATM    2  C   UNL     1     -42.689  56.237 -53.480  1.00  0.00     0.046 A 
HETATM    3  C   UNL     1     -43.572  56.928 -54.334  1.00  0.00     0.030 A 
HETATM    4  C   UNL     1     -44.548  57.738 -53.773  1.00  0.00     0.063 A 
HETATM    5  N   UNL     1     -45.236  58.263 -54.831  1.00  0.00    -0.277 N 
HETATM    6  H   UNL     1     -46.023  58.901 -54.795  1.00  0.00     0.189 HD
HETATM    7  N   UNL     1     -44.793  57.863 -56.036  1.00  0.00    -0.168 NA
HETATM    8  C   UNL     1     -43.763  57.036 -55.743  1.00  0.00     0.156 A 
HETATM    9  C   UNL     1     -44.695  57.903 -52.394  1.00  0.00     0.034 A 
HETATM   10  C   UNL     1     -43.805  57.205 -51.564  1.00  0.00     0.032 A 
ENDROOT
BRANCH   1  11
HETATM   11  N   UNL     1     -41.897  55.633 -51.298  1.00  0.00    -0.323 N 
HETATM   12  C   UNL     1     -42.028  54.331 -50.850  1.00  0.00     0.251 C 
HETATM   13  O   UNL     1     -43.020  53.634 -51.027  1.00  0.00    -0.268 OA
HETATM   14  H   UNL     1     -41.064  56.141 -51.046  1.00  0.00     0.169 HD
BRANCH  12  15
HETATM   15  C   UNL     1     -40.816  53.798 -50.108  1.00  0.00     0.007 C 
HETATM   16  C   UNL     1     -40.513  54.329 -48.730  1.00  0.00     0.054 C 
HETATM   17  C   UNL     1     -39.984  52.867 -50.624  1.00  0.00     0.025 C 
BRANCH  17  18
HETATM   18  C   UNL     1     -40.022  52.175 -51.924  1.00  0.00    -0.014 A 
HETATM   19  C   UNL     1     -39.759  50.799 -52.039  1.00  0.00     0.044 A 
HETATM   20 CL   UNL     1     -39.444  49.811 -50.652  1.00  0.00    -0.083 Cl
HETATM   21  C   UNL     1     -39.732  50.182 -53.295  1.00  0.00     0.024 A 
HETATM   22  C   UNL     1     -39.964  50.930 -54.447  1.00  0.00     0.002 A 
HETATM   23  C   UNL     1     -40.218  52.296 -54.347  1.00  0.00     0.001 A 
HETATM   24  C   UNL     1     -40.237  52.916 -53.095  1.00  0.00     0.013 A 
ENDBRANCH  17  18
ENDBRANCH  12  15
ENDBRANCH   1  11
BRANCH   8  25
HETATM   25  C   UNL     1     -42.987  56.370 -56.797  1.00  0.00     0.270 C 
HETATM   26  N   UNL     1     -42.187  57.212 -57.521  1.00  0.00    -0.365 N 
HETATM   27  H   UNL     1     -42.184  58.198 -57.287  1.00  0.00     0.159 HD
HETATM   28  H   UNL     1     -41.614  56.846 -58.264  1.00  0.00     0.159 HD
HETATM   29  O   UNL     1     -43.029  55.167 -57.034  1.00  0.00    -0.266 OA
ENDBRANCH   8  25
TORSDOF 4
ENDMDL
MODEL 2
REMARK VINA RESULT:      -8.5      1.886      3.249
REMARK  4 active torsions:
REMARK  status: ('A' for Active; 'I' for Inactive)
REMARK    1  A    between atoms: C_2  and  C_3 
REMARK       I    between atoms: C_3  and  N_4 
REMARK    2  A    between atoms: N_4  and  C_5 
REMARK    3  A    between atoms: C_12  and  C_13 
REMARK       I    between atoms: C_13  and  N_14 
REMARK    4  A    between atoms: C_19  and  C_20 
ROOT
HETATM    1  C   UNL     1     -42.030  56.493 -52.169  1.00  0.00     0.036 A 
HETATM    2  C   UNL     1     -43.022  57.238 -51.504  1.00  0.00     0.046 A 
HETATM    3  C   UNL     1     -43.836  58.130 -52.229  1.00  0.00     0.030 A 
HETATM    4  C   UNL     1     -43.639  58.254 -53.597  1.00  0.00     0.063 A 
HETATM    5  N   UNL     1     -44.558  59.176 -54.014  1.00  0.00    -0.277 N 
HETATM    6  H   UNL     1     -44.701  59.515 -54.959  1.00  0.00     0.189 HD
HETATM    7  N   UNL     1     -45.339  59.665 -53.034  1.00  0.00    -0.168 NA
HETATM    8  C   UNL     1     -44.903  59.026 -51.925  1.00  0.00     0.156 A 
HETATM    9  C   UNL     1     -42.667  57.531 -54.291  1.00  0.00     0.034 A 
HETATM   10  C   UNL     1     -41.868  56.648 -53.546  1.00  0.00     0.032 A 
ENDROOT
BRANCH   1  11
HETATM   11  N   UNL     1     -41.243  55.635 -51.364  1.00  0.00    -0.323 N 
HETATM   12  C   UNL     1     -41.584  54.390 -50.867  1.00  0.00     0.251 C 
HETATM   13  O   UNL     1     -42.681  53.863 -51.009  1.00  0.00    -0.268 OA
HETATM   14  H   UNL     1     -40.334  56.005 -51.137  1.00  0.00     0.169 HD
BRANCH  12  15
HETATM   15  C   UNL     1     -40.468  53.687 -50.116  1.00  0.00     0.007 C 
HETATM   16  C   UNL     1     -40.102  54.168 -48.734  1.00  0.00     0.054 C 
HETATM   17  C   UNL     1     -39.773  52.647 -50.628  1.00  0.00     0.025 C 
BRANCH  17  18
HETATM   18  C   UNL     1     -39.899  51.970 -51.930  1.00  0.00    -0.014 A 
HETATM   19  C   UNL     1     -39.687  50.587 -52.070  1.00  0.00     0.044 A 
HETATM   20 CL   UNL     1     -39.333  49.576 -50.708  1.00  0.00    -0.083 Cl
HETATM   21  C   UNL     1     -39.743  49.982 -53.330  1.00  0.00     0.024 A 
HETATM   22  C   UNL     1     -40.009  50.748 -54.463  1.00  0.00     0.002 A 
HETATM   23  C   UNL     1     -40.214  52.120 -54.339  1.00  0.00     0.001 A 
HETATM   24  C   UNL     1     -40.149  52.729 -53.082  1.00  0.00     0.013 A 
ENDBRANCH  17  18
ENDBRANCH  12  15
ENDBRANCH   1  11
BRANCH   8  25
HETATM   25  C   UNL     1     -45.501  59.278 -50.607  1.00  0.00     0.270 C 
HETATM   26  N   UNL     1     -44.819  60.188 -49.847  1.00  0.00    -0.365 N 
HETATM   27  H   UNL     1     -43.981  60.610 -50.231  1.00  0.00     0.159 HD
HETATM   28  H   UNL     1     -45.154  60.428 -48.928  1.00  0.00     0.159 HD
HETATM   29  O   UNL     1     -46.522  58.737 -50.195  1.00  0.00    -0.266 OA
ENDBRANCH   8  25
TORSDOF 4
ENDMDL
MODEL 3
REMARK VINA RESULT:      -8.4      1.632      2.636
REMARK  4 active torsions:
REMARK  status: ('A' for Active; 'I' for Inactive)
REMARK    1  A    between atoms: C_2  and  C_3 
REMARK       I    between atoms: C_3  and  N_4 
REMARK    2  A    between atoms: N_4  and  C_5 
REMARK    3  A    between atoms: C_12  and  C_13 
REMARK       I    between atoms: C_13  and  N_14 
REMARK    4  A    between atoms: C_19  and  C_20 
ROOT
HETATM    1  C   UNL     1     -42.067  55.560 -54.145  1.00  0.00     0.036 A 
HETATM    2  C   UNL     1     -42.943  56.631 -53.888  1.00  0.00     0.046 A 
HETATM    3  C   UNL     1     -43.733  57.159 -54.929  1.00  0.00     0.030 A 
HETATM    4  C   UNL     1     -43.628  56.603 -56.196  1.00  0.00     0.063 A 
HETATM    5  N   UNL     1     -44.497  57.313 -56.976  1.00  0.00    -0.277 N 
HETATM    6  H   UNL     1     -44.681  57.181 -57.965  1.00  0.00     0.189 HD
HETATM    7  N   UNL     1     -45.160  58.286 -56.327  1.00  0.00    -0.168 NA
HETATM    8  C   UNL     1     -44.698  58.201 -55.059  1.00  0.00     0.156 A 
HETATM    9  C   UNL     1     -42.772  55.539 -56.488  1.00  0.00     0.034 A 
HETATM   10  C   UNL     1     -41.995  55.030 -55.435  1.00  0.00     0.032 A 
ENDROOT
BRANCH   1  11
HETATM   11  N   UNL     1     -41.297  55.103 -53.050  1.00  0.00    -0.323 N 
HETATM   12  C   UNL     1     -41.694  54.265 -52.023  1.00  0.00     0.251 C 
HETATM   13  O   UNL     1     -42.833  53.836 -51.881  1.00  0.00    -0.268 OA
HETATM   14  H   UNL     1     -40.350  55.449 -53.041  1.00  0.00     0.169 HD
BRANCH  12  15
HETATM   15  C   UNL     1     -40.587  53.890 -51.055  1.00  0.00     0.007 C 
HETATM   16  C   UNL     1     -40.341  54.765 -49.852  1.00  0.00     0.054 C 
HETATM   17  C   UNL     1     -39.799  52.804 -51.219  1.00  0.00     0.025 C 
BRANCH  17  18
HETATM   18  C   UNL     1     -39.800  51.781 -52.279  1.00  0.00    -0.014 A 
HETATM   19  C   UNL     1     -39.685  50.411 -51.986  1.00  0.00     0.044 A 
HETATM   20 CL   UNL     1     -39.605  49.830 -50.356  1.00  0.00    -0.083 Cl
HETATM   21  C   UNL     1     -39.617  49.466 -53.016  1.00  0.00     0.024 A 
HETATM   22  C   UNL     1     -39.660  49.877 -54.346  1.00  0.00     0.002 A 
HETATM   23  C   UNL     1     -39.767  51.232 -54.650  1.00  0.00     0.001 A 
HETATM   24  C   UNL     1     -39.826  52.178 -53.623  1.00  0.00     0.013 A 
ENDBRANCH  17  18
ENDBRANCH  12  15
ENDBRANCH   1  11
BRANCH   8  25
HETATM   25  C   UNL     1     -45.175  59.105 -54.004  1.00  0.00     0.270 C 
HETATM   26  N   UNL     1     -45.831  60.211 -54.469  1.00  0.00    -0.365 N 
HETATM   27  H   UNL     1     -45.940  60.325 -55.471  1.00  0.00     0.159 HD
HETATM   28  H   UNL     1     -46.198  60.888 -53.821  1.00  0.00     0.159 HD
HETATM   29  O   UNL     1     -45.015  58.914 -52.803  1.00  0.00    -0.266 OA
ENDBRANCH   8  25
TORSDOF 4
ENDMDL
MODEL 4
REMARK VINA RESULT:      -8.3      2.385      4.001
REMARK  4 active torsions:
REMARK  status: ('A' for Active; 'I' for Inactive)
REMARK    1  A    between atoms: C_2  and  C_3 
REMARK       I    between atoms: C_3  and  N_4 
REMARK    2  A    between atoms: N_4  and  C_5 
REMARK    3  A    between atoms: C_12  and  C_13 
REMARK       I    between atoms: C_13  and  N_14 
REMARK    4  A    between atoms: C_19  and  C_20 
ROOT
HETATM    1  C   UNL     1     -42.844  55.335 -55.312  1.00  0.00     0.036 A 
HETATM    2  C   UNL     1     -42.720  55.492 -56.705  1.00  0.00     0.046 A 
HETATM    3  C   UNL     1     -43.285  56.617 -57.339  1.00  0.00     0.030 A 
HETATM    4  C   UNL     1     -43.957  57.553 -56.566  1.00  0.00     0.063 A 
HETATM    5  N   UNL     1     -44.386  58.508 -57.444  1.00  0.00    -0.277 N 
HETATM    6  H   UNL     1     -44.916  59.346 -57.229  1.00  0.00     0.189 HD
HETATM    7  N   UNL     1     -44.053  58.275 -58.726  1.00  0.00    -0.168 NA
HETATM    8  C   UNL     1     -43.371  57.108 -58.675  1.00  0.00     0.156 A 
HETATM    9  C   UNL     1     -44.098  57.432 -55.182  1.00  0.00     0.034 A 
HETATM   10  C   UNL     1     -43.526  56.304 -54.573  1.00  0.00     0.032 A 
ENDROOT
BRANCH   1  11
HETATM   11  N   UNL     1     -42.265  54.169 -54.758  1.00  0.00    -0.323 N 
HETATM   12  C   UNL     1     -40.978  54.006 -54.278  1.00  0.00     0.251 C 
HETATM   13  O   UNL     1     -40.107  54.867 -54.326  1.00  0.00    -0.268 OA
HETATM   14  H   UNL     1     -42.887  53.377 -54.726  1.00  0.00     0.169 HD
BRANCH  12  15
HETATM   15  C   UNL     1     -40.706  52.649 -53.657  1.00  0.00     0.007 C 
HETATM   16  C   UNL     1     -40.492  51.462 -54.561  1.00  0.00     0.054 C 
HETATM   17  C   UNL     1     -40.652  52.445 -52.321  1.00  0.00     0.025 C 
BRANCH  17  18
HETATM   18  C   UNL     1     -40.820  53.394 -51.208  1.00  0.00    -0.014 A 
HETATM   19  C   UNL     1     -42.049  54.028 -50.955  1.00  0.00     0.044 A 
HETATM   20 CL   UNL     1     -43.464  53.682 -51.892  1.00  0.00    -0.083 Cl
HETATM   21  C   UNL     1     -42.163  54.979 -49.934  1.00  0.00     0.024 A 
HETATM   22  C   UNL     1     -41.053  55.308 -49.158  1.00  0.00     0.002 A 
HETATM   23  C   UNL     1     -39.828  54.692 -49.404  1.00  0.00     0.001 A 
HETATM   24  C   UNL     1     -39.710  53.749 -50.428  1.00  0.00     0.013 A 
ENDBRANCH  17  18
ENDBRANCH  12  15
ENDBRANCH   1  11
BRANCH   8  25
HETATM   25  C   UNL     1     -42.820  56.485 -59.885  1.00  0.00     0.270 C 
HETATM   26  N   UNL     1     -41.475  56.673 -60.050  1.00  0.00    -0.365 N 
HETATM   27  H   UNL     1     -40.972  57.206 -59.350  1.00  0.00     0.159 HD
HETATM   28  H   UNL     1     -41.006  56.280 -60.849  1.00  0.00     0.159 HD
HETATM   29  O   UNL     1     -43.481  55.846 -60.698  1.00  0.00    -0.266 OA
ENDBRANCH   8  25
TORSDOF 4
ENDMDL
MODEL 5
REMARK VINA RESULT:      -8.3      2.421      3.955
REMARK  4 active torsions:
REMARK  status: ('A' for Active; 'I' for Inactive)
REMARK    1  A    between atoms: C_2  and  C_3 
REMARK       I    between atoms: C_3  and  N_4 
REMARK    2  A    between atoms: N_4  and  C_5 
REMARK    3  A    between atoms: C_12  and  C_13 
REMARK       I    between atoms: C_13  and  N_14 
REMARK    4  A    between atoms: C_19  and  C_20 
ROOT
HETATM    1  C   UNL     1     -42.792  56.884 -56.079  1.00  0.00     0.036 A 
HETATM    2  C   UNL     1     -43.319  56.045 -57.079  1.00  0.00     0.046 A 
HETATM    3  C   UNL     1     -43.249  56.433 -58.432  1.00  0.00     0.030 A 
HETATM    4  C   UNL     1     -42.654  57.645 -58.750  1.00  0.00     0.063 A 
HETATM    5  N   UNL     1     -42.736  57.744 -60.110  1.00  0.00    -0.277 N 
HETATM    6  H   UNL     1     -42.401  58.505 -60.692  1.00  0.00     0.189 HD
HETATM    7  N   UNL     1     -43.335  56.699 -60.709  1.00  0.00    -0.168 NA
HETATM    8  C   UNL     1     -43.657  55.880 -59.681  1.00  0.00     0.156 A 
HETATM    9  C   UNL     1     -42.118  58.503 -57.786  1.00  0.00     0.034 A 
HETATM   10  C   UNL     1     -42.200  58.094 -56.445  1.00  0.00     0.032 A 
ENDROOT
BRANCH   1  11
HETATM   11  N   UNL     1     -42.921  56.429 -54.746  1.00  0.00    -0.323 N 
HETATM   12  C   UNL     1     -41.933  56.339 -53.781  1.00  0.00     0.251 C 
HETATM   13  O   UNL     1     -40.750  56.592 -53.974  1.00  0.00    -0.268 OA
HETATM   14  H   UNL     1     -43.853  56.138 -54.500  1.00  0.00     0.169 HD
BRANCH  12  15
HETATM   15  C   UNL     1     -42.429  55.901 -52.415  1.00  0.00     0.007 C 
HETATM   16  C   UNL     1     -43.294  56.842 -51.616  1.00  0.00     0.054 C 
HETATM   17  C   UNL     1     -42.127  54.702 -51.869  1.00  0.00     0.025 C 
BRANCH  17  18
HETATM   18  C   UNL     1     -41.315  53.594 -52.400  1.00  0.00    -0.014 A 
HETATM   19  C   UNL     1     -40.260  53.028 -51.663  1.00  0.00     0.044 A 
HETATM   20 CL   UNL     1     -39.890  53.550 -50.053  1.00  0.00    -0.083 Cl
HETATM   21  C   UNL     1     -39.460  52.024 -52.219  1.00  0.00     0.024 A 
HETATM   22  C   UNL     1     -39.701  51.577 -53.517  1.00  0.00     0.002 A 
HETATM   23  C   UNL     1     -40.739  52.134 -54.260  1.00  0.00     0.001 A 
HETATM   24  C   UNL     1     -41.533  53.142 -53.710  1.00  0.00     0.013 A 
ENDBRANCH  17  18
ENDBRANCH  12  15
ENDBRANCH   1  11
BRANCH   8  25
HETATM   25  C   UNL     1     -44.341  54.600 -59.904  1.00  0.00     0.270 C 
HETATM   26  N   UNL     1     -44.912  54.477 -61.141  1.00  0.00    -0.365 N 
HETATM   27  H   UNL     1     -44.825  55.248 -61.793  1.00  0.00     0.159 HD
HETATM   28  H   UNL     1     -45.402  53.633 -61.388  1.00  0.00     0.159 HD
HETATM   29  O   UNL     1     -44.413  53.699 -59.074  1.00  0.00    -0.266 OA
ENDBRANCH   8  25
TORSDOF 4
ENDMDL
MODEL 6
REMARK VINA RESULT:      -8.2      3.093      7.427
REMARK  4 active torsions:
REMARK  status: ('A' for Active; 'I' for Inactive)
REMARK    1  A    between atoms: C_2  and  C_3 
REMARK       I    between atoms: C_3  and  N_4 
REMARK    2  A    between atoms: N_4  and  C_5 
REMARK    3  A    between atoms: C_12  and  C_13 
REMARK       I    between atoms: C_13  and  N_14 
REMARK    4  A    between atoms: C_19  and  C_20 
ROOT
HETATM    1  C   UNL     1     -40.689  54.382 -54.002  1.00  0.00     0.036 A 
HETATM    2  C   UNL     1     -40.861  54.429 -52.606  1.00  0.00     0.046 A 
HETATM    3  C   UNL     1     -40.544  53.303 -51.820  1.00  0.00     0.030 A 
HETATM    4  C   UNL     1     -40.064  52.163 -52.447  1.00  0.00     0.063 A 
HETATM    5  N   UNL     1     -39.853  51.259 -51.445  1.00  0.00    -0.277 N 
HETATM    6  H   UNL     1     -39.503  50.311 -51.537  1.00  0.00     0.189 HD
HETATM    7  N   UNL     1     -40.155  51.711 -50.215  1.00  0.00    -0.168 NA
HETATM    8  C   UNL     1     -40.584  52.975 -50.433  1.00  0.00     0.156 A 
HETATM    9  C   UNL     1     -39.878  52.080 -53.829  1.00  0.00     0.034 A 
HETATM   10  C   UNL     1     -40.201  53.214 -54.591  1.00  0.00     0.032 A 
ENDROOT
BRANCH   1  11
HETATM   11  N   UNL     1     -41.050  55.547 -54.719  1.00  0.00    -0.323 N 
HETATM   12  C   UNL     1     -42.230  55.795 -55.396  1.00  0.00     0.251 C 
HETATM   13  O   UNL     1     -43.139  54.983 -55.525  1.00  0.00    -0.268 OA
HETATM   14  H   UNL     1     -40.340  56.262 -54.725  1.00  0.00     0.169 HD
BRANCH  12  15
HETATM   15  C   UNL     1     -42.338  57.192 -55.980  1.00  0.00     0.007 C 
HETATM   16  C   UNL     1     -42.558  57.347 -57.464  1.00  0.00     0.054 C 
HETATM   17  C   UNL     1     -42.239  58.315 -55.234  1.00  0.00     0.025 C 
BRANCH  17  18
HETATM   18  C   UNL     1     -42.025  58.477 -53.786  1.00  0.00    -0.014 A 
HETATM   19  C   UNL     1     -43.071  58.319 -52.860  1.00  0.00     0.044 A 
HETATM   20 CL   UNL     1     -44.664  57.854 -53.355  1.00  0.00    -0.083 Cl
HETATM   21  C   UNL     1     -42.856  58.548 -51.497  1.00  0.00     0.024 A 
HETATM   22  C   UNL     1     -41.597  58.940 -51.043  1.00  0.00     0.002 A 
HETATM   23  C   UNL     1     -40.555  59.106 -51.951  1.00  0.00     0.001 A 
HETATM   24  C   UNL     1     -40.769  58.886 -53.314  1.00  0.00     0.013 A 
ENDBRANCH  17  18
ENDBRANCH  12  15
ENDBRANCH   1  11
BRANCH   8  25
HETATM   25  C   UNL     1     -41.022  53.840 -49.329  1.00  0.00     0.270 C 
HETATM   26  N   UNL     1     -40.155  53.881 -48.272  1.00  0.00    -0.365 N 
HETATM   27  H   UNL     1     -39.303  53.334 -48.323  1.00  0.00     0.159 HD
HETATM   28  H   UNL     1     -40.368  54.449 -47.469  1.00  0.00     0.159 HD
HETATM   29  O   UNL     1     -42.067  54.483 -49.325  1.00  0.00    -0.266 OA
ENDBRANCH   8  25
TORSDOF 4
ENDMDL
MODEL 7
REMARK VINA RESULT:      -8.2      2.637      4.730
REMARK  4 active torsions:
REMARK  status: ('A' for Active; 'I' for Inactive)
REMARK    1  A    between atoms: C_2  and  C_3 
REMARK       I    between atoms: C_3  and  N_4 
REMARK    2  A    between atoms: N_4  and  C_5 
REMARK    3  A    between atoms: C_12  and  C_13 
REMARK       I    between atoms: C_13  and  N_14 
REMARK    4  A    between atoms: C_19  and  C_20 
ROOT
HETATM    1  C   UNL     1     -42.465  55.397 -56.299  1.00  0.00     0.036 A 
HETATM    2  C   UNL     1     -43.130  55.008 -57.477  1.00  0.00     0.046 A 
HETATM    3  C   UNL     1     -43.533  55.983 -58.411  1.00  0.00     0.030 A 
HETATM    4  C   UNL     1     -43.260  57.317 -58.146  1.00  0.00     0.063 A 
HETATM    5  N   UNL     1     -43.763  58.009 -59.211  1.00  0.00    -0.277 N 
HETATM    6  H   UNL     1     -43.743  59.013 -59.356  1.00  0.00     0.189 HD
HETATM    7  N   UNL     1     -44.342  57.240 -60.151  1.00  0.00    -0.168 NA
HETATM    8  C   UNL     1     -44.206  55.984 -59.668  1.00  0.00     0.156 A 
HETATM    9  C   UNL     1     -42.601  57.740 -56.990  1.00  0.00     0.034 A 
HETATM   10  C   UNL     1     -42.209  56.750 -56.074  1.00  0.00     0.032 A 
ENDROOT
BRANCH   1  11
HETATM   11  N   UNL     1     -42.113  54.358 -55.405  1.00  0.00    -0.323 N 
HETATM   12  C   UNL     1     -40.859  54.063 -54.900  1.00  0.00     0.251 C 
HETATM   13  O   UNL     1     -39.829  54.644 -55.218  1.00  0.00    -0.268 OA
HETATM   14  H   UNL     1     -42.887  53.778 -55.124  1.00  0.00     0.169 HD
BRANCH  12  15
HETATM   15  C   UNL     1     -40.842  52.938 -53.881  1.00  0.00     0.007 C 
HETATM   16  C   UNL     1     -40.437  51.556 -54.326  1.00  0.00     0.054 C 
HETATM   17  C   UNL     1     -41.181  53.111 -52.583  1.00  0.00     0.025 C 
BRANCH  17  18
HETATM   18  C   UNL     1     -41.614  54.323 -51.868  1.00  0.00    -0.014 A 
HETATM   19  C   UNL     1     -40.916  54.813 -50.750  1.00  0.00     0.044 A 
HETATM   20 CL   UNL     1     -39.462  54.063 -50.182  1.00  0.00    -0.083 Cl
HETATM   21  C   UNL     1     -41.390  55.926 -50.047  1.00  0.00     0.024 A 
HETATM   22  C   UNL     1     -42.563  56.560 -50.449  1.00  0.00     0.002 A 
HETATM   23  C   UNL     1     -43.267  56.081 -51.551  1.00  0.00     0.001 A 
HETATM   24  C   UNL     1     -42.801  54.964 -52.250  1.00  0.00     0.013 A 
ENDBRANCH  17  18
ENDBRANCH  12  15
ENDBRANCH   1  11
BRANCH   8  25
HETATM   25  C   UNL     1     -44.715  54.819 -60.403  1.00  0.00     0.270 C 
HETATM   26  N   UNL     1     -45.047  53.756 -59.607  1.00  0.00    -0.365 N 
HETATM   27  H   UNL     1     -44.924  53.844 -58.605  1.00  0.00     0.159 HD
HETATM   28  H   UNL     1     -45.408  52.912 -60.021  1.00  0.00     0.159 HD
HETATM   29  O   UNL     1     -44.846  54.770 -61.622  1.00  0.00    -0.266 OA
ENDBRANCH   8  25
TORSDOF 4
ENDMDL
MODEL 8
REMARK VINA RESULT:      -7.9      2.703      4.433
REMARK  4 active torsions:
REMARK  status: ('A' for Active; 'I' for Inactive)
REMARK    1  A    between atoms: C_2  and  C_3 
REMARK       I    between atoms: C_3  and  N_4 
REMARK    2  A    between atoms: N_4  and  C_5 
REMARK    3  A    between atoms: C_12  and  C_13 
REMARK       I    between atoms: C_13  and  N_14 
REMARK    4  A    between atoms: C_19  and  C_20 
ROOT
HETATM    1  C   UNL     1     -42.850  56.362 -56.713  1.00  0.00     0.036 A 
HETATM    2  C   UNL     1     -42.507  57.697 -57.001  1.00  0.00     0.046 A 
HETATM    3  C   UNL     1     -42.351  58.109 -58.340  1.00  0.00     0.030 A 
HETATM    4  C   UNL     1     -42.542  57.181 -59.352  1.00  0.00     0.063 A 
HETATM    5  N   UNL     1     -42.324  57.863 -60.516  1.00  0.00    -0.277 N 
HETATM    6  H   UNL     1     -42.376  57.497 -61.461  1.00  0.00     0.189 HD
HETATM    7  N   UNL     1     -42.005  59.159 -60.350  1.00  0.00    -0.168 NA
HETATM    8  C   UNL     1     -42.018  59.325 -59.007  1.00  0.00     0.156 A 
HETATM    9  C   UNL     1     -42.885  55.850 -59.105  1.00  0.00     0.034 A 
HETATM   10  C   UNL     1     -43.035  55.463 -57.764  1.00  0.00     0.032 A 
ENDROOT
BRANCH   1  11
HETATM   11  N   UNL     1     -42.968  56.026 -55.344  1.00  0.00    -0.323 N 
HETATM   12  C   UNL     1     -41.952  55.884 -54.415  1.00  0.00     0.251 C 
HETATM   13  O   UNL     1     -40.758  55.973 -54.675  1.00  0.00    -0.268 OA
HETATM   14  H   UNL     1     -43.916  55.872 -55.039  1.00  0.00     0.169 HD
BRANCH  12  15
HETATM   15  C   UNL     1     -42.430  55.612 -53.000  1.00  0.00     0.007 C 
HETATM   16  C   UNL     1     -43.337  56.612 -52.331  1.00  0.00     0.054 C 
HETATM   17  C   UNL     1     -42.075  54.511 -52.300  1.00  0.00     0.025 C 
BRANCH  17  18
HETATM   18  C   UNL     1     -41.215  53.379 -52.682  1.00  0.00    -0.014 A 
HETATM   19  C   UNL     1     -40.160  52.940 -51.862  1.00  0.00     0.044 A 
HETATM   20 CL   UNL     1     -39.848  53.657 -50.316  1.00  0.00    -0.083 Cl
HETATM   21  C   UNL     1     -39.314  51.908 -52.281  1.00  0.00     0.024 A 
HETATM   22  C   UNL     1     -39.508  51.305 -53.523  1.00  0.00     0.002 A 
HETATM   23  C   UNL     1     -40.545  51.735 -54.347  1.00  0.00     0.001 A 
HETATM   24  C   UNL     1     -41.386  52.772 -53.934  1.00  0.00     0.013 A 
ENDBRANCH  17  18
ENDBRANCH  12  15
ENDBRANCH   1  11
BRANCH   8  25
HETATM   25  C   UNL     1     -41.716  60.622 -58.390  1.00  0.00     0.270 C 
HETATM   26  N   UNL     1     -42.384  61.678 -58.948  1.00  0.00    -0.365 N 
HETATM   27  H   UNL     1     -43.017  61.497 -59.719  1.00  0.00     0.159 HD
HETATM   28  H   UNL     1     -42.244  62.608 -58.589  1.00  0.00     0.159 HD
HETATM   29  O   UNL     1     -40.940  60.780 -57.453  1.00  0.00    -0.266 OA
ENDBRANCH   8  25
TORSDOF 4
ENDMDL
MODEL 9
REMARK VINA RESULT:      -7.9      3.042      7.536
REMARK  4 active torsions:
REMARK  status: ('A' for Active; 'I' for Inactive)
REMARK    1  A    between atoms: C_2  and  C_3 
REMARK       I    between atoms: C_3  and  N_4 
REMARK    2  A    between atoms: N_4  and  C_5 
REMARK    3  A    between atoms: C_12  and  C_13 
REMARK       I    between atoms: C_13  and  N_14 
REMARK    4  A    between atoms: C_19  and  C_20 
ROOT
HETATM    1  C   UNL     1     -41.013  54.087 -54.507  1.00  0.00     0.036 A 
HETATM    2  C   UNL     1     -41.365  54.359 -53.172  1.00  0.00     0.046 A 
HETATM    3  C   UNL     1     -40.900  53.521 -52.138  1.00  0.00     0.030 A 
HETATM    4  C   UNL     1     -40.098  52.438 -52.464  1.00  0.00     0.063 A 
HETATM    5  N   UNL     1     -39.813  51.826 -51.276  1.00  0.00    -0.277 N 
HETATM    6  H   UNL     1     -39.247  50.997 -51.133  1.00  0.00     0.189 HD
HETATM    7  N   UNL     1     -40.362  52.418 -50.200  1.00  0.00    -0.168 NA
HETATM    8  C   UNL     1     -41.038  53.468 -50.720  1.00  0.00     0.156 A 
HETATM    9  C   UNL     1     -39.726  52.139 -53.777  1.00  0.00     0.034 A 
HETATM   10  C   UNL     1     -40.201  52.987 -54.790  1.00  0.00     0.032 A 
ENDROOT
BRANCH   1  11
HETATM   11  N   UNL     1     -41.537  54.964 -55.486  1.00  0.00    -0.323 N 
HETATM   12  C   UNL     1     -42.753  54.877 -56.139  1.00  0.00     0.251 C 
HETATM   13  O   UNL     1     -43.550  53.956 -56.001  1.00  0.00    -0.268 OA
HETATM   14  H   UNL     1     -40.927  55.733 -55.718  1.00  0.00     0.169 HD
BRANCH  12  15
HETATM   15  C   UNL     1     -43.054  56.042 -57.065  1.00  0.00     0.007 C 
HETATM   16  C   UNL     1     -42.935  55.840 -58.554  1.00  0.00     0.054 C 
HETATM   17  C   UNL     1     -43.421  57.264 -56.619  1.00  0.00     0.025 C 
BRANCH  17  18
HETATM   18  C   UNL     1     -43.615  57.755 -55.244  1.00  0.00    -0.014 A 
HETATM   19  C   UNL     1     -42.961  58.904 -54.768  1.00  0.00     0.044 A 
HETATM   20 CL   UNL     1     -41.938  59.860 -55.789  1.00  0.00    -0.083 Cl
HETATM   21  C   UNL     1     -43.108  59.308 -53.437  1.00  0.00     0.024 A 
HETATM   22  C   UNL     1     -43.906  58.569 -52.566  1.00  0.00     0.002 A 
HETATM   23  C   UNL     1     -44.555  57.424 -53.024  1.00  0.00     0.001 A 
HETATM   24  C   UNL     1     -44.402  57.014 -54.350  1.00  0.00     0.013 A 
ENDBRANCH  17  18
ENDBRANCH  12  15
ENDBRANCH   1  11
BRANCH   8  25
HETATM   25  C   UNL     1     -41.796  54.392 -49.867  1.00  0.00     0.270 C 
HETATM   26  N   UNL     1     -41.081  54.899 -48.816  1.00  0.00    -0.365 N 
HETATM   27  H   UNL     1     -40.115  54.614 -48.704  1.00  0.00     0.159 HD
HETATM   28  H   UNL     1     -41.516  55.545 -48.177  1.00  0.00     0.159 HD
HETATM   29  O   UNL     1     -42.968  54.705 -50.053  1.00  0.00    -0.266 OA
ENDBRANCH   8  25
TORSDOF 4
ENDMDL
MODEL 10
REMARK VINA RESULT:      -7.9      3.507      7.662
REMARK  4 active torsions:
REMARK  status: ('A' for Active; 'I' for Inactive)
REMARK    1  A    between atoms: C_2  and  C_3 
REMARK       I    between atoms: C_3  and  N_4 
REMARK    2  A    between atoms: N_4  and  C_5 
REMARK    3  A    between atoms: C_12  and  C_13 
REMARK       I    between atoms: C_13  and  N_14 
REMARK    4  A    between atoms: C_19  and  C_20 
ROOT
HETATM    1  C   UNL     1     -41.137  55.144 -54.285  1.00  0.00     0.036 A 
HETATM    2  C   UNL     1     -41.168  55.012 -52.884  1.00  0.00     0.046 A 
HETATM    3  C   UNL     1     -40.714  53.823 -52.279  1.00  0.00     0.030 A 
HETATM    4  C   UNL     1     -40.242  52.800 -53.087  1.00  0.00     0.063 A 
HETATM    5  N   UNL     1     -39.882  51.797 -52.231  1.00  0.00    -0.277 N 
HETATM    6  H   UNL     1     -39.495  50.892 -52.474  1.00  0.00     0.189 HD
HETATM    7  N   UNL     1     -40.080  52.078 -50.931  1.00  0.00    -0.168 NA
HETATM    8  C   UNL     1     -40.594  53.330 -50.946  1.00  0.00     0.156 A 
HETATM    9  C   UNL     1     -40.194  52.894 -54.480  1.00  0.00     0.034 A 
HETATM   10  C   UNL     1     -40.652  54.088 -55.059  1.00  0.00     0.032 A 
ENDROOT
BRANCH   1  11
HETATM   11  N   UNL     1     -41.629  56.361 -54.812  1.00  0.00    -0.323 N 
HETATM   12  C   UNL     1     -42.947  56.716 -55.039  1.00  0.00     0.251 C 
HETATM   13  O   UNL     1     -43.905  55.972 -54.865  1.00  0.00    -0.268 OA
HETATM   14  H   UNL     1     -40.911  57.027 -55.046  1.00  0.00     0.169 HD
BRANCH  12  15
HETATM   15  C   UNL     1     -43.138  58.141 -55.524  1.00  0.00     0.007 C 
HETATM   16  C   UNL     1     -42.985  59.274 -54.541  1.00  0.00     0.054 C 
HETATM   17  C   UNL     1     -43.448  58.451 -56.803  1.00  0.00     0.025 C 
BRANCH  17  18
HETATM   18  C   UNL     1     -43.661  57.575 -57.967  1.00  0.00    -0.014 A 
HETATM   19  C   UNL     1     -44.945  57.329 -58.484  1.00  0.00     0.044 A 
HETATM   20 CL   UNL     1     -46.354  58.094 -57.830  1.00  0.00    -0.083 Cl
HETATM   21  C   UNL     1     -45.125  56.437 -59.547  1.00  0.00     0.024 A 
HETATM   22  C   UNL     1     -44.029  55.780 -60.103  1.00  0.00     0.002 A 
HETATM   23  C   UNL     1     -42.753  56.011 -59.595  1.00  0.00     0.001 A 
HETATM   24  C   UNL     1     -42.571  56.894 -58.528  1.00  0.00     0.013 A 
ENDBRANCH  17  18
ENDBRANCH  12  15
ENDBRANCH   1  11
BRANCH   8  25
HETATM   25  C   UNL     1     -40.960  54.026 -49.706  1.00  0.00     0.270 C 
HETATM   26  N   UNL     1     -39.920  54.202 -48.834  1.00  0.00    -0.365 N 
HETATM   27  H   UNL     1     -39.005  53.854 -49.096  1.00  0.00     0.159 HD
HETATM   28  H   UNL     1     -40.073  54.672 -47.957  1.00  0.00     0.159 HD
HETATM   29  O   UNL     1     -42.089  54.428 -49.444  1.00  0.00    -0.266 OA
ENDBRANCH   8  25
TORSDOF 4
ENDMDL
