MODEL 1
REMARK VINA RESULT:      -7.5      0.000      0.000
REMARK  3 active torsions:
REMARK  status: ('A' for Active; 'I' for Inactive)
REMARK    1  A    between atoms: C_7  and  C_8 
REMARK       I    between atoms: C_8  and  N_9 
REMARK    2  A    between atoms: N_9  and  C_10 
REMARK    3  A    between atoms: C_13  and  C_14 
REMARK       I    between atoms: C_14  and  N_15 
ROOT
HETATM    1  C   UNL     1     -42.384  54.528 -54.747  1.00  0.00     0.256 C 
HETATM    2  N   UNL     1     -41.797  55.147 -55.837  1.00  0.00    -0.322 N 
HETATM    3  O   UNL     1     -43.553  54.659 -54.403  1.00  0.00    -0.267 OA
HETATM    4  H   UNL     1     -40.801  55.045 -55.965  1.00  0.00     0.169 HD
ENDROOT
BRANCH   2   5
HETATM    5  C   UNL     1     -42.453  55.954 -56.795  1.00  0.00     0.052 A 
HETATM    6  C   UNL     1     -42.546  57.345 -56.749  1.00  0.00     0.147 A 
HETATM    7  N   UNL     1     -43.198  58.100 -57.671  1.00  0.00    -0.253 NA
HETATM    8  C   UNL     1     -43.793  57.429 -58.693  1.00  0.00     0.124 A 
HETATM    9  C   UNL     1     -43.758  56.049 -58.832  1.00  0.00     0.039 A 
HETATM   10  C   UNL     1     -43.075  55.307 -57.868  1.00  0.00     0.033 A 
BRANCH   8  11
HETATM   11  C   UNL     1     -44.521  58.261 -59.702  1.00  0.00     0.268 C 
HETATM   12  N   UNL     1     -45.121  57.560 -60.712  1.00  0.00    -0.365 N 
HETATM   13  H   UNL     1     -45.041  56.549 -60.729  1.00  0.00     0.159 HD
HETATM   14  H   UNL     1     -45.629  58.050 -61.434  1.00  0.00     0.159 HD
HETATM   15  O   UNL     1     -44.581  59.482 -59.632  1.00  0.00    -0.266 OA
ENDBRANCH   8  11
ENDBRANCH   2   5
BRANCH   1  16
HETATM   16  C   UNL     1     -41.499  53.645 -53.924  1.00  0.00     0.034 A 
HETATM   17  C   UNL     1     -41.051  53.997 -52.647  1.00  0.00     0.041 A 
HETATM   18  C   UNL     1     -40.215  53.128 -51.944  1.00  0.00     0.035 A 
HETATM   19  C   UNL     1     -39.801  51.920 -52.505  1.00  0.00     0.030 A 
HETATM   20 CL   UNL     1     -39.681  53.559 -50.366  1.00  0.00    -0.084 Cl
HETATM   21  C   UNL     1     -40.210  51.571 -53.795  1.00  0.00    -0.059 A 
HETATM   22  C   UNL     1     -39.774  50.277 -54.418  1.00  0.00     0.048 C 
HETATM   23  C   UNL     1     -41.071  52.432 -54.491  1.00  0.00     0.024 A 
ENDBRANCH   1  16
TORSDOF 3
ENDMDL
MODEL 2
REMARK VINA RESULT:      -7.5      1.279      1.994
REMARK  3 active torsions:
REMARK  status: ('A' for Active; 'I' for Inactive)
REMARK    1  A    between atoms: C_7  and  C_8 
REMARK       I    between atoms: C_8  and  N_9 
REMARK    2  A    between atoms: N_9  and  C_10 
REMARK    3  A    between atoms: C_13  and  C_14 
REMARK       I    between atoms: C_14  and  N_15 
ROOT
HETATM    1  C   UNL     1     -42.341  54.511 -54.715  1.00  0.00     0.256 C 
HETATM    2  N   UNL     1     -41.796  55.181 -55.796  1.00  0.00    -0.322 N 
HETATM    3  O   UNL     1     -43.495  54.629 -54.318  1.00  0.00    -0.267 OA
HETATM    4  H   UNL     1     -40.806  55.083 -55.969  1.00  0.00     0.169 HD
ENDROOT
BRANCH   2   5
HETATM    5  C   UNL     1     -42.486  56.037 -56.685  1.00  0.00     0.052 A 
HETATM    6  C   UNL     1     -42.647  57.412 -56.519  1.00  0.00     0.147 A 
HETATM    7  N   UNL     1     -43.331  58.214 -57.377  1.00  0.00    -0.253 NA
HETATM    8  C   UNL     1     -43.887  57.607 -58.459  1.00  0.00     0.124 A 
HETATM    9  C   UNL     1     -43.784  56.247 -58.718  1.00  0.00     0.039 A 
HETATM   10  C   UNL     1     -43.070  55.457 -57.817  1.00  0.00     0.033 A 
BRANCH   8  11
HETATM   11  C   UNL     1     -44.650  58.489 -59.397  1.00  0.00     0.268 C 
HETATM   12  N   UNL     1     -44.696  58.058 -60.696  1.00  0.00    -0.365 N 
HETATM   13  H   UNL     1     -44.223  57.197 -60.949  1.00  0.00     0.159 HD
HETATM   14  H   UNL     1     -45.188  58.600 -61.390  1.00  0.00     0.159 HD
HETATM   15  O   UNL     1     -45.199  59.522 -59.035  1.00  0.00    -0.266 OA
ENDBRANCH   8  11
ENDBRANCH   2   5
BRANCH   1  16
HETATM   16  C   UNL     1     -41.428  53.585 -53.974  1.00  0.00     0.034 A 
HETATM   17  C   UNL     1     -40.977  52.374 -54.509  1.00  0.00     0.041 A 
HETATM   18  C   UNL     1     -40.139  51.554 -53.751  1.00  0.00     0.035 A 
HETATM   19  C   UNL     1     -39.761  51.913 -52.457  1.00  0.00     0.030 A 
HETATM   20 CL   UNL     1     -39.572  50.074 -54.422  1.00  0.00    -0.084 Cl
HETATM   21  C   UNL     1     -40.235  53.102 -51.895  1.00  0.00    -0.059 A 
HETATM   22  C   UNL     1     -39.843  53.504 -50.503  1.00  0.00     0.048 C 
HETATM   23  C   UNL     1     -41.055  53.939 -52.665  1.00  0.00     0.024 A 
ENDBRANCH   1  16
TORSDOF 3
ENDMDL
MODEL 3
REMARK VINA RESULT:      -7.0      1.816      2.506
REMARK  3 active torsions:
REMARK  status: ('A' for Active; 'I' for Inactive)
REMARK    1  A    between atoms: C_7  and  C_8 
REMARK       I    between atoms: C_8  and  N_9 
REMARK    2  A    between atoms: N_9  and  C_10 
REMARK    3  A    between atoms: C_13  and  C_14 
REMARK       I    between atoms: C_14  and  N_15 
ROOT
HETATM    1  C   UNL     1     -41.174  54.893 -54.602  1.00  0.00     0.256 C 
HETATM    2  N   UNL     1     -42.264  54.677 -55.428  1.00  0.00    -0.322 N 
HETATM    3  O   UNL     1     -40.583  55.959 -54.475  1.00  0.00    -0.267 OA
HETATM    4  H   UNL     1     -42.607  53.733 -55.528  1.00  0.00     0.169 HD
ENDROOT
BRANCH   2   5
HETATM    5  C   UNL     1     -42.942  55.655 -56.191  1.00  0.00     0.052 A 
HETATM    6  C   UNL     1     -43.014  55.684 -57.583  1.00  0.00     0.147 A 
HETATM    7  N   UNL     1     -43.657  56.644 -58.298  1.00  0.00    -0.253 NA
HETATM    8  C   UNL     1     -44.259  57.631 -57.582  1.00  0.00     0.124 A 
HETATM    9  C   UNL     1     -44.248  57.694 -56.196  1.00  0.00     0.039 A 
HETATM   10  C   UNL     1     -43.582  56.687 -55.496  1.00  0.00     0.033 A 
BRANCH   8  11
HETATM   11  C   UNL     1     -44.956  58.695 -58.371  1.00  0.00     0.268 C 
HETATM   12  N   UNL     1     -45.646  58.251 -59.466  1.00  0.00    -0.365 N 
HETATM   13  H   UNL     1     -45.646  57.260 -59.683  1.00  0.00     0.159 HD
HETATM   14  H   UNL     1     -46.139  58.907 -60.052  1.00  0.00     0.159 HD
HETATM   15  O   UNL     1     -44.917  59.879 -58.063  1.00  0.00    -0.266 OA
ENDBRANCH   8  11
ENDBRANCH   2   5
BRANCH   1  16
HETATM   16  C   UNL     1     -40.684  53.715 -53.821  1.00  0.00     0.034 A 
HETATM   17  C   UNL     1     -40.287  52.516 -54.423  1.00  0.00     0.041 A 
HETATM   18  C   UNL     1     -39.855  51.454 -53.627  1.00  0.00     0.035 A 
HETATM   19  C   UNL     1     -39.832  51.560 -52.237  1.00  0.00     0.030 A 
HETATM   20 CL   UNL     1     -39.350  49.988 -54.375  1.00  0.00    -0.084 Cl
HETATM   21  C   UNL     1     -40.262  52.738 -51.619  1.00  0.00    -0.059 A 
HETATM   22  C   UNL     1     -40.249  52.872 -50.124  1.00  0.00     0.048 C 
HETATM   23  C   UNL     1     -40.671  53.815 -52.418  1.00  0.00     0.024 A 
ENDBRANCH   1  16
TORSDOF 3
ENDMDL
MODEL 4
REMARK VINA RESULT:      -6.8      3.554      8.022
REMARK  3 active torsions:
REMARK  status: ('A' for Active; 'I' for Inactive)
REMARK    1  A    between atoms: C_7  and  C_8 
REMARK       I    between atoms: C_8  and  N_9 
REMARK    2  A    between atoms: N_9  and  C_10 
REMARK    3  A    between atoms: C_13  and  C_14 
REMARK       I    between atoms: C_14  and  N_15 
ROOT
HETATM    1  C   UNL     1     -42.395  56.085 -56.335  1.00  0.00     0.256 C 
HETATM    2  N   UNL     1     -42.343  54.743 -55.998  1.00  0.00    -0.322 N 
HETATM    3  O   UNL     1     -42.120  57.014 -55.584  1.00  0.00    -0.267 OA
HETATM    4  H   UNL     1     -42.690  54.070 -56.666  1.00  0.00     0.169 HD
ENDROOT
BRANCH   2   5
HETATM    5  C   UNL     1     -41.878  54.205 -54.776  1.00  0.00     0.052 A 
HETATM    6  C   UNL     1     -42.550  54.277 -53.556  1.00  0.00     0.147 A 
HETATM    7  N   UNL     1     -42.077  53.768 -52.389  1.00  0.00    -0.253 NA
HETATM    8  C   UNL     1     -40.863  53.157 -52.443  1.00  0.00     0.124 A 
HETATM    9  C   UNL     1     -40.115  53.031 -53.605  1.00  0.00     0.039 A 
HETATM   10  C   UNL     1     -40.636  53.561 -54.785  1.00  0.00     0.033 A 
BRANCH   8  11
HETATM   11  C   UNL     1     -40.337  52.607 -51.154  1.00  0.00     0.268 C 
HETATM   12  N   UNL     1     -39.741  51.379 -51.243  1.00  0.00    -0.365 N 
HETATM   13  H   UNL     1     -39.692  50.916 -52.145  1.00  0.00     0.159 HD
HETATM   14  H   UNL     1     -39.364  50.939 -50.417  1.00  0.00     0.159 HD
HETATM   15  O   UNL     1     -40.428  53.210 -50.092  1.00  0.00    -0.266 OA
ENDBRANCH   8  11
ENDBRANCH   2   5
BRANCH   1  16
HETATM   16  C   UNL     1     -42.840  56.407 -57.727  1.00  0.00     0.034 A 
HETATM   17  C   UNL     1     -43.556  55.507 -58.523  1.00  0.00     0.041 A 
HETATM   18  C   UNL     1     -43.924  55.874 -59.819  1.00  0.00     0.035 A 
HETATM   19  C   UNL     1     -43.569  57.117 -60.342  1.00  0.00     0.030 A 
HETATM   20 CL   UNL     1     -44.821  54.769 -60.787  1.00  0.00    -0.084 Cl
HETATM   21  C   UNL     1     -42.821  58.012 -59.572  1.00  0.00    -0.059 A 
HETATM   22  C   UNL     1     -42.427  59.354 -60.117  1.00  0.00     0.048 C 
HETATM   23  C   UNL     1     -42.474  57.656 -58.261  1.00  0.00     0.024 A 
ENDBRANCH   1  16
TORSDOF 3
ENDMDL
MODEL 5
REMARK VINA RESULT:      -6.8      3.620      7.875
REMARK  3 active torsions:
REMARK  status: ('A' for Active; 'I' for Inactive)
REMARK    1  A    between atoms: C_7  and  C_8 
REMARK       I    between atoms: C_8  and  N_9 
REMARK    2  A    between atoms: N_9  and  C_10 
REMARK    3  A    between atoms: C_13  and  C_14 
REMARK       I    between atoms: C_14  and  N_15 
ROOT
HETATM    1  C   UNL     1     -42.358  56.111 -56.301  1.00  0.00     0.256 C 
HETATM    2  N   UNL     1     -42.343  54.775 -55.941  1.00  0.00    -0.322 N 
HETATM    3  O   UNL     1     -42.079  57.047 -55.559  1.00  0.00    -0.267 OA
HETATM    4  H   UNL     1     -42.690  54.098 -56.605  1.00  0.00     0.169 HD
ENDROOT
BRANCH   2   5
HETATM    5  C   UNL     1     -41.914  54.247 -54.701  1.00  0.00     0.052 A 
HETATM    6  C   UNL     1     -42.602  54.366 -53.494  1.00  0.00     0.147 A 
HETATM    7  N   UNL     1     -42.164  53.866 -52.309  1.00  0.00    -0.253 NA
HETATM    8  C   UNL     1     -40.970  53.215 -52.331  1.00  0.00     0.124 A 
HETATM    9  C   UNL     1     -40.209  53.040 -53.478  1.00  0.00     0.039 A 
HETATM   10  C   UNL     1     -40.694  53.563 -54.677  1.00  0.00     0.033 A 
BRANCH   8  11
HETATM   11  C   UNL     1     -40.482  52.675 -51.023  1.00  0.00     0.268 C 
HETATM   12  N   UNL     1     -40.698  53.485 -49.941  1.00  0.00    -0.365 N 
HETATM   13  H   UNL     1     -41.158  54.380 -50.076  1.00  0.00     0.159 HD
HETATM   14  H   UNL     1     -40.395  53.194 -49.025  1.00  0.00     0.159 HD
HETATM   15  O   UNL     1     -39.929  51.588 -50.921  1.00  0.00    -0.266 OA
ENDBRANCH   8  11
ENDBRANCH   2   5
BRANCH   1  16
HETATM   16  C   UNL     1     -42.767  56.420 -57.707  1.00  0.00     0.034 A 
HETATM   17  C   UNL     1     -42.450  57.625 -58.342  1.00  0.00     0.041 A 
HETATM   18  C   UNL     1     -42.880  57.849 -59.651  1.00  0.00     0.035 A 
HETATM   19  C   UNL     1     -43.641  56.898 -60.330  1.00  0.00     0.030 A 
HETATM   20 CL   UNL     1     -42.471  59.326 -60.434  1.00  0.00    -0.084 Cl
HETATM   21  C   UNL     1     -43.998  55.705 -59.695  1.00  0.00    -0.059 A 
HETATM   22  C   UNL     1     -44.819  54.669 -60.407  1.00  0.00     0.048 C 
HETATM   23  C   UNL     1     -43.544  55.468 -58.389  1.00  0.00     0.024 A 
ENDBRANCH   1  16
TORSDOF 3
ENDMDL
MODEL 6
REMARK VINA RESULT:      -6.6      4.282      7.774
REMARK  3 active torsions:
REMARK  status: ('A' for Active; 'I' for Inactive)
REMARK    1  A    between atoms: C_7  and  C_8 
REMARK       I    between atoms: C_8  and  N_9 
REMARK    2  A    between atoms: N_9  and  C_10 
REMARK    3  A    between atoms: C_13  and  C_14 
REMARK       I    between atoms: C_14  and  N_15 
ROOT
HETATM    1  C   UNL     1     -42.272  55.910 -53.164  1.00  0.00     0.256 C 
HETATM    2  N   UNL     1     -41.001  55.372 -53.065  1.00  0.00    -0.322 N 
HETATM    3  O   UNL     1     -43.284  55.284 -53.461  1.00  0.00    -0.267 OA
HETATM    4  H   UNL     1     -40.226  56.002 -52.914  1.00  0.00     0.169 HD
ENDROOT
BRANCH   2   5
HETATM    5  C   UNL     1     -40.658  54.006 -53.191  1.00  0.00     0.052 A 
HETATM    6  C   UNL     1     -40.698  53.271 -54.375  1.00  0.00     0.147 A 
HETATM    7  N   UNL     1     -40.381  51.953 -54.470  1.00  0.00    -0.253 NA
HETATM    8  C   UNL     1     -40.007  51.335 -53.318  1.00  0.00     0.124 A 
HETATM    9  C   UNL     1     -39.932  51.976 -52.090  1.00  0.00     0.039 A 
HETATM   10  C   UNL     1     -40.260  53.331 -52.032  1.00  0.00     0.033 A 
BRANCH   8  11
HETATM   11  C   UNL     1     -39.670  49.881 -53.421  1.00  0.00     0.268 C 
HETATM   12  N   UNL     1     -39.503  49.234 -52.227  1.00  0.00    -0.365 N 
HETATM   13  H   UNL     1     -39.608  49.755 -51.363  1.00  0.00     0.159 HD
HETATM   14  H   UNL     1     -39.271  48.253 -52.213  1.00  0.00     0.159 HD
HETATM   15  O   UNL     1     -39.552  49.304 -54.495  1.00  0.00    -0.266 OA
ENDBRANCH   8  11
ENDBRANCH   2   5
BRANCH   1  16
HETATM   16  C   UNL     1     -42.400  57.377 -52.901  1.00  0.00     0.034 A 
HETATM   17  C   UNL     1     -41.793  58.008 -51.810  1.00  0.00     0.041 A 
HETATM   18  C   UNL     1     -41.970  59.380 -51.620  1.00  0.00     0.035 A 
HETATM   19  C   UNL     1     -42.761  60.130 -52.490  1.00  0.00     0.030 A 
HETATM   20 CL   UNL     1     -41.205  60.154 -50.286  1.00  0.00    -0.084 Cl
HETATM   21  C   UNL     1     -43.404  59.506 -53.563  1.00  0.00    -0.059 A 
HETATM   22  C   UNL     1     -44.263  60.294 -54.509  1.00  0.00     0.048 C 
HETATM   23  C   UNL     1     -43.206  58.133 -53.770  1.00  0.00     0.024 A 
ENDBRANCH   1  16
TORSDOF 3
ENDMDL
MODEL 7
REMARK VINA RESULT:      -6.6      5.331      6.410
REMARK  3 active torsions:
REMARK  status: ('A' for Active; 'I' for Inactive)
REMARK    1  A    between atoms: C_7  and  C_8 
REMARK       I    between atoms: C_8  and  N_9 
REMARK    2  A    between atoms: N_9  and  C_10 
REMARK    3  A    between atoms: C_13  and  C_14 
REMARK       I    between atoms: C_14  and  N_15 
ROOT
HETATM    1  C   UNL     1     -41.932  56.268 -51.098  1.00  0.00     0.256 C 
HETATM    2  N   UNL     1     -42.799  57.027 -51.864  1.00  0.00    -0.322 N 
HETATM    3  O   UNL     1     -41.628  56.500 -49.934  1.00  0.00    -0.267 OA
HETATM    4  H   UNL     1     -42.896  56.799 -52.843  1.00  0.00     0.169 HD
ENDROOT
BRANCH   2   5
HETATM    5  C   UNL     1     -43.555  58.136 -51.421  1.00  0.00     0.052 A 
HETATM    6  C   UNL     1     -43.053  59.418 -51.201  1.00  0.00     0.147 A 
HETATM    7  N   UNL     1     -43.795  60.466 -50.756  1.00  0.00    -0.253 NA
HETATM    8  C   UNL     1     -45.110  60.218 -50.515  1.00  0.00     0.124 A 
HETATM    9  C   UNL     1     -45.708  58.981 -50.703  1.00  0.00     0.039 A 
HETATM   10  C   UNL     1     -44.915  57.930 -51.166  1.00  0.00     0.033 A 
BRANCH   8  11
HETATM   11  C   UNL     1     -45.923  61.371 -50.014  1.00  0.00     0.268 C 
HETATM   12  N   UNL     1     -46.189  62.343 -50.939  1.00  0.00    -0.365 N 
HETATM   13  H   UNL     1     -45.830  62.241 -51.883  1.00  0.00     0.159 HD
HETATM   14  H   UNL     1     -46.728  63.155 -50.677  1.00  0.00     0.159 HD
HETATM   15  O   UNL     1     -46.326  61.443 -48.860  1.00  0.00    -0.266 OA
ENDBRANCH   8  11
ENDBRANCH   2   5
BRANCH   1  16
HETATM   16  C   UNL     1     -41.313  55.081 -51.768  1.00  0.00     0.034 A 
HETATM   17  C   UNL     1     -41.076  55.024 -53.145  1.00  0.00     0.041 A 
HETATM   18  C   UNL     1     -40.509  53.876 -53.701  1.00  0.00     0.035 A 
HETATM   19  C   UNL     1     -40.192  52.774 -52.907  1.00  0.00     0.030 A 
HETATM   20 CL   UNL     1     -40.204  53.819 -55.394  1.00  0.00    -0.084 Cl
HETATM   21  C   UNL     1     -40.457  52.802 -51.535  1.00  0.00    -0.059 A 
HETATM   22  C   UNL     1     -40.128  51.626 -50.663  1.00  0.00     0.048 C 
HETATM   23  C   UNL     1     -41.003  53.964 -50.971  1.00  0.00     0.024 A 
ENDBRANCH   1  16
TORSDOF 3
ENDMDL
MODEL 8
REMARK VINA RESULT:      -6.6      3.642      4.243
REMARK  3 active torsions:
REMARK  status: ('A' for Active; 'I' for Inactive)
REMARK    1  A    between atoms: C_7  and  C_8 
REMARK       I    between atoms: C_8  and  N_9 
REMARK    2  A    between atoms: N_9  and  C_10 
REMARK    3  A    between atoms: C_13  and  C_14 
REMARK       I    between atoms: C_14  and  N_15 
ROOT
HETATM    1  C   UNL     1     -41.143  54.531 -53.331  1.00  0.00     0.256 C 
HETATM    2  N   UNL     1     -42.460  54.790 -52.995  1.00  0.00    -0.322 N 
HETATM    3  O   UNL     1     -40.391  55.313 -53.902  1.00  0.00    -0.267 OA
HETATM    4  H   UNL     1     -43.014  54.034 -52.618  1.00  0.00     0.169 HD
ENDROOT
BRANCH   2   5
HETATM    5  C   UNL     1     -43.139  56.018 -53.159  1.00  0.00     0.052 A 
HETATM    6  C   UNL     1     -43.080  57.096 -52.276  1.00  0.00     0.147 A 
HETATM    7  N   UNL     1     -43.756  58.263 -52.443  1.00  0.00    -0.253 NA
HETATM    8  C   UNL     1     -44.537  58.356 -53.553  1.00  0.00     0.124 A 
HETATM    9  C   UNL     1     -44.664  57.344 -54.493  1.00  0.00     0.039 A 
HETATM   10  C   UNL     1     -43.950  56.162 -54.290  1.00  0.00     0.033 A 
BRANCH   8  11
HETATM   11  C   UNL     1     -45.291  59.637 -53.730  1.00  0.00     0.268 C 
HETATM   12  N   UNL     1     -45.703  59.899 -55.008  1.00  0.00    -0.365 N 
HETATM   13  H   UNL     1     -45.481  59.239 -55.746  1.00  0.00     0.159 HD
HETATM   14  H   UNL     1     -46.215  60.745 -55.210  1.00  0.00     0.159 HD
HETATM   15  O   UNL     1     -45.528  60.399 -52.801  1.00  0.00    -0.266 OA
ENDBRANCH   8  11
ENDBRANCH   2   5
BRANCH   1  16
HETATM   16  C   UNL     1     -40.616  53.176 -52.975  1.00  0.00     0.034 A 
HETATM   17  C   UNL     1     -40.182  52.254 -53.934  1.00  0.00     0.041 A 
HETATM   18  C   UNL     1     -39.717  51.002 -53.527  1.00  0.00     0.035 A 
HETATM   19  C   UNL     1     -39.698  50.647 -52.179  1.00  0.00     0.030 A 
HETATM   20 CL   UNL     1     -39.168  49.879 -54.710  1.00  0.00    -0.084 Cl
HETATM   21  C   UNL     1     -40.163  51.543 -51.212  1.00  0.00    -0.059 A 
HETATM   22  C   UNL     1     -40.154  51.178 -49.756  1.00  0.00     0.048 C 
HETATM   23  C   UNL     1     -40.606  52.810 -51.617  1.00  0.00     0.024 A 
ENDBRANCH   1  16
TORSDOF 3
ENDMDL
MODEL 9
REMARK VINA RESULT:      -6.6     14.975     15.777
REMARK  3 active torsions:
REMARK  status: ('A' for Active; 'I' for Inactive)
REMARK    1  A    between atoms: C_7  and  C_8 
REMARK       I    between atoms: C_8  and  N_9 
REMARK    2  A    between atoms: N_9  and  C_10 
REMARK    3  A    between atoms: C_13  and  C_14 
REMARK       I    between atoms: C_14  and  N_15 
ROOT
HETATM    1  C   UNL     1     -35.755  41.404 -53.254  1.00  0.00     0.256 C 
HETATM    2  N   UNL     1     -35.686  40.577 -54.361  1.00  0.00    -0.322 N 
HETATM    3  O   UNL     1     -36.106  42.579 -53.269  1.00  0.00    -0.267 OA
HETATM    4  H   UNL     1     -35.286  39.657 -54.245  1.00  0.00     0.169 HD
ENDROOT
BRANCH   2   5
HETATM    5  C   UNL     1     -36.093  40.902 -55.675  1.00  0.00     0.052 A 
HETATM    6  C   UNL     1     -37.280  40.485 -56.278  1.00  0.00     0.147 A 
HETATM    7  N   UNL     1     -37.644  40.794 -57.550  1.00  0.00    -0.253 NA
HETATM    8  C   UNL     1     -36.772  41.559 -58.260  1.00  0.00     0.124 A 
HETATM    9  C   UNL     1     -35.567  42.025 -57.754  1.00  0.00     0.039 A 
HETATM   10  C   UNL     1     -35.230  41.692 -56.442  1.00  0.00     0.033 A 
BRANCH   8  11
HETATM   11  C   UNL     1     -37.168  41.888 -59.666  1.00  0.00     0.268 C 
HETATM   12  N   UNL     1     -37.334  40.810 -60.492  1.00  0.00    -0.365 N 
HETATM   13  H   UNL     1     -37.182  39.876 -60.126  1.00  0.00     0.159 HD
HETATM   14  H   UNL     1     -37.598  40.949 -61.456  1.00  0.00     0.159 HD
HETATM   15  O   UNL     1     -37.334  43.037 -60.054  1.00  0.00    -0.266 OA
ENDBRANCH   8  11
ENDBRANCH   2   5
BRANCH   1  16
HETATM   16  C   UNL     1     -35.351  40.804 -51.944  1.00  0.00     0.034 A 
HETATM   17  C   UNL     1     -34.016  40.692 -51.540  1.00  0.00     0.041 A 
HETATM   18  C   UNL     1     -33.714  40.106 -50.310  1.00  0.00     0.035 A 
HETATM   19  C   UNL     1     -34.722  39.609 -49.484  1.00  0.00     0.030 A 
HETATM   20 CL   UNL     1     -32.071  39.988 -49.810  1.00  0.00    -0.084 Cl
HETATM   21  C   UNL     1     -36.058  39.679 -49.891  1.00  0.00    -0.059 A 
HETATM   22  C   UNL     1     -37.157  39.147 -49.019  1.00  0.00     0.048 C 
HETATM   23  C   UNL     1     -36.364  40.291 -51.115  1.00  0.00     0.024 A 
ENDBRANCH   1  16
TORSDOF 3
ENDMDL
MODEL 10
REMARK VINA RESULT:      -6.5     14.905     15.735
REMARK  3 active torsions:
REMARK  status: ('A' for Active; 'I' for Inactive)
REMARK    1  A    between atoms: C_7  and  C_8 
REMARK       I    between atoms: C_8  and  N_9 
REMARK    2  A    between atoms: N_9  and  C_10 
REMARK    3  A    between atoms: C_13  and  C_14 
REMARK       I    between atoms: C_14  and  N_15 
ROOT
HETATM    1  C   UNL     1     -35.932  41.343 -53.263  1.00  0.00     0.256 C 
HETATM    2  N   UNL     1     -35.900  40.511 -54.368  1.00  0.00    -0.322 N 
HETATM    3  O   UNL     1     -36.201  42.539 -53.285  1.00  0.00    -0.267 OA
HETATM    4  H   UNL     1     -35.566  39.566 -54.244  1.00  0.00     0.169 HD
ENDROOT
BRANCH   2   5
HETATM    5  C   UNL     1     -36.260  40.861 -55.689  1.00  0.00     0.052 A 
HETATM    6  C   UNL     1     -37.470  40.543 -56.305  1.00  0.00     0.147 A 
HETATM    7  N   UNL     1     -37.790  40.873 -57.584  1.00  0.00    -0.253 NA
HETATM    8  C   UNL     1     -36.847  41.556 -58.287  1.00  0.00     0.124 A 
HETATM    9  C   UNL     1     -35.614  41.922 -57.767  1.00  0.00     0.039 A 
HETATM   10  C   UNL     1     -35.323  41.569 -56.449  1.00  0.00     0.033 A 
BRANCH   8  11
HETATM   11  C   UNL     1     -37.195  41.908 -59.699  1.00  0.00     0.268 C 
HETATM   12  N   UNL     1     -37.343  40.844 -60.547  1.00  0.00    -0.365 N 
HETATM   13  H   UNL     1     -37.209  39.904 -60.189  1.00  0.00     0.159 HD
HETATM   14  H   UNL     1     -37.574  40.999 -61.516  1.00  0.00     0.159 HD
HETATM   15  O   UNL     1     -37.340  43.064 -60.076  1.00  0.00    -0.266 OA
ENDBRANCH   8  11
ENDBRANCH   2   5
BRANCH   1  16
HETATM   16  C   UNL     1     -35.593  40.718 -51.945  1.00  0.00     0.034 A 
HETATM   17  C   UNL     1     -36.564  40.249 -51.055  1.00  0.00     0.041 A 
HETATM   18  C   UNL     1     -36.172  39.692 -49.836  1.00  0.00     0.035 A 
HETATM   19  C   UNL     1     -34.825  39.615 -49.482  1.00  0.00     0.030 A 
HETATM   20 CL   UNL     1     -37.371  39.099 -48.753  1.00  0.00    -0.084 Cl
HETATM   21  C   UNL     1     -33.845  40.114 -50.345  1.00  0.00    -0.059 A 
HETATM   22  C   UNL     1     -32.391  40.044 -49.982  1.00  0.00     0.048 C 
HETATM   23  C   UNL     1     -34.236  40.650 -51.581  1.00  0.00     0.024 A 
ENDBRANCH   1  16
TORSDOF 3
ENDMDL
