MODEL 1
REMARK VINA RESULT:      -8.1      0.000      0.000
REMARK  10 active torsions:
REMARK  status: ('A' for Active; 'I' for Inactive)
REMARK    1  A    between atoms: C_2  and  C_3 
REMARK    2  A    between atoms: C_4  and  O_5 
REMARK    3  A    between atoms: C_6  and  C_7 
REMARK    4  A    between atoms: C_12  and  C_13 
REMARK    5  A    between atoms: N_14  and  N_15 
REMARK       I    between atoms: N_15  and  C_16 
REMARK    6  A    between atoms: C_16  and  C_17 
REMARK    7  A    between atoms: N_20  and  C_21 
REMARK    8  A    between atoms: C_25  and  N_26 
REMARK    9  A    between atoms: C_27  and  C_28 
REMARK   10  A    between atoms: C_28  and  N_29 
ROOT
HETATM    1  N   UNL     1     -42.698  56.512 -56.486  1.00  0.00    -0.145 NA
HETATM    2  C   UNL     1     -43.240  57.776 -56.291  1.00  0.00     0.273 C 
HETATM    3  O   UNL     1     -44.114  58.205 -57.049  1.00  0.00    -0.270 OA
HETATM    4  H   UNL     1     -43.206  56.046 -57.237  1.00  0.00     0.158 HD
ENDROOT
BRANCH   1   5
HETATM    5  N   UNL     1     -42.548  55.672 -55.409  1.00  0.00    -0.205 NA
HETATM    6  C   UNL     1     -41.330  55.256 -55.242  1.00  0.00     0.144 C 
BRANCH   6   7
HETATM    7  C   UNL     1     -40.954  54.338 -54.150  1.00  0.00    -0.016 A 
HETATM    8  C   UNL     1     -40.663  53.000 -54.411  1.00  0.00     0.023 A 
HETATM    9  C   UNL     1     -40.284  52.127 -53.378  1.00  0.00    -0.016 A 
HETATM   10  C   UNL     1     -40.254  52.665 -52.063  1.00  0.00     0.079 A 
HETATM   11  C   UNL     1     -40.587  54.011 -51.754  1.00  0.00    -0.016 A 
HETATM   12  C   UNL     1     -40.901  54.839 -52.847  1.00  0.00     0.023 A 
BRANCH   9  13
HETATM   13  C   UNL     1     -39.909  50.654 -53.685  1.00  0.00    -0.021 C 
HETATM   14  C   UNL     1     -38.563  50.591 -54.439  1.00  0.00     0.019 C 
HETATM   15  C   UNL     1     -39.735  49.779 -52.414  1.00  0.00     0.019 C 
HETATM   16  C   UNL     1     -41.014  49.965 -54.518  1.00  0.00     0.019 C 
ENDBRANCH   9  13
BRANCH  10  17
HETATM   17  O   UNL     1     -39.888  51.804 -51.065  1.00  0.00    -0.360 OA
HETATM   18  H   UNL     1     -40.677  51.579 -50.551  1.00  0.00     0.217 HD
ENDBRANCH  10  17
BRANCH  11  19
HETATM   19  C   UNL     1     -40.632  54.589 -50.315  1.00  0.00    -0.021 C 
HETATM   20  C   UNL     1     -39.323  54.242 -49.576  1.00  0.00     0.019 C 
HETATM   21  C   UNL     1     -41.848  54.069 -49.510  1.00  0.00     0.019 C 
HETATM   22  C   UNL     1     -40.761  56.138 -50.282  1.00  0.00     0.019 C 
ENDBRANCH  11  19
ENDBRANCH   6   7
ENDBRANCH   1   5
BRANCH   2  23
HETATM   23  C   UNL     1     -42.739  58.611 -55.196  1.00  0.00     0.170 C 
HETATM   24  N   UNL     1     -41.491  59.161 -55.160  1.00  0.00    -0.124 NA
HETATM   25  N   UNL     1     -41.388  59.906 -54.077  1.00  0.00    -0.058 NA
HETATM   26  N   UNL     1     -42.587  59.938 -53.445  1.00  0.00    -0.191 N 
HETATM   27  C   UNL     1     -43.445  59.022 -54.065  1.00  0.00     0.101 C 
BRANCH  26  28
HETATM   28  C   UNL     1     -42.837  60.823 -52.366  1.00  0.00     0.229 A 
HETATM   29  N   UNL     1     -43.363  62.029 -52.590  1.00  0.00    -0.081 NA
HETATM   30  O   UNL     1     -43.425  62.607 -51.320  1.00  0.00    -0.103 OA
HETATM   31  N   UNL     1     -42.939  61.741 -50.351  1.00  0.00    -0.083 NA
HETATM   32  C   UNL     1     -42.569  60.638 -50.998  1.00  0.00     0.201 A 
BRANCH  32  33
HETATM   33  N   UNL     1     -42.049  59.549 -50.410  1.00  0.00    -0.379 N 
HETATM   34  H   UNL     1     -41.161  59.613 -49.919  1.00  0.00     0.158 HD
HETATM   35  H   UNL     1     -42.348  58.600 -50.626  1.00  0.00     0.158 HD
ENDBRANCH  32  33
ENDBRANCH  26  28
BRANCH  27  36
HETATM   36  C   UNL     1     -44.820  58.735 -53.580  1.00  0.00     0.295 C 
BRANCH  36  37
HETATM   37  N   UNL     1     -44.930  57.699 -52.486  1.00  0.00    -0.073 N 
HETATM   38  H   UNL     1     -45.691  57.049 -52.767  1.00  0.00     0.279 HD
HETATM   39  C   UNL     1     -43.684  56.884 -52.303  1.00  0.00     0.269 C 
HETATM   40  C   UNL     1     -45.387  58.303 -51.189  1.00  0.00     0.269 C 
ENDBRANCH  36  37
ENDBRANCH  27  36
ENDBRANCH   2  23
TORSDOF 10
ENDMDL
MODEL 2
REMARK VINA RESULT:      -7.9      0.154      3.114
REMARK  10 active torsions:
REMARK  status: ('A' for Active; 'I' for Inactive)
REMARK    1  A    between atoms: C_2  and  C_3 
REMARK    2  A    between atoms: C_4  and  O_5 
REMARK    3  A    between atoms: C_6  and  C_7 
REMARK    4  A    between atoms: C_12  and  C_13 
REMARK    5  A    between atoms: N_14  and  N_15 
REMARK       I    between atoms: N_15  and  C_16 
REMARK    6  A    between atoms: C_16  and  C_17 
REMARK    7  A    between atoms: N_20  and  C_21 
REMARK    8  A    between atoms: C_25  and  N_26 
REMARK    9  A    between atoms: C_27  and  C_28 
REMARK   10  A    between atoms: C_28  and  N_29 
ROOT
HETATM    1  N   UNL     1     -42.704  56.412 -56.403  1.00  0.00    -0.145 NA
HETATM    2  C   UNL     1     -43.241  57.682 -56.233  1.00  0.00     0.273 C 
HETATM    3  O   UNL     1     -44.116  58.097 -56.999  1.00  0.00    -0.270 OA
HETATM    4  H   UNL     1     -43.214  55.931 -57.143  1.00  0.00     0.158 HD
ENDROOT
BRANCH   1   5
HETATM    5  N   UNL     1     -42.554  55.595 -55.308  1.00  0.00    -0.205 NA
HETATM    6  C   UNL     1     -41.336  55.181 -55.133  1.00  0.00     0.144 C 
BRANCH   6   7
HETATM    7  C   UNL     1     -40.961  54.286 -54.022  1.00  0.00    -0.016 A 
HETATM    8  C   UNL     1     -40.854  54.773 -52.720  1.00  0.00     0.023 A 
HETATM    9  C   UNL     1     -40.518  53.920 -51.654  1.00  0.00    -0.016 A 
HETATM   10  C   UNL     1     -40.256  52.561 -51.979  1.00  0.00     0.079 A 
HETATM   11  C   UNL     1     -40.312  52.042 -53.300  1.00  0.00    -0.016 A 
HETATM   12  C   UNL     1     -40.710  52.942 -54.305  1.00  0.00     0.023 A 
BRANCH   9  13
HETATM   13  C   UNL     1     -40.455  54.457 -50.202  1.00  0.00    -0.021 C 
HETATM   14  C   UNL     1     -40.816  55.959 -50.171  1.00  0.00     0.019 C 
HETATM   15  C   UNL     1     -41.446  53.754 -49.235  1.00  0.00     0.019 C 
HETATM   16  C   UNL     1     -39.051  54.239 -49.592  1.00  0.00     0.019 C 
ENDBRANCH   9  13
BRANCH  10  17
HETATM   17  O   UNL     1     -39.926  51.743 -50.935  1.00  0.00    -0.360 OA
HETATM   18  H   UNL     1     -39.082  51.312 -51.139  1.00  0.00     0.217 HD
ENDBRANCH  10  17
BRANCH  11  19
HETATM   19  C   UNL     1     -39.953  50.580 -53.676  1.00  0.00    -0.021 C 
HETATM   20  C   UNL     1     -41.083  49.973 -54.534  1.00  0.00     0.019 C 
HETATM   21  C   UNL     1     -39.702  49.697 -52.430  1.00  0.00     0.019 C 
HETATM   22  C   UNL     1     -38.651  50.467 -54.518  1.00  0.00     0.019 C 
ENDBRANCH  11  19
ENDBRANCH   6   7
ENDBRANCH   1   5
BRANCH   2  23
HETATM   23  C   UNL     1     -42.737  58.538 -55.157  1.00  0.00     0.170 C 
HETATM   24  N   UNL     1     -41.484  59.079 -55.132  1.00  0.00    -0.124 NA
HETATM   25  N   UNL     1     -41.378  59.849 -54.066  1.00  0.00    -0.058 NA
HETATM   26  N   UNL     1     -42.577  59.906 -53.438  1.00  0.00    -0.191 N 
HETATM   27  C   UNL     1     -43.442  58.981 -54.038  1.00  0.00     0.101 C 
BRANCH  26  28
HETATM   28  C   UNL     1     -42.823  60.818 -52.381  1.00  0.00     0.229 A 
HETATM   29  N   UNL     1     -43.352  62.016 -52.633  1.00  0.00    -0.081 NA
HETATM   30  O   UNL     1     -43.407  62.628 -51.378  1.00  0.00    -0.103 OA
HETATM   31  N   UNL     1     -42.915  61.787 -50.389  1.00  0.00    -0.083 NA
HETATM   32  C   UNL     1     -42.548  60.668 -51.009  1.00  0.00     0.201 A 
BRANCH  32  33
HETATM   33  N   UNL     1     -42.022  59.595 -50.397  1.00  0.00    -0.379 N 
HETATM   34  H   UNL     1     -41.966  59.567 -49.382  1.00  0.00     0.158 HD
HETATM   35  H   UNL     1     -41.445  58.905 -50.874  1.00  0.00     0.158 HD
ENDBRANCH  32  33
ENDBRANCH  26  28
BRANCH  27  36
HETATM   36  C   UNL     1     -44.820  58.717 -53.549  1.00  0.00     0.295 C 
BRANCH  36  37
HETATM   37  N   UNL     1     -44.939  57.712 -52.429  1.00  0.00    -0.073 N 
HETATM   38  H   UNL     1     -45.717  57.071 -52.685  1.00  0.00     0.279 HD
HETATM   39  C   UNL     1     -43.709  56.875 -52.236  1.00  0.00     0.269 C 
HETATM   40  C   UNL     1     -45.371  58.357 -51.142  1.00  0.00     0.269 C 
ENDBRANCH  36  37
ENDBRANCH  27  36
ENDBRANCH   2  23
TORSDOF 10
ENDMDL
MODEL 3
REMARK VINA RESULT:      -7.8      1.254      2.420
REMARK  10 active torsions:
REMARK  status: ('A' for Active; 'I' for Inactive)
REMARK    1  A    between atoms: C_2  and  C_3 
REMARK    2  A    between atoms: C_4  and  O_5 
REMARK    3  A    between atoms: C_6  and  C_7 
REMARK    4  A    between atoms: C_12  and  C_13 
REMARK    5  A    between atoms: N_14  and  N_15 
REMARK       I    between atoms: N_15  and  C_16 
REMARK    6  A    between atoms: C_16  and  C_17 
REMARK    7  A    between atoms: N_20  and  C_21 
REMARK    8  A    between atoms: C_25  and  N_26 
REMARK    9  A    between atoms: C_27  and  C_28 
REMARK   10  A    between atoms: C_28  and  N_29 
ROOT
HETATM    1  N   UNL     1     -42.345  56.297 -56.896  1.00  0.00    -0.145 NA
HETATM    2  C   UNL     1     -43.432  57.159 -56.965  1.00  0.00     0.273 C 
HETATM    3  O   UNL     1     -44.009  57.352 -58.040  1.00  0.00    -0.270 OA
HETATM    4  H   UNL     1     -42.226  55.841 -57.800  1.00  0.00     0.158 HD
ENDROOT
BRANCH   1   5
HETATM    5  N   UNL     1     -42.282  55.377 -55.877  1.00  0.00    -0.205 NA
HETATM    6  C   UNL     1     -41.125  55.333 -55.290  1.00  0.00     0.144 C 
BRANCH   6   7
HETATM    7  C   UNL     1     -40.842  54.407 -54.177  1.00  0.00    -0.016 A 
HETATM    8  C   UNL     1     -40.576  53.060 -54.421  1.00  0.00     0.023 A 
HETATM    9  C   UNL     1     -40.284  52.178 -53.366  1.00  0.00    -0.016 A 
HETATM   10  C   UNL     1     -40.317  52.718 -52.052  1.00  0.00     0.079 A 
HETATM   11  C   UNL     1     -40.627  54.074 -51.764  1.00  0.00    -0.016 A 
HETATM   12  C   UNL     1     -40.852  54.908 -52.874  1.00  0.00     0.023 A 
BRANCH   9  13
HETATM   13  C   UNL     1     -39.936  50.695 -53.650  1.00  0.00    -0.021 C 
HETATM   14  C   UNL     1     -41.068  50.025 -54.459  1.00  0.00     0.019 C 
HETATM   15  C   UNL     1     -38.639  50.509 -54.484  1.00  0.00     0.019 C 
HETATM   16  C   UNL     1     -39.699  49.921 -52.332  1.00  0.00     0.019 C 
ENDBRANCH   9  13
BRANCH  10  17
HETATM   17  O   UNL     1     -40.036  51.849 -51.034  1.00  0.00    -0.360 OA
HETATM   18  H   UNL     1     -39.635  51.052 -51.414  1.00  0.00     0.217 HD
ENDBRANCH  10  17
BRANCH  11  19
HETATM   19  C   UNL     1     -40.740  54.655 -50.330  1.00  0.00    -0.021 C 
HETATM   20  C   UNL     1     -39.490  54.267 -49.513  1.00  0.00     0.019 C 
HETATM   21  C   UNL     1     -42.019  54.178 -49.601  1.00  0.00     0.019 C 
HETATM   22  C   UNL     1     -40.819  56.208 -50.304  1.00  0.00     0.019 C 
ENDBRANCH  11  19
ENDBRANCH   6   7
ENDBRANCH   1   5
BRANCH   2  23
HETATM   23  C   UNL     1     -43.868  57.865 -55.758  1.00  0.00     0.170 C 
HETATM   24  N   UNL     1     -45.013  57.578 -55.073  1.00  0.00    -0.124 NA
HETATM   25  N   UNL     1     -45.070  58.348 -54.004  1.00  0.00    -0.058 NA
HETATM   26  N   UNL     1     -43.928  59.073 -53.917  1.00  0.00    -0.191 N 
HETATM   27  C   UNL     1     -43.185  58.881 -55.089  1.00  0.00     0.101 C 
BRANCH  26  28
HETATM   28  C   UNL     1     -43.615  59.836 -52.764  1.00  0.00     0.229 A 
HETATM   29  N   UNL     1     -43.344  61.138 -52.869  1.00  0.00    -0.081 NA
HETATM   30  O   UNL     1     -43.055  61.526 -51.559  1.00  0.00    -0.103 OA
HETATM   31  N   UNL     1     -43.161  60.453 -50.684  1.00  0.00    -0.083 NA
HETATM   32  C   UNL     1     -43.502  59.405 -51.430  1.00  0.00     0.201 A 
BRANCH  32  33
HETATM   33  N   UNL     1     -43.710  58.167 -50.954  1.00  0.00    -0.379 N 
HETATM   34  H   UNL     1     -42.926  57.619 -50.607  1.00  0.00     0.158 HD
HETATM   35  H   UNL     1     -44.555  57.631 -51.139  1.00  0.00     0.158 HD
ENDBRANCH  32  33
ENDBRANCH  26  28
BRANCH  27  36
HETATM   36  C   UNL     1     -41.910  59.589 -55.371  1.00  0.00     0.295 C 
BRANCH  36  37
HETATM   37  N   UNL     1     -41.977  60.674 -56.420  1.00  0.00    -0.073 N 
HETATM   38  H   UNL     1     -41.279  61.394 -56.149  1.00  0.00     0.279 HD
HETATM   39  C   UNL     1     -41.626  60.200 -57.799  1.00  0.00     0.269 C 
HETATM   40  C   UNL     1     -43.300  61.385 -56.403  1.00  0.00     0.269 C 
ENDBRANCH  36  37
ENDBRANCH  27  36
ENDBRANCH   2  23
TORSDOF 10
ENDMDL
MODEL 4
REMARK VINA RESULT:      -7.8      1.256      3.870
REMARK  10 active torsions:
REMARK  status: ('A' for Active; 'I' for Inactive)
REMARK    1  A    between atoms: C_2  and  C_3 
REMARK    2  A    between atoms: C_4  and  O_5 
REMARK    3  A    between atoms: C_6  and  C_7 
REMARK    4  A    between atoms: C_12  and  C_13 
REMARK    5  A    between atoms: N_14  and  N_15 
REMARK       I    between atoms: N_15  and  C_16 
REMARK    6  A    between atoms: C_16  and  C_17 
REMARK    7  A    between atoms: N_20  and  C_21 
REMARK    8  A    between atoms: C_25  and  N_26 
REMARK    9  A    between atoms: C_27  and  C_28 
REMARK   10  A    between atoms: C_28  and  N_29 
ROOT
HETATM    1  N   UNL     1     -42.493  56.218 -56.919  1.00  0.00    -0.145 NA
HETATM    2  C   UNL     1     -43.581  57.080 -56.980  1.00  0.00     0.273 C 
HETATM    3  O   UNL     1     -44.189  57.244 -58.042  1.00  0.00    -0.270 OA
HETATM    4  H   UNL     1     -42.400  55.737 -57.813  1.00  0.00     0.158 HD
ENDROOT
BRANCH   1   5
HETATM    5  N   UNL     1     -42.401  55.326 -55.877  1.00  0.00    -0.205 NA
HETATM    6  C   UNL     1     -41.263  55.374 -55.254  1.00  0.00     0.144 C 
BRANCH   6   7
HETATM    7  C   UNL     1     -40.955  54.492 -54.111  1.00  0.00    -0.016 A 
HETATM    8  C   UNL     1     -40.956  54.988 -52.808  1.00  0.00     0.023 A 
HETATM    9  C   UNL     1     -40.684  54.148 -51.715  1.00  0.00    -0.016 A 
HETATM   10  C   UNL     1     -40.370  52.793 -52.010  1.00  0.00     0.079 A 
HETATM   11  C   UNL     1     -40.318  52.265 -53.328  1.00  0.00    -0.016 A 
HETATM   12  C   UNL     1     -40.657  53.152 -54.366  1.00  0.00     0.023 A 
BRANCH   9  13
HETATM   13  C   UNL     1     -40.741  54.694 -50.265  1.00  0.00    -0.021 C 
HETATM   14  C   UNL     1     -41.986  54.144 -49.535  1.00  0.00     0.019 C 
HETATM   15  C   UNL     1     -39.517  54.288 -49.399  1.00  0.00     0.019 C 
HETATM   16  C   UNL     1     -40.763  56.240 -50.258  1.00  0.00     0.019 C 
ENDBRANCH   9  13
BRANCH  10  17
HETATM   17  O   UNL     1     -40.104  51.987 -50.938  1.00  0.00    -0.360 OA
HETATM   18  H   UNL     1     -39.752  51.147 -51.268  1.00  0.00     0.217 HD
ENDBRANCH  10  17
BRANCH  11  19
HETATM   19  C   UNL     1     -39.902  50.809 -53.666  1.00  0.00    -0.021 C 
HETATM   20  C   UNL     1     -38.548  50.815 -54.405  1.00  0.00     0.019 C 
HETATM   21  C   UNL     1     -40.968  50.076 -54.517  1.00  0.00     0.019 C 
HETATM   22  C   UNL     1     -39.714  49.919 -52.405  1.00  0.00     0.019 C 
ENDBRANCH  11  19
ENDBRANCH   6   7
ENDBRANCH   1   5
BRANCH   2  23
HETATM   23  C   UNL     1     -43.981  57.819 -55.780  1.00  0.00     0.170 C 
HETATM   24  N   UNL     1     -45.140  57.598 -55.094  1.00  0.00    -0.124 NA
HETATM   25  N   UNL     1     -45.159  58.380 -54.033  1.00  0.00    -0.058 NA
HETATM   26  N   UNL     1     -43.981  59.046 -53.951  1.00  0.00    -0.191 N 
HETATM   27  C   UNL     1     -43.248  58.804 -55.120  1.00  0.00     0.101 C 
BRANCH  26  28
HETATM   28  C   UNL     1     -43.631  59.803 -52.805  1.00  0.00     0.229 A 
HETATM   29  N   UNL     1     -43.293  61.088 -52.922  1.00  0.00    -0.081 NA
HETATM   30  O   UNL     1     -42.986  61.473 -51.615  1.00  0.00    -0.103 OA
HETATM   31  N   UNL     1     -43.146  60.416 -50.730  1.00  0.00    -0.083 NA
HETATM   32  C   UNL     1     -43.540  59.379 -51.466  1.00  0.00     0.201 A 
BRANCH  32  33
HETATM   33  N   UNL     1     -43.810  58.158 -50.979  1.00  0.00    -0.379 N 
HETATM   34  H   UNL     1     -44.689  57.702 -51.213  1.00  0.00     0.158 HD
HETATM   35  H   UNL     1     -43.314  57.748 -50.190  1.00  0.00     0.158 HD
ENDBRANCH  32  33
ENDBRANCH  26  28
BRANCH  27  36
HETATM   36  C   UNL     1     -41.937  59.443 -55.406  1.00  0.00     0.295 C 
BRANCH  36  37
HETATM   37  N   UNL     1     -41.952  60.536 -56.449  1.00  0.00    -0.073 N 
HETATM   38  H   UNL     1     -41.196  61.203 -56.193  1.00  0.00     0.279 HD
HETATM   39  C   UNL     1     -41.670  60.046 -57.839  1.00  0.00     0.269 C 
HETATM   40  C   UNL     1     -43.219  61.342 -56.396  1.00  0.00     0.269 C 
ENDBRANCH  36  37
ENDBRANCH  27  36
ENDBRANCH   2  23
TORSDOF 10
ENDMDL
MODEL 5
REMARK VINA RESULT:      -7.7      0.745      1.531
REMARK  10 active torsions:
REMARK  status: ('A' for Active; 'I' for Inactive)
REMARK    1  A    between atoms: C_2  and  C_3 
REMARK    2  A    between atoms: C_4  and  O_5 
REMARK    3  A    between atoms: C_6  and  C_7 
REMARK    4  A    between atoms: C_12  and  C_13 
REMARK    5  A    between atoms: N_14  and  N_15 
REMARK       I    between atoms: N_15  and  C_16 
REMARK    6  A    between atoms: C_16  and  C_17 
REMARK    7  A    between atoms: N_20  and  C_21 
REMARK    8  A    between atoms: C_25  and  N_26 
REMARK    9  A    between atoms: C_27  and  C_28 
REMARK   10  A    between atoms: C_28  and  N_29 
ROOT
HETATM    1  N   UNL     1     -43.041  56.291 -56.620  1.00  0.00    -0.145 NA
HETATM    2  C   UNL     1     -43.582  57.569 -56.566  1.00  0.00     0.273 C 
HETATM    3  O   UNL     1     -44.534  57.875 -57.290  1.00  0.00    -0.270 OA
HETATM    4  H   UNL     1     -43.612  55.714 -57.237  1.00  0.00     0.158 HD
ENDROOT
BRANCH   1   5
HETATM    5  N   UNL     1     -42.771  55.626 -55.448  1.00  0.00    -0.205 NA
HETATM    6  C   UNL     1     -41.640  54.989 -55.462  1.00  0.00     0.144 C 
BRANCH   6   7
HETATM    7  C   UNL     1     -41.165  54.202 -54.307  1.00  0.00    -0.016 A 
HETATM    8  C   UNL     1     -40.761  52.878 -54.465  1.00  0.00     0.023 A 
HETATM    9  C   UNL     1     -40.288  52.131 -53.372  1.00  0.00    -0.016 A 
HETATM   10  C   UNL     1     -40.283  52.778 -52.107  1.00  0.00     0.079 A 
HETATM   11  C   UNL     1     -40.729  54.112 -51.903  1.00  0.00    -0.016 A 
HETATM   12  C   UNL     1     -41.135  54.814 -53.052  1.00  0.00     0.023 A 
BRANCH   9  13
HETATM   13  C   UNL     1     -39.789  50.676 -53.565  1.00  0.00    -0.021 C 
HETATM   14  C   UNL     1     -38.332  50.674 -54.080  1.00  0.00     0.019 C 
HETATM   15  C   UNL     1     -39.786  49.840 -52.257  1.00  0.00     0.019 C 
HETATM   16  C   UNL     1     -40.698  49.906 -54.551  1.00  0.00     0.019 C 
ENDBRANCH   9  13
BRANCH  10  17
HETATM   17  O   UNL     1     -39.825  52.041 -51.051  1.00  0.00    -0.360 OA
HETATM   18  H   UNL     1     -40.145  52.447 -50.232  1.00  0.00     0.217 HD
ENDBRANCH  10  17
BRANCH  11  19
HETATM   19  C   UNL     1     -40.801  54.803 -50.515  1.00  0.00    -0.021 C 
HETATM   20  C   UNL     1     -42.064  54.331 -49.766  1.00  0.00     0.019 C 
HETATM   21  C   UNL     1     -40.796  56.347 -50.626  1.00  0.00     0.019 C 
HETATM   22  C   UNL     1     -39.591  54.462 -49.599  1.00  0.00     0.019 C 
ENDBRANCH  11  19
ENDBRANCH   6   7
ENDBRANCH   1   5
BRANCH   2  23
HETATM   23  C   UNL     1     -42.990  58.563 -55.667  1.00  0.00     0.170 C 
HETATM   24  N   UNL     1     -41.858  59.271 -55.946  1.00  0.00    -0.124 NA
HETATM   25  N   UNL     1     -41.641  60.124 -54.964  1.00  0.00    -0.058 NA
HETATM   26  N   UNL     1     -42.669  60.060 -54.084  1.00  0.00    -0.191 N 
HETATM   27  C   UNL     1     -43.494  58.984 -54.437  1.00  0.00     0.101 C 
BRANCH  26  28
HETATM   28  C   UNL     1     -42.814  61.004 -53.036  1.00  0.00     0.229 A 
HETATM   29  N   UNL     1     -42.598  60.645 -51.770  1.00  0.00    -0.081 NA
HETATM   30  O   UNL     1     -42.869  61.807 -51.043  1.00  0.00    -0.103 OA
HETATM   31  N   UNL     1     -43.240  62.848 -51.882  1.00  0.00    -0.083 NA
HETATM   32  C   UNL     1     -43.212  62.351 -53.116  1.00  0.00     0.201 A 
BRANCH  32  33
HETATM   33  N   UNL     1     -43.505  63.049 -54.225  1.00  0.00    -0.379 N 
HETATM   34  H   UNL     1     -44.307  62.786 -54.793  1.00  0.00     0.158 HD
HETATM   35  H   UNL     1     -42.843  63.671 -54.685  1.00  0.00     0.158 HD
ENDBRANCH  32  33
ENDBRANCH  26  28
BRANCH  27  36
HETATM   36  C   UNL     1     -44.678  58.569 -53.640  1.00  0.00     0.295 C 
BRANCH  36  37
HETATM   37  N   UNL     1     -44.395  58.122 -52.225  1.00  0.00    -0.073 N 
HETATM   38  H   UNL     1     -43.513  58.590 -51.936  1.00  0.00     0.279 HD
HETATM   39  C   UNL     1     -45.459  58.518 -51.244  1.00  0.00     0.269 C 
HETATM   40  C   UNL     1     -44.101  56.651 -52.152  1.00  0.00     0.269 C 
ENDBRANCH  36  37
ENDBRANCH  27  36
ENDBRANCH   2  23
TORSDOF 10
ENDMDL
MODEL 6
REMARK VINA RESULT:      -7.7      0.744      3.361
REMARK  10 active torsions:
REMARK  status: ('A' for Active; 'I' for Inactive)
REMARK    1  A    between atoms: C_2  and  C_3 
REMARK    2  A    between atoms: C_4  and  O_5 
REMARK    3  A    between atoms: C_6  and  C_7 
REMARK    4  A    between atoms: C_12  and  C_13 
REMARK    5  A    between atoms: N_14  and  N_15 
REMARK       I    between atoms: N_15  and  C_16 
REMARK    6  A    between atoms: C_16  and  C_17 
REMARK    7  A    between atoms: N_20  and  C_21 
REMARK    8  A    between atoms: C_25  and  N_26 
REMARK    9  A    between atoms: C_27  and  C_28 
REMARK   10  A    between atoms: C_28  and  N_29 
ROOT
HETATM    1  N   UNL     1     -42.922  56.124 -56.780  1.00  0.00    -0.145 NA
HETATM    2  C   UNL     1     -43.445  57.411 -56.740  1.00  0.00     0.273 C 
HETATM    3  O   UNL     1     -44.349  57.742 -57.512  1.00  0.00    -0.270 OA
HETATM    4  H   UNL     1     -43.467  55.565 -57.435  1.00  0.00     0.158 HD
ENDROOT
BRANCH   1   5
HETATM    5  N   UNL     1     -42.730  55.441 -55.603  1.00  0.00    -0.205 NA
HETATM    6  C   UNL     1     -41.520  54.995 -55.455  1.00  0.00     0.144 C 
BRANCH   6   7
HETATM    7  C   UNL     1     -41.105  54.225 -54.266  1.00  0.00    -0.016 A 
HETATM    8  C   UNL     1     -41.069  54.824 -53.007  1.00  0.00     0.023 A 
HETATM    9  C   UNL     1     -40.695  54.090 -51.868  1.00  0.00    -0.016 A 
HETATM   10  C   UNL     1     -40.322  52.734 -52.073  1.00  0.00     0.079 A 
HETATM   11  C   UNL     1     -40.306  52.105 -53.347  1.00  0.00    -0.016 A 
HETATM   12  C   UNL     1     -40.746  52.886 -54.431  1.00  0.00     0.023 A 
BRANCH   9  13
HETATM   13  C   UNL     1     -40.709  54.747 -50.465  1.00  0.00    -0.021 C 
HETATM   14  C   UNL     1     -41.912  54.231 -49.644  1.00  0.00     0.019 C 
HETATM   15  C   UNL     1     -39.444  54.437 -49.620  1.00  0.00     0.019 C 
HETATM   16  C   UNL     1     -40.769  56.289 -50.577  1.00  0.00     0.019 C 
ENDBRANCH   9  13
BRANCH  10  17
HETATM   17  O   UNL     1     -39.956  52.032 -50.959  1.00  0.00    -0.360 OA
HETATM   18  H   UNL     1     -39.038  51.742 -51.068  1.00  0.00     0.217 HD
ENDBRANCH  10  17
BRANCH  11  19
HETATM   19  C   UNL     1     -39.827  50.650 -53.593  1.00  0.00    -0.021 C 
HETATM   20  C   UNL     1     -38.414  50.667 -54.213  1.00  0.00     0.019 C 
HETATM   21  C   UNL     1     -40.796  49.858 -54.505  1.00  0.00     0.019 C 
HETATM   22  C   UNL     1     -39.727  49.810 -52.288  1.00  0.00     0.019 C 
ENDBRANCH  11  19
ENDBRANCH   6   7
ENDBRANCH   1   5
BRANCH   2  23
HETATM   23  C   UNL     1     -42.889  58.384 -55.796  1.00  0.00     0.170 C 
HETATM   24  N   UNL     1     -41.786  59.147 -56.042  1.00  0.00    -0.124 NA
HETATM   25  N   UNL     1     -41.598  59.961 -55.022  1.00  0.00    -0.058 NA
HETATM   26  N   UNL     1     -42.621  59.817 -54.145  1.00  0.00    -0.191 N 
HETATM   27  C   UNL     1     -43.405  58.728 -54.547  1.00  0.00     0.101 C 
BRANCH  26  28
HETATM   28  C   UNL     1     -42.799  60.704 -53.054  1.00  0.00     0.229 A 
HETATM   29  N   UNL     1     -42.287  60.414 -51.857  1.00  0.00    -0.081 NA
HETATM   30  O   UNL     1     -42.693  61.481 -51.052  1.00  0.00    -0.103 OA
HETATM   31  N   UNL     1     -43.438  62.400 -51.777  1.00  0.00    -0.083 NA
HETATM   32  C   UNL     1     -43.510  61.918 -53.015  1.00  0.00     0.201 A 
BRANCH  32  33
HETATM   33  N   UNL     1     -44.146  62.520 -54.033  1.00  0.00    -0.379 N 
HETATM   34  H   UNL     1     -44.987  63.063 -53.854  1.00  0.00     0.158 HD
HETATM   35  H   UNL     1     -43.997  62.276 -55.009  1.00  0.00     0.158 HD
ENDBRANCH  32  33
ENDBRANCH  26  28
BRANCH  27  36
HETATM   36  C   UNL     1     -44.570  58.231 -53.769  1.00  0.00     0.295 C 
BRANCH  36  37
HETATM   37  N   UNL     1     -44.320  57.975 -52.301  1.00  0.00    -0.073 N 
HETATM   38  H   UNL     1     -43.421  58.441 -52.067  1.00  0.00     0.279 HD
HETATM   39  C   UNL     1     -45.375  58.548 -51.401  1.00  0.00     0.269 C 
HETATM   40  C   UNL     1     -44.091  56.517 -52.020  1.00  0.00     0.269 C 
ENDBRANCH  36  37
ENDBRANCH  27  36
ENDBRANCH   2  23
TORSDOF 10
ENDMDL
MODEL 7
REMARK VINA RESULT:      -7.2      3.673      6.311
REMARK  10 active torsions:
REMARK  status: ('A' for Active; 'I' for Inactive)
REMARK    1  A    between atoms: C_2  and  C_3 
REMARK    2  A    between atoms: C_4  and  O_5 
REMARK    3  A    between atoms: C_6  and  C_7 
REMARK    4  A    between atoms: C_12  and  C_13 
REMARK    5  A    between atoms: N_14  and  N_15 
REMARK       I    between atoms: N_15  and  C_16 
REMARK    6  A    between atoms: C_16  and  C_17 
REMARK    7  A    between atoms: N_20  and  C_21 
REMARK    8  A    between atoms: C_25  and  N_26 
REMARK    9  A    between atoms: C_27  and  C_28 
REMARK   10  A    between atoms: C_28  and  N_29 
ROOT
HETATM    1  N   UNL     1     -43.538  54.817 -57.895  1.00  0.00    -0.145 NA
HETATM    2  C   UNL     1     -43.979  55.507 -59.017  1.00  0.00     0.273 C 
HETATM    3  O   UNL     1     -44.992  55.137 -59.619  1.00  0.00    -0.270 OA
HETATM    4  H   UNL     1     -44.220  54.099 -57.657  1.00  0.00     0.158 HD
ENDROOT
BRANCH   1   5
HETATM    5  N   UNL     1     -43.168  55.524 -56.776  1.00  0.00    -0.205 NA
HETATM    6  C   UNL     1     -42.627  54.787 -55.854  1.00  0.00     0.144 C 
BRANCH   6   7
HETATM    7  C   UNL     1     -42.168  55.347 -54.568  1.00  0.00    -0.016 A 
HETATM    8  C   UNL     1     -42.049  56.725 -54.392  1.00  0.00     0.023 A 
HETATM    9  C   UNL     1     -41.634  57.264 -53.163  1.00  0.00    -0.016 A 
HETATM   10  C   UNL     1     -41.305  56.339 -52.135  1.00  0.00     0.079 A 
HETATM   11  C   UNL     1     -41.373  54.929 -52.294  1.00  0.00    -0.016 A 
HETATM   12  C   UNL     1     -41.851  54.465 -53.533  1.00  0.00     0.023 A 
BRANCH   9  13
HETATM   13  C   UNL     1     -41.556  58.799 -52.958  1.00  0.00    -0.021 C 
HETATM   14  C   UNL     1     -40.174  59.194 -52.394  1.00  0.00     0.019 C 
HETATM   15  C   UNL     1     -41.738  59.611 -54.270  1.00  0.00     0.019 C 
HETATM   16  C   UNL     1     -42.674  59.287 -52.008  1.00  0.00     0.019 C 
ENDBRANCH   9  13
BRANCH  10  17
HETATM   17  O   UNL     1     -40.898  56.876 -50.946  1.00  0.00    -0.360 OA
HETATM   18  H   UNL     1     -40.007  56.549 -50.752  1.00  0.00     0.217 HD
ENDBRANCH  10  17
BRANCH  11  19
HETATM   19  C   UNL     1     -40.944  53.909 -51.205  1.00  0.00    -0.021 C 
HETATM   20  C   UNL     1     -42.136  53.617 -50.271  1.00  0.00     0.019 C 
HETATM   21  C   UNL     1     -39.732  54.405 -50.380  1.00  0.00     0.019 C 
HETATM   22  C   UNL     1     -40.498  52.540 -51.792  1.00  0.00     0.019 C 
ENDBRANCH  11  19
ENDBRANCH   6   7
ENDBRANCH   1   5
BRANCH   2  23
HETATM   23  C   UNL     1     -43.213  56.657 -59.502  1.00  0.00     0.170 C 
HETATM   24  N   UNL     1     -42.107  56.562 -60.296  1.00  0.00    -0.124 NA
HETATM   25  N   UNL     1     -41.703  57.778 -60.606  1.00  0.00    -0.058 NA
HETATM   26  N   UNL     1     -42.585  58.679 -60.109  1.00  0.00    -0.191 N 
HETATM   27  C   UNL     1     -43.501  58.005 -59.292  1.00  0.00     0.101 C 
BRANCH  26  28
HETATM   28  C   UNL     1     -42.524  60.052 -60.458  1.00  0.00     0.229 A 
HETATM   29  N   UNL     1     -41.635  60.858 -59.875  1.00  0.00    -0.081 NA
HETATM   30  O   UNL     1     -41.900  62.109 -60.436  1.00  0.00    -0.103 OA
HETATM   31  N   UNL     1     -42.941  62.038 -61.351  1.00  0.00    -0.083 NA
HETATM   32  C   UNL     1     -43.333  60.766 -61.361  1.00  0.00     0.201 A 
BRANCH  32  33
HETATM   33  N   UNL     1     -44.323  60.279 -62.127  1.00  0.00    -0.379 N 
HETATM   34  H   UNL     1     -44.901  60.914 -62.672  1.00  0.00     0.158 HD
HETATM   35  H   UNL     1     -44.705  59.342 -62.017  1.00  0.00     0.158 HD
ENDBRANCH  32  33
ENDBRANCH  26  28
BRANCH  27  36
HETATM   36  C   UNL     1     -44.565  58.696 -58.517  1.00  0.00     0.295 C 
BRANCH  36  37
HETATM   37  N   UNL     1     -45.442  57.808 -57.666  1.00  0.00    -0.073 N 
HETATM   38  H   UNL     1     -45.083  56.839 -57.779  1.00  0.00     0.279 HD
HETATM   39  C   UNL     1     -45.396  58.140 -56.204  1.00  0.00     0.269 C 
HETATM   40  C   UNL     1     -46.854  57.765 -58.176  1.00  0.00     0.269 C 
ENDBRANCH  36  37
ENDBRANCH  27  36
ENDBRANCH   2  23
TORSDOF 10
ENDMDL
MODEL 8
REMARK VINA RESULT:      -7.2      2.746      4.490
REMARK  10 active torsions:
REMARK  status: ('A' for Active; 'I' for Inactive)
REMARK    1  A    between atoms: C_2  and  C_3 
REMARK    2  A    between atoms: C_4  and  O_5 
REMARK    3  A    between atoms: C_6  and  C_7 
REMARK    4  A    between atoms: C_12  and  C_13 
REMARK    5  A    between atoms: N_14  and  N_15 
REMARK       I    between atoms: N_15  and  C_16 
REMARK    6  A    between atoms: C_16  and  C_17 
REMARK    7  A    between atoms: N_20  and  C_21 
REMARK    8  A    between atoms: C_25  and  N_26 
REMARK    9  A    between atoms: C_27  and  C_28 
REMARK   10  A    between atoms: C_28  and  N_29 
ROOT
HETATM    1  N   UNL     1     -45.550  58.445 -50.348  1.00  0.00    -0.145 NA
HETATM    2  C   UNL     1     -45.711  59.824 -50.391  1.00  0.00     0.273 C 
HETATM    3  O   UNL     1     -45.957  60.457 -49.360  1.00  0.00    -0.270 OA
HETATM    4  H   UNL     1     -45.572  58.138 -49.375  1.00  0.00     0.158 HD
ENDROOT
BRANCH   1   5
HETATM    5  N   UNL     1     -44.492  57.871 -51.012  1.00  0.00    -0.205 NA
HETATM    6  C   UNL     1     -44.320  56.617 -50.725  1.00  0.00     0.144 C 
BRANCH   6   7
HETATM    7  C   UNL     1     -43.234  55.815 -51.322  1.00  0.00    -0.016 A 
HETATM    8  C   UNL     1     -43.112  55.699 -52.706  1.00  0.00     0.023 A 
HETATM    9  C   UNL     1     -42.067  54.955 -53.280  1.00  0.00    -0.016 A 
HETATM   10  C   UNL     1     -41.178  54.301 -52.384  1.00  0.00     0.079 A 
HETATM   11  C   UNL     1     -41.299  54.362 -50.970  1.00  0.00    -0.016 A 
HETATM   12  C   UNL     1     -42.335  55.172 -50.470  1.00  0.00     0.023 A 
BRANCH   9  13
HETATM   13  C   UNL     1     -41.906  54.876 -54.820  1.00  0.00    -0.021 C 
HETATM   14  C   UNL     1     -41.963  56.291 -55.437  1.00  0.00     0.019 C 
HETATM   15  C   UNL     1     -40.555  54.260 -55.273  1.00  0.00     0.019 C 
HETATM   16  C   UNL     1     -43.003  53.982 -55.445  1.00  0.00     0.019 C 
ENDBRANCH   9  13
BRANCH  10  17
HETATM   17  O   UNL     1     -40.169  53.577 -52.955  1.00  0.00    -0.360 OA
HETATM   18  H   UNL     1     -39.755  53.035 -52.266  1.00  0.00     0.217 HD
ENDBRANCH  10  17
BRANCH  11  19
HETATM   19  C   UNL     1     -40.382  53.592 -49.984  1.00  0.00    -0.021 C 
HETATM   20  C   UNL     1     -38.950  54.161 -50.056  1.00  0.00     0.019 C 
HETATM   21  C   UNL     1     -40.362  52.070 -50.267  1.00  0.00     0.019 C 
HETATM   22  C   UNL     1     -40.833  53.719 -48.502  1.00  0.00     0.019 C 
ENDBRANCH  11  19
ENDBRANCH   6   7
ENDBRANCH   1   5
BRANCH   2  23
HETATM   23  C   UNL     1     -45.620  60.518 -51.678  1.00  0.00     0.170 C 
HETATM   24  N   UNL     1     -46.674  60.707 -52.523  1.00  0.00    -0.124 NA
HETATM   25  N   UNL     1     -46.267  61.423 -53.553  1.00  0.00    -0.058 NA
HETATM   26  N   UNL     1     -44.980  61.798 -53.352  1.00  0.00    -0.191 N 
HETATM   27  C   UNL     1     -44.492  61.135 -52.219  1.00  0.00     0.101 C 
BRANCH  26  28
HETATM   28  C   UNL     1     -44.340  62.745 -54.190  1.00  0.00     0.229 A 
HETATM   29  N   UNL     1     -44.500  64.052 -53.976  1.00  0.00    -0.081 NA
HETATM   30  O   UNL     1     -43.764  64.651 -55.002  1.00  0.00    -0.103 OA
HETATM   31  N   UNL     1     -43.170  63.696 -55.816  1.00  0.00    -0.083 NA
HETATM   32  C   UNL     1     -43.531  62.516 -55.318  1.00  0.00     0.201 A 
BRANCH  32  33
HETATM   33  N   UNL     1     -43.155  61.329 -55.821  1.00  0.00    -0.379 N 
HETATM   34  H   UNL     1     -43.351  61.106 -56.794  1.00  0.00     0.158 HD
HETATM   35  H   UNL     1     -42.906  60.529 -55.243  1.00  0.00     0.158 HD
ENDBRANCH  32  33
ENDBRANCH  26  28
BRANCH  27  36
HETATM   36  C   UNL     1     -43.086  61.248 -51.751  1.00  0.00     0.295 C 
BRANCH  36  37
HETATM   37  N   UNL     1     -42.314  59.953 -51.670  1.00  0.00    -0.073 N 
HETATM   38  H   UNL     1     -43.005  59.206 -51.459  1.00  0.00     0.279 HD
HETATM   39  C   UNL     1     -41.624  59.582 -52.949  1.00  0.00     0.269 C 
HETATM   40  C   UNL     1     -41.360  59.943 -50.509  1.00  0.00     0.269 C 
ENDBRANCH  36  37
ENDBRANCH  27  36
ENDBRANCH   2  23
TORSDOF 10
ENDMDL
MODEL 9
REMARK VINA RESULT:      -7.1      2.783      4.846
REMARK  10 active torsions:
REMARK  status: ('A' for Active; 'I' for Inactive)
REMARK    1  A    between atoms: C_2  and  C_3 
REMARK    2  A    between atoms: C_4  and  O_5 
REMARK    3  A    between atoms: C_6  and  C_7 
REMARK    4  A    between atoms: C_12  and  C_13 
REMARK    5  A    between atoms: N_14  and  N_15 
REMARK       I    between atoms: N_15  and  C_16 
REMARK    6  A    between atoms: C_16  and  C_17 
REMARK    7  A    between atoms: N_20  and  C_21 
REMARK    8  A    between atoms: C_25  and  N_26 
REMARK    9  A    between atoms: C_27  and  C_28 
REMARK   10  A    between atoms: C_28  and  N_29 
ROOT
HETATM    1  N   UNL     1     -45.573  58.336 -50.395  1.00  0.00    -0.145 NA
HETATM    2  C   UNL     1     -45.662  59.722 -50.387  1.00  0.00     0.273 C 
HETATM    3  O   UNL     1     -45.902  60.327 -49.338  1.00  0.00    -0.270 OA
HETATM    4  H   UNL     1     -45.635  57.994 -49.436  1.00  0.00     0.158 HD
ENDROOT
BRANCH   1   5
HETATM    5  N   UNL     1     -44.529  57.734 -51.057  1.00  0.00    -0.205 NA
HETATM    6  C   UNL     1     -44.290  56.523 -50.653  1.00  0.00     0.144 C 
BRANCH   6   7
HETATM    7  C   UNL     1     -43.205  55.703 -51.226  1.00  0.00    -0.016 A 
HETATM    8  C   UNL     1     -42.303  55.036 -50.399  1.00  0.00     0.023 A 
HETATM    9  C   UNL     1     -41.282  54.236 -50.939  1.00  0.00    -0.016 A 
HETATM   10  C   UNL     1     -41.194  54.179 -52.356  1.00  0.00     0.079 A 
HETATM   11  C   UNL     1     -42.068  54.881 -53.229  1.00  0.00    -0.016 A 
HETATM   12  C   UNL     1     -43.100  55.615 -52.616  1.00  0.00     0.023 A 
BRANCH   9  13
HETATM   13  C   UNL     1     -40.316  53.454 -50.012  1.00  0.00    -0.021 C 
HETATM   14  C   UNL     1     -40.781  53.563 -48.543  1.00  0.00     0.019 C 
HETATM   15  C   UNL     1     -40.241  51.936 -50.331  1.00  0.00     0.019 C 
HETATM   16  C   UNL     1     -38.869  53.982 -50.149  1.00  0.00     0.019 C 
ENDBRANCH   9  13
BRANCH  10  17
HETATM   17  O   UNL     1     -40.193  53.401 -52.869  1.00  0.00    -0.360 OA
HETATM   18  H   UNL     1     -39.434  53.970 -53.065  1.00  0.00     0.217 HD
ENDBRANCH  10  17
BRANCH  11  19
HETATM   19  C   UNL     1     -41.934  54.887 -54.775  1.00  0.00    -0.021 C 
HETATM   20  C   UNL     1     -42.037  56.335 -55.298  1.00  0.00     0.019 C 
HETATM   21  C   UNL     1     -43.000  53.999 -55.461  1.00  0.00     0.019 C 
HETATM   22  C   UNL     1     -40.569  54.334 -55.272  1.00  0.00     0.019 C 
ENDBRANCH  11  19
ENDBRANCH   6   7
ENDBRANCH   1   5
BRANCH   2  23
HETATM   23  C   UNL     1     -45.503  60.460 -51.643  1.00  0.00     0.170 C 
HETATM   24  N   UNL     1     -46.527  60.752 -52.495  1.00  0.00    -0.124 NA
HETATM   25  N   UNL     1     -46.056  61.481 -53.488  1.00  0.00    -0.058 NA
HETATM   26  N   UNL     1     -44.751  61.760 -53.254  1.00  0.00    -0.191 N 
HETATM   27  C   UNL     1     -44.328  61.021 -52.142  1.00  0.00     0.101 C 
BRANCH  26  28
HETATM   28  C   UNL     1     -44.035  62.695 -54.043  1.00  0.00     0.229 A 
HETATM   29  N   UNL     1     -43.508  63.786 -53.485  1.00  0.00    -0.081 NA
HETATM   30  O   UNL     1     -42.928  64.464 -54.560  1.00  0.00    -0.103 OA
HETATM   31  N   UNL     1     -43.111  63.770 -55.748  1.00  0.00    -0.083 NA
HETATM   32  C   UNL     1     -43.802  62.677 -55.430  1.00  0.00     0.201 A 
BRANCH  32  33
HETATM   33  N   UNL     1     -44.179  61.733 -56.307  1.00  0.00    -0.379 N 
HETATM   34  H   UNL     1     -44.013  60.752 -56.099  1.00  0.00     0.158 HD
HETATM   35  H   UNL     1     -44.398  61.930 -57.282  1.00  0.00     0.158 HD
ENDBRANCH  32  33
ENDBRANCH  26  28
BRANCH  27  36
HETATM   36  C   UNL     1     -42.925  61.020 -51.649  1.00  0.00     0.295 C 
BRANCH  36  37
HETATM   37  N   UNL     1     -42.211  59.690 -51.700  1.00  0.00    -0.073 N 
HETATM   38  H   UNL     1     -42.944  58.956 -51.642  1.00  0.00     0.279 HD
HETATM   39  C   UNL     1     -41.445  59.466 -52.971  1.00  0.00     0.269 C 
HETATM   40  C   UNL     1     -41.344  59.476 -50.491  1.00  0.00     0.269 C 
ENDBRANCH  36  37
ENDBRANCH  27  36
ENDBRANCH   2  23
TORSDOF 10
ENDMDL
MODEL 10
REMARK VINA RESULT:      -7.1      3.700      6.927
REMARK  10 active torsions:
REMARK  status: ('A' for Active; 'I' for Inactive)
REMARK    1  A    between atoms: C_2  and  C_3 
REMARK    2  A    between atoms: C_4  and  O_5 
REMARK    3  A    between atoms: C_6  and  C_7 
REMARK    4  A    between atoms: C_12  and  C_13 
REMARK    5  A    between atoms: N_14  and  N_15 
REMARK       I    between atoms: N_15  and  C_16 
REMARK    6  A    between atoms: C_16  and  C_17 
REMARK    7  A    between atoms: N_20  and  C_21 
REMARK    8  A    between atoms: C_25  and  N_26 
REMARK    9  A    between atoms: C_27  and  C_28 
REMARK   10  A    between atoms: C_28  and  N_29 
ROOT
HETATM    1  N   UNL     1     -42.149  57.142 -58.195  1.00  0.00    -0.145 NA
HETATM    2  C   UNL     1     -42.865  56.738 -59.315  1.00  0.00     0.273 C 
HETATM    3  O   UNL     1     -42.308  56.108 -60.219  1.00  0.00    -0.270 OA
HETATM    4  H   UNL     1     -41.208  56.750 -58.243  1.00  0.00     0.158 HD
ENDROOT
BRANCH   1   5
HETATM    5  N   UNL     1     -42.690  56.949 -56.947  1.00  0.00    -0.205 NA
HETATM    6  C   UNL     1     -41.966  57.441 -55.988  1.00  0.00     0.144 C 
BRANCH   6   7
HETATM    7  C   UNL     1     -42.362  57.335 -54.570  1.00  0.00    -0.016 A 
HETATM    8  C   UNL     1     -43.068  58.362 -53.948  1.00  0.00     0.023 A 
HETATM    9  C   UNL     1     -43.466  58.257 -52.604  1.00  0.00    -0.016 A 
HETATM   10  C   UNL     1     -43.077  57.078 -51.911  1.00  0.00     0.079 A 
HETATM   11  C   UNL     1     -42.319  56.031 -52.501  1.00  0.00    -0.016 A 
HETATM   12  C   UNL     1     -42.007  56.183 -53.865  1.00  0.00     0.023 A 
BRANCH   9  13
HETATM   13  C   UNL     1     -44.299  59.380 -51.935  1.00  0.00    -0.021 C 
HETATM   14  C   UNL     1     -43.423  60.177 -50.944  1.00  0.00     0.019 C 
HETATM   15  C   UNL     1     -44.867  60.417 -52.942  1.00  0.00     0.019 C 
HETATM   16  C   UNL     1     -45.528  58.794 -51.201  1.00  0.00     0.019 C 
ENDBRANCH   9  13
BRANCH  10  17
HETATM   17  O   UNL     1     -43.466  56.989 -50.603  1.00  0.00    -0.360 OA
HETATM   18  H   UNL     1     -44.434  56.973 -50.573  1.00  0.00     0.217 HD
ENDBRANCH  10  17
BRANCH  11  19
HETATM   19  C   UNL     1     -41.824  54.777 -51.734  1.00  0.00    -0.021 C 
HETATM   20  C   UNL     1     -43.035  53.942 -51.268  1.00  0.00     0.019 C 
HETATM   21  C   UNL     1     -40.934  55.142 -50.522  1.00  0.00     0.019 C 
HETATM   22  C   UNL     1     -40.948  53.833 -52.607  1.00  0.00     0.019 C 
ENDBRANCH  11  19
ENDBRANCH   6   7
ENDBRANCH   1   5
BRANCH   2  23
HETATM   23  C   UNL     1     -44.281  57.096 -59.430  1.00  0.00     0.170 C 
HETATM   24  N   UNL     1     -45.292  56.190 -59.564  1.00  0.00    -0.124 NA
HETATM   25  N   UNL     1     -46.441  56.837 -59.572  1.00  0.00    -0.058 NA
HETATM   26  N   UNL     1     -46.211  58.153 -59.344  1.00  0.00    -0.191 N 
HETATM   27  C   UNL     1     -44.829  58.377 -59.369  1.00  0.00     0.101 C 
BRANCH  26  28
HETATM   28  C   UNL     1     -47.269  59.062 -59.092  1.00  0.00     0.229 A 
HETATM   29  N   UNL     1     -47.736  59.228 -57.853  1.00  0.00    -0.081 NA
HETATM   30  O   UNL     1     -48.773  60.151 -58.009  1.00  0.00    -0.103 OA
HETATM   31  N   UNL     1     -48.912  60.531 -59.336  1.00  0.00    -0.083 NA
HETATM   32  C   UNL     1     -47.986  59.852 -60.009  1.00  0.00     0.201 A 
BRANCH  32  33
HETATM   33  N   UNL     1     -47.787  59.943 -61.334  1.00  0.00    -0.379 N 
HETATM   34  H   UNL     1     -47.094  60.592 -61.699  1.00  0.00     0.158 HD
HETATM   35  H   UNL     1     -48.448  59.594 -62.025  1.00  0.00     0.158 HD
ENDBRANCH  32  33
ENDBRANCH  26  28
BRANCH  27  36
HETATM   36  C   UNL     1     -44.219  59.726 -59.236  1.00  0.00     0.295 C 
BRANCH  36  37
HETATM   37  N   UNL     1     -43.463  59.982 -57.953  1.00  0.00    -0.073 N 
HETATM   38  H   UNL     1     -43.072  59.068 -57.651  1.00  0.00     0.279 HD
HETATM   39  C   UNL     1     -42.315  60.935 -58.111  1.00  0.00     0.269 C 
HETATM   40  C   UNL     1     -44.379  60.405 -56.840  1.00  0.00     0.269 C 
ENDBRANCH  36  37
ENDBRANCH  27  36
ENDBRANCH   2  23
TORSDOF 10
ENDMDL
