MODEL 1
REMARK VINA RESULT:      -8.2      0.000      0.000
REMARK  5 active torsions:
REMARK  status: ('A' for Active; 'I' for Inactive)
REMARK    1  A    between atoms: C_4  and  C_5 
REMARK    2  A    between atoms: C_5  and  C_6 
REMARK    3  A    between atoms: C_6  and  C_7 
REMARK       I    between atoms: C_7  and  N_8 
REMARK    4  A    between atoms: N_8  and  C_9 
REMARK    5  A    between atoms: C_16  and  C_17 
REMARK       I    between atoms: C_17  and  N_18 
ROOT
HETATM    1  C   UNL     1     -42.478  56.754 -56.247  1.00  0.00     0.035 A 
HETATM    2  C   UNL     1     -43.084  55.932 -57.206  1.00  0.00     0.046 A 
HETATM    3  C   UNL     1     -43.277  56.420 -58.519  1.00  0.00     0.030 A 
HETATM    4  C   UNL     1     -42.861  57.710 -58.823  1.00  0.00     0.063 A 
HETATM    5  N   UNL     1     -43.185  57.896 -60.138  1.00  0.00    -0.277 N 
HETATM    6  H   UNL     1     -43.032  58.728 -60.696  1.00  0.00     0.189 HD
HETATM    7  N   UNL     1     -43.768  56.836 -60.722  1.00  0.00    -0.168 NA
HETATM    8  C   UNL     1     -43.831  55.915 -59.733  1.00  0.00     0.156 A 
HETATM    9  C   UNL     1     -42.250  58.554 -57.894  1.00  0.00     0.034 A 
HETATM   10  C   UNL     1     -42.065  58.045 -56.602  1.00  0.00     0.032 A 
ENDROOT
BRANCH   1  11
HETATM   11  N   UNL     1     -42.264  56.369 -54.907  1.00  0.00    -0.326 N 
HETATM   12  C   UNL     1     -43.188  56.326 -53.885  1.00  0.00     0.231 C 
HETATM   13  O   UNL     1     -44.388  56.540 -53.951  1.00  0.00    -0.272 OA
HETATM   14  H   UNL     1     -41.315  56.127 -54.656  1.00  0.00     0.169 HD
BRANCH  12  15
HETATM   15  C   UNL     1     -42.566  55.965 -52.555  1.00  0.00     0.045 A 
HETATM   16  C   UNL     1     -42.610  57.059 -51.484  1.00  0.00     0.020 A 
HETATM   17  C   UNL     1     -41.306  56.712 -52.127  1.00  0.00     0.020 A 
BRANCH  15  18
HETATM   18  C   UNL     1     -42.729  54.522 -52.085  1.00  0.00     0.057 C 
BRANCH  18  19
HETATM   19  C   UNL     1     -41.615  53.582 -52.495  1.00  0.00    -0.057 A 
HETATM   20  C   UNL     1     -41.473  53.094 -53.800  1.00  0.00     0.007 A 
HETATM   21  C   UNL     1     -40.464  52.178 -54.117  1.00  0.00     0.001 A 
HETATM   22  C   UNL     1     -39.596  51.722 -53.130  1.00  0.00     0.000 A 
HETATM   23  C   UNL     1     -39.735  52.181 -51.823  1.00  0.00     0.001 A 
HETATM   24  C   UNL     1     -40.738  53.100 -51.508  1.00  0.00     0.007 A 
ENDBRANCH  18  19
ENDBRANCH  15  18
ENDBRANCH  12  15
ENDBRANCH   1  11
BRANCH   8  25
HETATM   25  C   UNL     1     -44.413  54.586 -59.972  1.00  0.00     0.270 C 
HETATM   26  N   UNL     1     -44.911  54.413 -61.235  1.00  0.00    -0.365 N 
HETATM   27  H   UNL     1     -44.842  55.181 -61.892  1.00  0.00     0.159 HD
HETATM   28  H   UNL     1     -45.323  53.530 -61.492  1.00  0.00     0.159 HD
HETATM   29  O   UNL     1     -44.466  53.686 -59.141  1.00  0.00    -0.266 OA
ENDBRANCH   8  25
TORSDOF 5
ENDMDL
MODEL 2
REMARK VINA RESULT:      -8.1      1.461      2.126
REMARK  5 active torsions:
REMARK  status: ('A' for Active; 'I' for Inactive)
REMARK    1  A    between atoms: C_4  and  C_5 
REMARK    2  A    between atoms: C_5  and  C_6 
REMARK    3  A    between atoms: C_6  and  C_7 
REMARK       I    between atoms: C_7  and  N_8 
REMARK    4  A    between atoms: N_8  and  C_9 
REMARK    5  A    between atoms: C_16  and  C_17 
REMARK       I    between atoms: C_17  and  N_18 
ROOT
HETATM    1  C   UNL     1     -42.595  56.401 -56.734  1.00  0.00     0.035 A 
HETATM    2  C   UNL     1     -43.210  55.738 -57.804  1.00  0.00     0.046 A 
HETATM    3  C   UNL     1     -43.886  56.488 -58.793  1.00  0.00     0.030 A 
HETATM    4  C   UNL     1     -43.926  57.872 -58.674  1.00  0.00     0.063 A 
HETATM    5  N   UNL     1     -44.644  58.309 -59.752  1.00  0.00    -0.277 N 
HETATM    6  H   UNL     1     -44.878  59.267 -59.986  1.00  0.00     0.189 HD
HETATM    7  N   UNL     1     -45.069  57.332 -60.570  1.00  0.00    -0.168 NA
HETATM    8  C   UNL     1     -44.608  56.200 -59.990  1.00  0.00     0.156 A 
HETATM    9  C   UNL     1     -43.321  58.565 -57.625  1.00  0.00     0.034 A 
HETATM   10  C   UNL     1     -42.653  57.799 -56.661  1.00  0.00     0.032 A 
ENDROOT
BRANCH   1  11
HETATM   11  N   UNL     1     -41.920  55.741 -55.687  1.00  0.00    -0.326 N 
HETATM   12  C   UNL     1     -42.410  54.755 -54.858  1.00  0.00     0.231 C 
HETATM   13  O   UNL     1     -43.498  54.204 -54.910  1.00  0.00    -0.272 OA
HETATM   14  H   UNL     1     -40.976  56.048 -55.498  1.00  0.00     0.169 HD
BRANCH  12  15
HETATM   15  C   UNL     1     -41.426  54.362 -53.778  1.00  0.00     0.045 A 
HETATM   16  C   UNL     1     -42.042  53.976 -52.430  1.00  0.00     0.020 A 
HETATM   17  C   UNL     1     -41.302  55.269 -52.557  1.00  0.00     0.020 A 
BRANCH  15  18
HETATM   18  C   UNL     1     -40.182  53.598 -54.222  1.00  0.00     0.057 C 
BRANCH  18  19
HETATM   19  C   UNL     1     -40.046  52.202 -53.653  1.00  0.00    -0.057 A 
HETATM   20  C   UNL     1     -39.611  51.953 -52.345  1.00  0.00     0.007 A 
HETATM   21  C   UNL     1     -39.442  50.644 -51.884  1.00  0.00     0.001 A 
HETATM   22  C   UNL     1     -39.686  49.565 -52.728  1.00  0.00     0.000 A 
HETATM   23  C   UNL     1     -40.101  49.794 -54.037  1.00  0.00     0.001 A 
HETATM   24  C   UNL     1     -40.276  51.101 -54.497  1.00  0.00     0.007 A 
ENDBRANCH  18  19
ENDBRANCH  15  18
ENDBRANCH  12  15
ENDBRANCH   1  11
BRANCH   8  25
HETATM   25  C   UNL     1     -44.864  54.882 -60.590  1.00  0.00     0.270 C 
HETATM   26  N   UNL     1     -45.092  53.888 -59.677  1.00  0.00    -0.365 N 
HETATM   27  H   UNL     1     -45.072  54.122 -58.692  1.00  0.00     0.159 HD
HETATM   28  H   UNL     1     -45.283  52.952 -59.996  1.00  0.00     0.159 HD
HETATM   29  O   UNL     1     -44.883  54.653 -61.794  1.00  0.00    -0.266 OA
ENDBRANCH   8  25
TORSDOF 5
ENDMDL
MODEL 3
REMARK VINA RESULT:      -7.8      2.289      3.961
REMARK  5 active torsions:
REMARK  status: ('A' for Active; 'I' for Inactive)
REMARK    1  A    between atoms: C_4  and  C_5 
REMARK    2  A    between atoms: C_5  and  C_6 
REMARK    3  A    between atoms: C_6  and  C_7 
REMARK       I    between atoms: C_7  and  N_8 
REMARK    4  A    between atoms: N_8  and  C_9 
REMARK    5  A    between atoms: C_16  and  C_17 
REMARK       I    between atoms: C_17  and  N_18 
ROOT
HETATM    1  C   UNL     1     -42.632  56.233 -52.677  1.00  0.00     0.035 A 
HETATM    2  C   UNL     1     -42.627  56.293 -54.077  1.00  0.00     0.046 A 
HETATM    3  C   UNL     1     -43.629  57.032 -54.746  1.00  0.00     0.030 A 
HETATM    4  C   UNL     1     -44.599  57.681 -53.993  1.00  0.00     0.063 A 
HETATM    5  N   UNL     1     -45.418  58.290 -54.902  1.00  0.00    -0.277 N 
HETATM    6  H   UNL     1     -46.240  58.850 -54.709  1.00  0.00     0.189 HD
HETATM    7  N   UNL     1     -45.063  58.103 -56.184  1.00  0.00    -0.168 NA
HETATM    8  C   UNL     1     -43.957  57.327 -56.104  1.00  0.00     0.156 A 
HETATM    9  C   UNL     1     -44.632  57.647 -52.598  1.00  0.00     0.034 A 
HETATM   10  C   UNL     1     -43.625  56.912 -51.958  1.00  0.00     0.032 A 
ENDROOT
BRANCH   1  11
HETATM   11  N   UNL     1     -41.692  55.503 -51.921  1.00  0.00    -0.326 N 
HETATM   12  C   UNL     1     -41.861  54.269 -51.332  1.00  0.00     0.231 C 
HETATM   13  O   UNL     1     -42.828  53.528 -51.409  1.00  0.00    -0.272 OA
HETATM   14  H   UNL     1     -40.800  55.951 -51.761  1.00  0.00     0.169 HD
BRANCH  12  15
HETATM   15  C   UNL     1     -40.664  53.850 -50.507  1.00  0.00     0.045 A 
HETATM   16  C   UNL     1     -40.984  53.195 -49.160  1.00  0.00     0.020 A 
HETATM   17  C   UNL     1     -40.413  54.576 -49.188  1.00  0.00     0.020 A 
BRANCH  15  18
HETATM   18  C   UNL     1     -39.451  53.323 -51.269  1.00  0.00     0.057 C 
BRANCH  18  19
HETATM   19  C   UNL     1     -39.714  52.115 -52.143  1.00  0.00    -0.057 A 
HETATM   20  C   UNL     1     -39.490  50.801 -51.712  1.00  0.00     0.007 A 
HETATM   21  C   UNL     1     -39.689  49.720 -52.577  1.00  0.00     0.001 A 
HETATM   22  C   UNL     1     -40.095  49.939 -53.890  1.00  0.00     0.000 A 
HETATM   23  C   UNL     1     -40.303  51.239 -54.341  1.00  0.00     0.001 A 
HETATM   24  C   UNL     1     -40.111  52.318 -53.476  1.00  0.00     0.007 A 
ENDBRANCH  18  19
ENDBRANCH  15  18
ENDBRANCH  12  15
ENDBRANCH   1  11
BRANCH   8  25
HETATM   25  C   UNL     1     -43.247  56.892 -57.315  1.00  0.00     0.270 C 
HETATM   26  N   UNL     1     -43.754  55.754 -57.881  1.00  0.00    -0.365 N 
HETATM   27  H   UNL     1     -44.553  55.311 -57.445  1.00  0.00     0.159 HD
HETATM   28  H   UNL     1     -43.335  55.384 -58.719  1.00  0.00     0.159 HD
HETATM   29  O   UNL     1     -42.284  57.470 -57.807  1.00  0.00    -0.266 OA
ENDBRANCH   8  25
TORSDOF 5
ENDMDL
MODEL 4
REMARK VINA RESULT:      -7.7      2.816      7.850
REMARK  5 active torsions:
REMARK  status: ('A' for Active; 'I' for Inactive)
REMARK    1  A    between atoms: C_4  and  C_5 
REMARK    2  A    between atoms: C_5  and  C_6 
REMARK    3  A    between atoms: C_6  and  C_7 
REMARK       I    between atoms: C_7  and  N_8 
REMARK    4  A    between atoms: N_8  and  C_9 
REMARK    5  A    between atoms: C_16  and  C_17 
REMARK       I    between atoms: C_17  and  N_18 
ROOT
HETATM    1  C   UNL     1     -41.183  54.897 -54.129  1.00  0.00     0.035 A 
HETATM    2  C   UNL     1     -41.205  54.822 -52.730  1.00  0.00     0.046 A 
HETATM    3  C   UNL     1     -40.707  53.666 -52.086  1.00  0.00     0.030 A 
HETATM    4  C   UNL     1     -40.209  52.628 -52.863  1.00  0.00     0.063 A 
HETATM    5  N   UNL     1     -39.818  51.665 -51.976  1.00  0.00    -0.277 N 
HETATM    6  H   UNL     1     -39.412  50.762 -52.190  1.00  0.00     0.189 HD
HETATM    7  N   UNL     1     -40.009  51.986 -50.686  1.00  0.00    -0.168 NA
HETATM    8  C   UNL     1     -40.558  53.222 -50.738  1.00  0.00     0.156 A 
HETATM    9  C   UNL     1     -40.167  52.671 -54.258  1.00  0.00     0.034 A 
HETATM   10  C   UNL     1     -40.662  53.829 -54.871  1.00  0.00     0.032 A 
ENDROOT
BRANCH   1  11
HETATM   11  N   UNL     1     -41.679  55.994 -54.862  1.00  0.00    -0.326 N 
HETATM   12  C   UNL     1     -42.993  56.376 -55.022  1.00  0.00     0.231 C 
HETATM   13  O   UNL     1     -43.984  55.888 -54.503  1.00  0.00    -0.272 OA
HETATM   14  H   UNL     1     -40.994  56.549 -55.358  1.00  0.00     0.169 HD
BRANCH  12  15
HETATM   15  C   UNL     1     -43.147  57.545 -55.970  1.00  0.00     0.045 A 
HETATM   16  C   UNL     1     -43.185  58.929 -55.315  1.00  0.00     0.020 A 
HETATM   17  C   UNL     1     -44.437  58.359 -55.900  1.00  0.00     0.020 A 
BRANCH  15  18
HETATM   18  C   UNL     1     -42.453  57.432 -57.325  1.00  0.00     0.057 C 
BRANCH  18  19
HETATM   19  C   UNL     1     -43.281  56.800 -58.422  1.00  0.00    -0.057 A 
HETATM   20  C   UNL     1     -43.397  55.414 -58.585  1.00  0.00     0.007 A 
HETATM   21  C   UNL     1     -44.124  54.876 -59.652  1.00  0.00     0.001 A 
HETATM   22  C   UNL     1     -44.728  55.716 -60.583  1.00  0.00     0.000 A 
HETATM   23  C   UNL     1     -44.607  57.096 -60.448  1.00  0.00     0.001 A 
HETATM   24  C   UNL     1     -43.887  57.633 -59.379  1.00  0.00     0.007 A 
ENDBRANCH  18  19
ENDBRANCH  15  18
ENDBRANCH  12  15
ENDBRANCH   1  11
BRANCH   8  25
HETATM   25  C   UNL     1     -40.921  53.942 -49.509  1.00  0.00     0.270 C 
HETATM   26  N   UNL     1     -39.897  54.062 -48.608  1.00  0.00    -0.365 N 
HETATM   27  H   UNL     1     -38.996  53.665 -48.844  1.00  0.00     0.159 HD
HETATM   28  H   UNL     1     -40.052  54.547 -47.739  1.00  0.00     0.159 HD
HETATM   29  O   UNL     1     -42.029  54.410 -49.274  1.00  0.00    -0.266 OA
ENDBRANCH   8  25
TORSDOF 5
ENDMDL
MODEL 5
REMARK VINA RESULT:      -7.7      4.134      6.495
REMARK  5 active torsions:
REMARK  status: ('A' for Active; 'I' for Inactive)
REMARK    1  A    between atoms: C_4  and  C_5 
REMARK    2  A    between atoms: C_5  and  C_6 
REMARK    3  A    between atoms: C_6  and  C_7 
REMARK       I    between atoms: C_7  and  N_8 
REMARK    4  A    between atoms: N_8  and  C_9 
REMARK    5  A    between atoms: C_16  and  C_17 
REMARK       I    between atoms: C_17  and  N_18 
ROOT
HETATM    1  C   UNL     1     -42.019  57.412 -52.135  1.00  0.00     0.035 A 
HETATM    2  C   UNL     1     -43.259  57.981 -51.815  1.00  0.00     0.046 A 
HETATM    3  C   UNL     1     -43.303  59.244 -51.183  1.00  0.00     0.030 A 
HETATM    4  C   UNL     1     -42.108  59.891 -50.891  1.00  0.00     0.063 A 
HETATM    5  N   UNL     1     -42.468  61.062 -50.285  1.00  0.00    -0.277 N 
HETATM    6  H   UNL     1     -41.851  61.784 -49.931  1.00  0.00     0.189 HD
HETATM    7  N   UNL     1     -43.793  61.242 -50.163  1.00  0.00    -0.168 NA
HETATM    8  C   UNL     1     -44.324  60.126 -50.715  1.00  0.00     0.156 A 
HETATM    9  C   UNL     1     -40.857  59.356 -51.200  1.00  0.00     0.034 A 
HETATM   10  C   UNL     1     -40.840  58.105 -51.830  1.00  0.00     0.032 A 
ENDROOT
BRANCH   1  11
HETATM   11  N   UNL     1     -41.870  56.148 -52.742  1.00  0.00    -0.326 N 
HETATM   12  C   UNL     1     -41.612  55.876 -54.068  1.00  0.00     0.231 C 
HETATM   13  O   UNL     1     -41.387  56.671 -54.966  1.00  0.00    -0.272 OA
HETATM   14  H   UNL     1     -42.001  55.344 -52.143  1.00  0.00     0.169 HD
BRANCH  12  15
HETATM   15  C   UNL     1     -41.628  54.394 -54.371  1.00  0.00     0.045 A 
HETATM   16  C   UNL     1     -42.833  53.894 -55.174  1.00  0.00     0.020 A 
HETATM   17  C   UNL     1     -42.718  53.542 -53.725  1.00  0.00     0.020 A 
BRANCH  15  18
HETATM   18  C   UNL     1     -40.281  53.731 -54.647  1.00  0.00     0.057 C 
BRANCH  18  19
HETATM   19  C   UNL     1     -40.021  52.454 -53.877  1.00  0.00    -0.057 A 
HETATM   20  C   UNL     1     -40.070  51.186 -54.468  1.00  0.00     0.007 A 
HETATM   21  C   UNL     1     -39.884  50.031 -53.702  1.00  0.00     0.001 A 
HETATM   22  C   UNL     1     -39.667  50.126 -52.331  1.00  0.00     0.000 A 
HETATM   23  C   UNL     1     -39.634  51.378 -51.722  1.00  0.00     0.001 A 
HETATM   24  C   UNL     1     -39.814  52.532 -52.488  1.00  0.00     0.007 A 
ENDBRANCH  18  19
ENDBRANCH  15  18
ENDBRANCH  12  15
ENDBRANCH   1  11
BRANCH   8  25
HETATM   25  C   UNL     1     -45.779  59.932 -50.781  1.00  0.00     0.270 C 
HETATM   26  N   UNL     1     -46.451  60.952 -51.401  1.00  0.00    -0.365 N 
HETATM   27  H   UNL     1     -45.918  61.735 -51.759  1.00  0.00     0.159 HD
HETATM   28  H   UNL     1     -47.452  60.902 -51.499  1.00  0.00     0.159 HD
HETATM   29  O   UNL     1     -46.377  58.959 -50.336  1.00  0.00    -0.266 OA
ENDBRANCH   8  25
TORSDOF 5
ENDMDL
MODEL 6
REMARK VINA RESULT:      -7.6      1.781      3.049
REMARK  5 active torsions:
REMARK  status: ('A' for Active; 'I' for Inactive)
REMARK    1  A    between atoms: C_4  and  C_5 
REMARK    2  A    between atoms: C_5  and  C_6 
REMARK    3  A    between atoms: C_6  and  C_7 
REMARK       I    between atoms: C_7  and  N_8 
REMARK    4  A    between atoms: N_8  and  C_9 
REMARK    5  A    between atoms: C_16  and  C_17 
REMARK       I    between atoms: C_17  and  N_18 
ROOT
HETATM    1  C   UNL     1     -42.418  56.655 -56.182  1.00  0.00     0.035 A 
HETATM    2  C   UNL     1     -42.189  57.967 -56.619  1.00  0.00     0.046 A 
HETATM    3  C   UNL     1     -42.372  58.288 -57.983  1.00  0.00     0.030 A 
HETATM    4  C   UNL     1     -42.773  57.288 -58.860  1.00  0.00     0.063 A 
HETATM    5  N   UNL     1     -42.853  57.889 -60.085  1.00  0.00    -0.277 N 
HETATM    6  H   UNL     1     -43.111  57.457 -60.964  1.00  0.00     0.189 HD
HETATM    7  N   UNL     1     -42.548  59.197 -60.084  1.00  0.00    -0.168 NA
HETATM    8  C   UNL     1     -42.250  59.459 -58.790  1.00  0.00     0.156 A 
HETATM    9  C   UNL     1     -43.013  55.973 -58.458  1.00  0.00     0.034 A 
HETATM   10  C   UNL     1     -42.830  55.681 -57.101  1.00  0.00     0.032 A 
ENDROOT
BRANCH   1  11
HETATM   11  N   UNL     1     -42.239  56.231 -54.849  1.00  0.00    -0.326 N 
HETATM   12  C   UNL     1     -43.194  56.138 -53.859  1.00  0.00     0.231 C 
HETATM   13  O   UNL     1     -44.395  56.331 -53.957  1.00  0.00    -0.272 OA
HETATM   14  H   UNL     1     -41.294  56.000 -54.575  1.00  0.00     0.169 HD
BRANCH  12  15
HETATM   15  C   UNL     1     -42.607  55.746 -52.521  1.00  0.00     0.045 A 
HETATM   16  C   UNL     1     -42.747  56.788 -51.406  1.00  0.00     0.020 A 
HETATM   17  C   UNL     1     -41.403  56.533 -52.009  1.00  0.00     0.020 A 
BRANCH  15  18
HETATM   18  C   UNL     1     -42.716  54.277 -52.122  1.00  0.00     0.057 C 
BRANCH  18  19
HETATM   19  C   UNL     1     -41.566  53.401 -52.572  1.00  0.00    -0.057 A 
HETATM   20  C   UNL     1     -41.407  52.975 -53.897  1.00  0.00     0.007 A 
HETATM   21  C   UNL     1     -40.364  52.115 -54.252  1.00  0.00     0.001 A 
HETATM   22  C   UNL     1     -39.476  51.652 -53.285  1.00  0.00     0.000 A 
HETATM   23  C   UNL     1     -39.631  52.049 -51.960  1.00  0.00     0.001 A 
HETATM   24  C   UNL     1     -40.669  52.913 -51.606  1.00  0.00     0.007 A 
ENDBRANCH  18  19
ENDBRANCH  15  18
ENDBRANCH  12  15
ENDBRANCH   1  11
BRANCH   8  25
HETATM   25  C   UNL     1     -41.860  60.810 -58.361  1.00  0.00     0.270 C 
HETATM   26  N   UNL     1     -42.880  61.722 -58.390  1.00  0.00    -0.365 N 
HETATM   27  H   UNL     1     -43.797  61.413 -58.689  1.00  0.00     0.159 HD
HETATM   28  H   UNL     1     -42.708  62.672 -58.106  1.00  0.00     0.159 HD
HETATM   29  O   UNL     1     -40.733  61.132 -58.001  1.00  0.00    -0.266 OA
ENDBRANCH   8  25
TORSDOF 5
ENDMDL
MODEL 7
REMARK VINA RESULT:      -7.6      2.321      2.904
REMARK  5 active torsions:
REMARK  status: ('A' for Active; 'I' for Inactive)
REMARK    1  A    between atoms: C_4  and  C_5 
REMARK    2  A    between atoms: C_5  and  C_6 
REMARK    3  A    between atoms: C_6  and  C_7 
REMARK       I    between atoms: C_7  and  N_8 
REMARK    4  A    between atoms: N_8  and  C_9 
REMARK    5  A    between atoms: C_16  and  C_17 
REMARK       I    between atoms: C_17  and  N_18 
ROOT
HETATM    1  C   UNL     1     -43.275  56.473 -57.080  1.00  0.00     0.035 A 
HETATM    2  C   UNL     1     -44.237  57.483 -57.209  1.00  0.00     0.046 A 
HETATM    3  C   UNL     1     -44.897  57.662 -58.446  1.00  0.00     0.030 A 
HETATM    4  C   UNL     1     -44.569  56.829 -59.508  1.00  0.00     0.063 A 
HETATM    5  N   UNL     1     -45.349  57.244 -60.550  1.00  0.00    -0.277 N 
HETATM    6  H   UNL     1     -45.371  56.865 -61.490  1.00  0.00     0.189 HD
HETATM    7  N   UNL     1     -46.166  58.270 -60.260  1.00  0.00    -0.168 NA
HETATM    8  C   UNL     1     -45.899  58.539 -58.961  1.00  0.00     0.156 A 
HETATM    9  C   UNL     1     -43.619  55.811 -59.413  1.00  0.00     0.034 A 
HETATM   10  C   UNL     1     -42.983  55.650 -58.176  1.00  0.00     0.032 A 
ENDROOT
BRANCH   1  11
HETATM   11  N   UNL     1     -42.546  56.232 -55.897  1.00  0.00    -0.326 N 
HETATM   12  C   UNL     1     -42.949  55.517 -54.789  1.00  0.00     0.231 C 
HETATM   13  O   UNL     1     -43.985  54.889 -54.640  1.00  0.00    -0.272 OA
HETATM   14  H   UNL     1     -41.633  56.661 -55.837  1.00  0.00     0.169 HD
BRANCH  12  15
HETATM   15  C   UNL     1     -41.937  55.565 -53.667  1.00  0.00     0.045 A 
HETATM   16  C   UNL     1     -41.586  56.964 -53.151  1.00  0.00     0.020 A 
HETATM   17  C   UNL     1     -40.580  56.203 -53.952  1.00  0.00     0.020 A 
BRANCH  15  18
HETATM   18  C   UNL     1     -41.988  54.435 -52.642  1.00  0.00     0.057 C 
BRANCH  18  19
HETATM   19  C   UNL     1     -41.087  53.256 -52.938  1.00  0.00    -0.057 A 
HETATM   20  C   UNL     1     -41.121  52.558 -54.152  1.00  0.00     0.007 A 
HETATM   21  C   UNL     1     -40.312  51.436 -54.355  1.00  0.00     0.001 A 
HETATM   22  C   UNL     1     -39.472  50.984 -53.342  1.00  0.00     0.000 A 
HETATM   23  C   UNL     1     -39.439  51.653 -52.122  1.00  0.00     0.001 A 
HETATM   24  C   UNL     1     -40.242  52.778 -51.921  1.00  0.00     0.007 A 
ENDBRANCH  18  19
ENDBRANCH  15  18
ENDBRANCH  12  15
ENDBRANCH   1  11
BRANCH   8  25
HETATM   25  C   UNL     1     -46.601  59.618 -58.250  1.00  0.00     0.270 C 
HETATM   26  N   UNL     1     -47.756  59.220 -57.633  1.00  0.00    -0.365 N 
HETATM   27  H   UNL     1     -48.033  58.248 -57.704  1.00  0.00     0.159 HD
HETATM   28  H   UNL     1     -48.301  59.890 -57.116  1.00  0.00     0.159 HD
HETATM   29  O   UNL     1     -46.219  60.781 -58.190  1.00  0.00    -0.266 OA
ENDBRANCH   8  25
TORSDOF 5
ENDMDL
MODEL 8
REMARK VINA RESULT:      -7.4      1.788      2.379
REMARK  5 active torsions:
REMARK  status: ('A' for Active; 'I' for Inactive)
REMARK    1  A    between atoms: C_4  and  C_5 
REMARK    2  A    between atoms: C_5  and  C_6 
REMARK    3  A    between atoms: C_6  and  C_7 
REMARK       I    between atoms: C_7  and  N_8 
REMARK    4  A    between atoms: N_8  and  C_9 
REMARK    5  A    between atoms: C_16  and  C_17 
REMARK       I    between atoms: C_17  and  N_18 
ROOT
HETATM    1  C   UNL     1     -43.202  56.631 -54.569  1.00  0.00     0.035 A 
HETATM    2  C   UNL     1     -43.175  56.189 -55.899  1.00  0.00     0.046 A 
HETATM    3  C   UNL     1     -43.624  57.048 -56.927  1.00  0.00     0.030 A 
HETATM    4  C   UNL     1     -44.086  58.314 -56.590  1.00  0.00     0.063 A 
HETATM    5  N   UNL     1     -44.454  58.894 -57.772  1.00  0.00    -0.277 N 
HETATM    6  H   UNL     1     -44.842  59.820 -57.906  1.00  0.00     0.189 HD
HETATM    7  N   UNL     1     -44.263  58.121 -58.854  1.00  0.00    -0.168 NA
HETATM    8  C   UNL     1     -43.750  56.976 -58.347  1.00  0.00     0.156 A 
HETATM    9  C   UNL     1     -44.123  58.788 -55.278  1.00  0.00     0.034 A 
HETATM   10  C   UNL     1     -43.668  57.920 -54.277  1.00  0.00     0.032 A 
ENDROOT
BRANCH   1  11
HETATM   11  N   UNL     1     -42.800  55.841 -53.473  1.00  0.00    -0.326 N 
HETATM   12  C   UNL     1     -41.543  55.338 -53.213  1.00  0.00     0.231 C 
HETATM   13  O   UNL     1     -40.513  55.537 -53.837  1.00  0.00    -0.272 OA
HETATM   14  H   UNL     1     -43.523  55.583 -52.816  1.00  0.00     0.169 HD
BRANCH  12  15
HETATM   15  C   UNL     1     -41.516  54.442 -51.995  1.00  0.00     0.045 A 
HETATM   16  C   UNL     1     -42.804  53.658 -51.721  1.00  0.00     0.020 A 
HETATM   17  C   UNL     1     -42.431  54.795 -50.825  1.00  0.00     0.020 A 
BRANCH  15  18
HETATM   18  C   UNL     1     -40.195  53.747 -51.678  1.00  0.00     0.057 C 
BRANCH  18  19
HETATM   19  C   UNL     1     -40.010  52.390 -52.322  1.00  0.00    -0.057 A 
HETATM   20  C   UNL     1     -40.199  52.166 -53.691  1.00  0.00     0.007 A 
HETATM   21  C   UNL     1     -40.077  50.880 -54.230  1.00  0.00     0.001 A 
HETATM   22  C   UNL     1     -39.783  49.799 -53.404  1.00  0.00     0.000 A 
HETATM   23  C   UNL     1     -39.611  50.000 -52.038  1.00  0.00     0.001 A 
HETATM   24  C   UNL     1     -39.727  51.284 -51.501  1.00  0.00     0.007 A 
ENDBRANCH  18  19
ENDBRANCH  15  18
ENDBRANCH  12  15
ENDBRANCH   1  11
BRANCH   8  25
HETATM   25  C   UNL     1     -43.394  55.851 -59.225  1.00  0.00     0.270 C 
HETATM   26  N   UNL     1     -44.183  54.744 -59.062  1.00  0.00    -0.365 N 
HETATM   27  H   UNL     1     -44.928  54.778 -58.377  1.00  0.00     0.159 HD
HETATM   28  H   UNL     1     -44.017  53.927 -59.626  1.00  0.00     0.159 HD
HETATM   29  O   UNL     1     -42.482  55.864 -60.044  1.00  0.00    -0.266 OA
ENDBRANCH   8  25
TORSDOF 5
ENDMDL
MODEL 9
REMARK VINA RESULT:      -7.3      2.907      7.327
REMARK  5 active torsions:
REMARK  status: ('A' for Active; 'I' for Inactive)
REMARK    1  A    between atoms: C_4  and  C_5 
REMARK    2  A    between atoms: C_5  and  C_6 
REMARK    3  A    between atoms: C_6  and  C_7 
REMARK       I    between atoms: C_7  and  N_8 
REMARK    4  A    between atoms: N_8  and  C_9 
REMARK    5  A    between atoms: C_16  and  C_17 
REMARK       I    between atoms: C_17  and  N_18 
ROOT
HETATM    1  C   UNL     1     -41.536  55.300 -53.616  1.00  0.00     0.035 A 
HETATM    2  C   UNL     1     -41.087  53.988 -53.816  1.00  0.00     0.046 A 
HETATM    3  C   UNL     1     -40.609  53.241 -52.716  1.00  0.00     0.030 A 
HETATM    4  C   UNL     1     -40.595  53.831 -51.459  1.00  0.00     0.063 A 
HETATM    5  N   UNL     1     -40.081  52.884 -50.618  1.00  0.00    -0.277 N 
HETATM    6  H   UNL     1     -39.920  52.971 -49.621  1.00  0.00     0.189 HD
HETATM    7  N   UNL     1     -39.765  51.723 -51.214  1.00  0.00    -0.168 NA
HETATM    8  C   UNL     1     -40.087  51.927 -52.513  1.00  0.00     0.156 A 
HETATM    9  C   UNL     1     -41.040  55.133 -51.223  1.00  0.00     0.034 A 
HETATM   10  C   UNL     1     -41.513  55.851 -52.328  1.00  0.00     0.032 A 
ENDROOT
BRANCH   1  11
HETATM   11  N   UNL     1     -42.007  56.134 -54.651  1.00  0.00    -0.326 N 
HETATM   12  C   UNL     1     -43.315  56.453 -54.948  1.00  0.00     0.231 C 
HETATM   13  O   UNL     1     -44.320  56.141 -54.330  1.00  0.00    -0.272 OA
HETATM   14  H   UNL     1     -41.307  56.516 -55.272  1.00  0.00     0.169 HD
BRANCH  12  15
HETATM   15  C   UNL     1     -43.439  57.291 -56.201  1.00  0.00     0.045 A 
HETATM   16  C   UNL     1     -43.691  58.785 -55.976  1.00  0.00     0.020 A 
HETATM   17  C   UNL     1     -44.793  57.925 -56.508  1.00  0.00     0.020 A 
BRANCH  15  18
HETATM   18  C   UNL     1     -42.554  56.902 -57.382  1.00  0.00     0.057 C 
BRANCH  18  19
HETATM   19  C   UNL     1     -43.281  56.270 -58.550  1.00  0.00    -0.057 A 
HETATM   20  C   UNL     1     -43.652  56.989 -59.693  1.00  0.00     0.007 A 
HETATM   21  C   UNL     1     -44.377  56.377 -60.720  1.00  0.00     0.001 A 
HETATM   22  C   UNL     1     -44.758  55.043 -60.610  1.00  0.00     0.000 A 
HETATM   23  C   UNL     1     -44.415  54.318 -59.472  1.00  0.00     0.001 A 
HETATM   24  C   UNL     1     -43.685  54.928 -58.450  1.00  0.00     0.007 A 
ENDBRANCH  18  19
ENDBRANCH  15  18
ENDBRANCH  12  15
ENDBRANCH   1  11
BRANCH   8  25
HETATM   25  C   UNL     1     -39.891  50.872 -53.517  1.00  0.00     0.270 C 
HETATM   26  N   UNL     1     -39.616  49.641 -52.987  1.00  0.00    -0.365 N 
HETATM   27  H   UNL     1     -39.572  49.546 -51.980  1.00  0.00     0.159 HD
HETATM   28  H   UNL     1     -39.473  48.855 -53.601  1.00  0.00     0.159 HD
HETATM   29  O   UNL     1     -39.961  51.039 -54.730  1.00  0.00    -0.266 OA
ENDBRANCH   8  25
TORSDOF 5
ENDMDL
MODEL 10
REMARK VINA RESULT:      -7.2      3.052      4.409
REMARK  5 active torsions:
REMARK  status: ('A' for Active; 'I' for Inactive)
REMARK    1  A    between atoms: C_4  and  C_5 
REMARK    2  A    between atoms: C_5  and  C_6 
REMARK    3  A    between atoms: C_6  and  C_7 
REMARK       I    between atoms: C_7  and  N_8 
REMARK    4  A    between atoms: N_8  and  C_9 
REMARK    5  A    between atoms: C_16  and  C_17 
REMARK       I    between atoms: C_17  and  N_18 
ROOT
HETATM    1  C   UNL     1     -41.887  55.136 -53.469  1.00  0.00     0.035 A 
HETATM    2  C   UNL     1     -42.548  56.370 -53.523  1.00  0.00     0.046 A 
HETATM    3  C   UNL     1     -43.173  56.773 -54.725  1.00  0.00     0.030 A 
HETATM    4  C   UNL     1     -43.112  55.931 -55.828  1.00  0.00     0.063 A 
HETATM    5  N   UNL     1     -43.784  56.585 -56.822  1.00  0.00    -0.277 N 
HETATM    6  H   UNL     1     -43.934  56.267 -57.773  1.00  0.00     0.189 HD
HETATM    7  N   UNL     1     -44.287  57.777 -56.463  1.00  0.00    -0.168 NA
HETATM    8  C   UNL     1     -43.919  57.907 -55.167  1.00  0.00     0.156 A 
HETATM    9  C   UNL     1     -42.466  54.694 -55.808  1.00  0.00     0.034 A 
HETATM   10  C   UNL     1     -41.859  54.315 -54.604  1.00  0.00     0.032 A 
ENDROOT
BRANCH   1  11
HETATM   11  N   UNL     1     -41.214  54.657 -52.326  1.00  0.00    -0.326 N 
HETATM   12  C   UNL     1     -41.746  53.948 -51.270  1.00  0.00     0.231 C 
HETATM   13  O   UNL     1     -42.885  53.529 -51.147  1.00  0.00    -0.272 OA
HETATM   14  H   UNL     1     -40.233  54.889 -52.253  1.00  0.00     0.169 HD
BRANCH  12  15
HETATM   15  C   UNL     1     -40.737  53.700 -50.170  1.00  0.00     0.045 A 
HETATM   16  C   UNL     1     -40.846  54.622 -48.951  1.00  0.00     0.020 A 
HETATM   17  C   UNL     1     -39.697  54.783 -49.894  1.00  0.00     0.020 A 
BRANCH  15  18
HETATM   18  C   UNL     1     -40.336  52.250 -49.916  1.00  0.00     0.057 C 
BRANCH  18  19
HETATM   19  C   UNL     1     -40.042  51.436 -51.158  1.00  0.00    -0.057 A 
HETATM   20  C   UNL     1     -39.908  50.042 -51.139  1.00  0.00     0.007 A 
HETATM   21  C   UNL     1     -39.574  49.339 -52.302  1.00  0.00     0.001 A 
HETATM   22  C   UNL     1     -39.351  50.021 -53.494  1.00  0.00     0.000 A 
HETATM   23  C   UNL     1     -39.461  51.408 -53.526  1.00  0.00     0.001 A 
HETATM   24  C   UNL     1     -39.800  52.110 -52.367  1.00  0.00     0.007 A 
ENDBRANCH  18  19
ENDBRANCH  15  18
ENDBRANCH  12  15
ENDBRANCH   1  11
BRANCH   8  25
HETATM   25  C   UNL     1     -44.285  59.100 -54.391  1.00  0.00     0.270 C 
HETATM   26  N   UNL     1     -45.593  59.480 -54.535  1.00  0.00    -0.365 N 
HETATM   27  H   UNL     1     -46.193  58.932 -55.139  1.00  0.00     0.159 HD
HETATM   28  H   UNL     1     -45.936  60.284 -54.035  1.00  0.00     0.159 HD
HETATM   29  O   UNL     1     -43.520  59.727 -53.667  1.00  0.00    -0.266 OA
ENDBRANCH   8  25
TORSDOF 5
ENDMDL
