MODEL 1
REMARK VINA RESULT:      -9.0      0.000      0.000
REMARK  4 active torsions:
REMARK  status: ('A' for Active; 'I' for Inactive)
REMARK    1  A    between atoms: C_5  and  C_6 
REMARK    2  A    between atoms: C_6  and  N_7 
REMARK    3  A    between atoms: C_6  and  C_18 
REMARK    4  A    between atoms: N_7  and  C_8 
ROOT
HETATM    1  C   UNL     1     -40.516  53.276 -53.025  1.00  0.00     0.290 C 
ENDROOT
BRANCH   1   2
HETATM    2  C   UNL     1     -40.751  53.725 -51.594  1.00  0.00     0.021 A 
HETATM    3  C   UNL     1     -39.737  53.776 -50.622  1.00  0.00     0.055 A 
HETATM    4  C   UNL     1     -40.022  54.220 -49.332  1.00  0.00     0.117 A 
HETATM    5  C   UNL     1     -41.301  54.629 -48.976  1.00  0.00     0.045 A 
HETATM    6  F   UNL     1     -39.041  54.248 -48.421  1.00  0.00    -0.206 F 
HETATM    7  C   UNL     1     -42.317  54.594 -49.928  1.00  0.00     0.046 A 
HETATM    8  C   UNL     1     -42.035  54.149 -51.218  1.00  0.00     0.125 A 
HETATM    9  F   UNL     1     -43.034  54.109 -52.114  1.00  0.00    -0.205 F 
ENDBRANCH   1   2
BRANCH   1  10
HETATM   10  N   UNL     1     -41.635  53.529 -53.963  1.00  0.00     0.101 N 
HETATM   11  H   UNL     1     -42.396  53.943 -53.421  1.00  0.00     0.317 HD
BRANCH  10  12
HETATM   12  C   UNL     1     -41.342  54.352 -55.145  1.00  0.00     0.225 C 
HETATM   13  C   UNL     1     -40.492  55.556 -54.673  1.00  0.00     0.069 C 
HETATM   14  C   UNL     1     -41.335  56.509 -53.839  1.00  0.00     0.190 C 
HETATM   15  N   UNL     1     -42.490  56.989 -54.682  1.00  0.00    -0.067 N 
HETATM   16  C   UNL     1     -40.702  57.827 -53.440  1.00  0.00     0.035 C 
HETATM   17  H   UNL     1     -42.111  57.398 -55.548  1.00  0.00     0.280 HD
HETATM   18  C   UNL     1     -43.405  55.872 -55.071  1.00  0.00     0.237 C 
HETATM   19  C   UNL     1     -43.090  58.132 -53.906  1.00  0.00     0.235 C 
HETATM   20  C   UNL     1     -42.594  54.868 -55.888  1.00  0.00     0.063 C 
HETATM   21  C   UNL     1     -41.912  58.704 -53.115  1.00  0.00     0.030 C 
ENDBRANCH  10  12
ENDBRANCH   1  10
BRANCH   1  22
HETATM   22  C   UNL     1     -40.102  51.811 -53.138  1.00  0.00    -0.018 A 
HETATM   23  C   UNL     1     -40.068  51.191 -54.397  1.00  0.00     0.029 A 
HETATM   24  C   UNL     1     -39.720  49.851 -54.479  1.00  0.00     0.116 A 
HETATM   25  N   UNL     1     -39.414  49.092 -53.410  1.00  0.00    -0.273 NA
HETATM   26  C   UNL     1     -39.444  49.696 -52.206  1.00  0.00     0.116 A 
HETATM   27  C   UNL     1     -39.783  51.028 -52.020  1.00  0.00     0.029 A 
ENDBRANCH   1  22
TORSDOF 4
ENDMDL
MODEL 2
REMARK VINA RESULT:      -8.4      2.401      4.814
REMARK  4 active torsions:
REMARK  status: ('A' for Active; 'I' for Inactive)
REMARK    1  A    between atoms: C_5  and  C_6 
REMARK    2  A    between atoms: C_6  and  N_7 
REMARK    3  A    between atoms: C_6  and  C_18 
REMARK    4  A    between atoms: N_7  and  C_8 
ROOT
HETATM    1  C   UNL     1     -41.985  55.542 -52.562  1.00  0.00     0.290 C 
ENDROOT
BRANCH   1   2
HETATM    2  C   UNL     1     -41.351  54.368 -51.836  1.00  0.00     0.021 A 
HETATM    3  C   UNL     1     -40.369  53.542 -52.409  1.00  0.00     0.055 A 
HETATM    4  C   UNL     1     -39.816  52.495 -51.674  1.00  0.00     0.117 A 
HETATM    5  C   UNL     1     -40.208  52.246 -50.365  1.00  0.00     0.045 A 
HETATM    6  F   UNL     1     -38.890  51.715 -52.247  1.00  0.00    -0.206 F 
HETATM    7  C   UNL     1     -41.173  53.059 -49.777  1.00  0.00     0.046 A 
HETATM    8  C   UNL     1     -41.730  54.106 -50.510  1.00  0.00     0.125 A 
HETATM    9  F   UNL     1     -42.669  54.866 -49.927  1.00  0.00    -0.205 F 
ENDBRANCH   1   2
BRANCH   1  10
HETATM   10  N   UNL     1     -42.137  55.377 -54.026  1.00  0.00     0.101 N 
HETATM   11  H   UNL     1     -41.487  54.646 -54.318  1.00  0.00     0.317 HD
BRANCH  10  12
HETATM   12  C   UNL     1     -43.489  55.091 -54.529  1.00  0.00     0.225 C 
HETATM   13  C   UNL     1     -43.357  54.707 -56.023  1.00  0.00     0.069 C 
HETATM   14  C   UNL     1     -42.973  55.923 -56.853  1.00  0.00     0.190 C 
HETATM   15  N   UNL     1     -44.039  56.976 -56.681  1.00  0.00    -0.067 N 
HETATM   16  C   UNL     1     -42.968  55.761 -58.360  1.00  0.00     0.035 C 
HETATM   17  H   UNL     1     -44.948  56.559 -56.926  1.00  0.00     0.280 HD
HETATM   18  C   UNL     1     -44.129  57.461 -55.268  1.00  0.00     0.237 C 
HETATM   19  C   UNL     1     -43.748  58.003 -57.744  1.00  0.00     0.235 C 
HETATM   20  C   UNL     1     -44.483  56.265 -54.387  1.00  0.00     0.063 C 
HETATM   21  C   UNL     1     -43.075  57.202 -58.861  1.00  0.00     0.030 C 
ENDBRANCH  10  12
ENDBRANCH   1  10
BRANCH   1  22
HETATM   22  C   UNL     1     -41.286  56.870 -52.286  1.00  0.00    -0.018 A 
HETATM   23  C   UNL     1     -40.836  57.657 -53.358  1.00  0.00     0.029 A 
HETATM   24  C   UNL     1     -40.175  58.846 -53.090  1.00  0.00     0.116 A 
HETATM   25  N   UNL     1     -39.927  59.300 -51.847  1.00  0.00    -0.273 NA
HETATM   26  C   UNL     1     -40.368  58.542 -50.823  1.00  0.00     0.116 A 
HETATM   27  C   UNL     1     -41.034  57.336 -50.988  1.00  0.00     0.029 A 
ENDBRANCH   1  22
TORSDOF 4
ENDMDL
MODEL 3
REMARK VINA RESULT:      -8.2      2.267      4.842
REMARK  4 active torsions:
REMARK  status: ('A' for Active; 'I' for Inactive)
REMARK    1  A    between atoms: C_5  and  C_6 
REMARK    2  A    between atoms: C_6  and  N_7 
REMARK    3  A    between atoms: C_6  and  C_18 
REMARK    4  A    between atoms: N_7  and  C_8 
ROOT
HETATM    1  C   UNL     1     -41.888  55.417 -52.709  1.00  0.00     0.290 C 
ENDROOT
BRANCH   1   2
HETATM    2  C   UNL     1     -41.155  54.232 -52.105  1.00  0.00     0.021 A 
HETATM    3  C   UNL     1     -41.204  53.905 -50.739  1.00  0.00     0.055 A 
HETATM    4  C   UNL     1     -40.522  52.788 -50.259  1.00  0.00     0.117 A 
HETATM    5  C   UNL     1     -39.791  51.969 -51.110  1.00  0.00     0.045 A 
HETATM    6  F   UNL     1     -40.574  52.506 -48.951  1.00  0.00    -0.206 F 
HETATM    7  C   UNL     1     -39.739  52.271 -52.468  1.00  0.00     0.046 A 
HETATM    8  C   UNL     1     -40.417  53.388 -52.951  1.00  0.00     0.125 A 
HETATM    9  F   UNL     1     -40.340  53.668 -54.261  1.00  0.00    -0.205 F 
ENDBRANCH   1   2
BRANCH   1  10
HETATM   10  N   UNL     1     -42.089  55.360 -54.176  1.00  0.00     0.101 N 
HETATM   11  H   UNL     1     -41.437  54.666 -54.544  1.00  0.00     0.317 HD
BRANCH  10  12
HETATM   12  C   UNL     1     -43.452  55.084 -54.652  1.00  0.00     0.225 C 
HETATM   13  C   UNL     1     -43.352  54.690 -56.146  1.00  0.00     0.069 C 
HETATM   14  C   UNL     1     -42.971  55.897 -56.990  1.00  0.00     0.190 C 
HETATM   15  N   UNL     1     -44.023  56.962 -56.805  1.00  0.00    -0.067 N 
HETATM   16  C   UNL     1     -42.996  55.726 -58.496  1.00  0.00     0.035 C 
HETATM   17  H   UNL     1     -44.941  56.552 -57.031  1.00  0.00     0.280 HD
HETATM   18  C   UNL     1     -44.083  57.455 -55.394  1.00  0.00     0.237 C 
HETATM   19  C   UNL     1     -43.741  57.979 -57.879  1.00  0.00     0.235 C 
HETATM   20  C   UNL     1     -44.432  56.268 -54.499  1.00  0.00     0.063 C 
HETATM   21  C   UNL     1     -43.098  57.165 -59.003  1.00  0.00     0.030 C 
ENDBRANCH  10  12
ENDBRANCH   1  10
BRANCH   1  22
HETATM   22  C   UNL     1     -41.260  56.761 -52.351  1.00  0.00    -0.018 A 
HETATM   23  C   UNL     1     -40.757  57.588 -53.367  1.00  0.00     0.029 A 
HETATM   24  C   UNL     1     -40.161  58.792 -53.023  1.00  0.00     0.116 A 
HETATM   25  N   UNL     1     -40.026  59.223 -51.755  1.00  0.00    -0.273 NA
HETATM   26  C   UNL     1     -40.517  58.426 -50.785  1.00  0.00     0.116 A 
HETATM   27  C   UNL     1     -41.126  57.203 -51.027  1.00  0.00     0.029 A 
ENDBRANCH   1  22
TORSDOF 4
ENDMDL
MODEL 4
REMARK VINA RESULT:      -8.2      2.079      3.451
REMARK  4 active torsions:
REMARK  status: ('A' for Active; 'I' for Inactive)
REMARK    1  A    between atoms: C_5  and  C_6 
REMARK    2  A    between atoms: C_6  and  N_7 
REMARK    3  A    between atoms: C_6  and  C_18 
REMARK    4  A    between atoms: N_7  and  C_8 
ROOT
HETATM    1  C   UNL     1     -40.989  54.487 -53.545  1.00  0.00     0.290 C 
ENDROOT
BRANCH   1   2
HETATM    2  C   UNL     1     -41.955  54.870 -52.437  1.00  0.00     0.021 A 
HETATM    3  C   UNL     1     -42.972  54.020 -51.968  1.00  0.00     0.055 A 
HETATM    4  C   UNL     1     -43.807  54.432 -50.932  1.00  0.00     0.117 A 
HETATM    5  C   UNL     1     -43.655  55.675 -50.331  1.00  0.00     0.045 A 
HETATM    6  F   UNL     1     -44.777  53.609 -50.511  1.00  0.00    -0.206 F 
HETATM    7  C   UNL     1     -42.647  56.526 -50.776  1.00  0.00     0.046 A 
HETATM    8  C   UNL     1     -41.810  56.120 -51.814  1.00  0.00     0.125 A 
HETATM    9  F   UNL     1     -40.856  56.963 -52.235  1.00  0.00    -0.205 F 
ENDBRANCH   1   2
BRANCH   1  10
HETATM   10  N   UNL     1     -41.458  54.767 -54.922  1.00  0.00     0.101 N 
HETATM   11  H   UNL     1     -41.298  53.922 -55.474  1.00  0.00     0.317 HD
BRANCH  10  12
HETATM   12  C   UNL     1     -42.847  55.222 -55.074  1.00  0.00     0.225 C 
HETATM   13  C   UNL     1     -43.330  54.780 -56.477  1.00  0.00     0.069 C 
HETATM   14  C   UNL     1     -42.625  55.583 -57.560  1.00  0.00     0.190 C 
HETATM   15  N   UNL     1     -42.927  57.045 -57.346  1.00  0.00    -0.067 N 
HETATM   16  C   UNL     1     -43.104  55.395 -58.986  1.00  0.00     0.035 C 
HETATM   17  H   UNL     1     -43.949  57.164 -57.321  1.00  0.00     0.280 HD
HETATM   18  C   UNL     1     -42.381  57.547 -56.046  1.00  0.00     0.237 C 
HETATM   19  C   UNL     1     -42.454  57.728 -58.601  1.00  0.00     0.235 C 
HETATM   20  C   UNL     1     -43.038  56.747 -54.924  1.00  0.00     0.063 C 
HETATM   21  C   UNL     1     -42.601  56.659 -59.685  1.00  0.00     0.030 C 
ENDBRANCH  10  12
ENDBRANCH   1  10
BRANCH   1  22
HETATM   22  C   UNL     1     -40.527  53.034 -53.468  1.00  0.00    -0.018 A 
HETATM   23  C   UNL     1     -39.890  52.565 -52.309  1.00  0.00     0.029 A 
HETATM   24  C   UNL     1     -39.450  51.251 -52.267  1.00  0.00     0.116 A 
HETATM   25  N   UNL     1     -39.590  50.383 -53.287  1.00  0.00    -0.273 NA
HETATM   26  C   UNL     1     -40.208  50.839 -54.394  1.00  0.00     0.116 A 
HETATM   27  C   UNL     1     -40.680  52.136 -54.534  1.00  0.00     0.029 A 
ENDBRANCH   1  22
TORSDOF 4
ENDMDL
MODEL 5
REMARK VINA RESULT:      -8.2      4.180      8.225
REMARK  4 active torsions:
REMARK  status: ('A' for Active; 'I' for Inactive)
REMARK    1  A    between atoms: C_5  and  C_6 
REMARK    2  A    between atoms: C_6  and  N_7 
REMARK    3  A    between atoms: C_6  and  C_18 
REMARK    4  A    between atoms: N_7  and  C_8 
ROOT
HETATM    1  C   UNL     1     -43.078  56.501 -57.511  1.00  0.00     0.290 C 
ENDROOT
BRANCH   1   2
HETATM    2  C   UNL     1     -44.104  56.369 -58.623  1.00  0.00     0.021 A 
HETATM    3  C   UNL     1     -43.955  55.498 -59.715  1.00  0.00     0.055 A 
HETATM    4  C   UNL     1     -44.950  55.415 -60.688  1.00  0.00     0.117 A 
HETATM    5  C   UNL     1     -46.109  56.175 -60.602  1.00  0.00     0.045 A 
HETATM    6  F   UNL     1     -44.778  54.586 -61.726  1.00  0.00    -0.206 F 
HETATM    7  C   UNL     1     -46.279  57.037 -59.522  1.00  0.00     0.046 A 
HETATM    8  C   UNL     1     -45.285  57.125 -58.549  1.00  0.00     0.125 A 
HETATM    9  F   UNL     1     -45.464  57.974 -57.525  1.00  0.00    -0.205 F 
ENDBRANCH   1   2
BRANCH   1  10
HETATM   10  N   UNL     1     -43.516  56.015 -56.181  1.00  0.00     0.101 N 
HETATM   11  H   UNL     1     -44.536  55.969 -56.197  1.00  0.00     0.317 HD
BRANCH  10  12
HETATM   12  C   UNL     1     -42.953  54.739 -55.718  1.00  0.00     0.225 C 
HETATM   13  C   UNL     1     -43.590  54.422 -54.344  1.00  0.00     0.069 C 
HETATM   14  C   UNL     1     -43.077  55.385 -53.283  1.00  0.00     0.190 C 
HETATM   15  N   UNL     1     -41.577  55.252 -53.201  1.00  0.00    -0.067 N 
HETATM   16  C   UNL     1     -43.470  55.108 -51.846  1.00  0.00     0.035 C 
HETATM   17  H   UNL     1     -41.349  54.262 -53.029  1.00  0.00     0.280 HD
HETATM   18  C   UNL     1     -40.906  55.655 -54.476  1.00  0.00     0.237 C 
HETATM   19  C   UNL     1     -41.187  55.997 -51.953  1.00  0.00     0.235 C 
HETATM   20  C   UNL     1     -41.415  54.733 -55.583  1.00  0.00     0.063 C 
HETATM   21  C   UNL     1     -42.415  55.876 -51.048  1.00  0.00     0.030 C 
ENDBRANCH  10  12
ENDBRANCH   1  10
BRANCH   1  22
HETATM   22  C   UNL     1     -42.529  57.917 -57.361  1.00  0.00    -0.018 A 
HETATM   23  C   UNL     1     -42.573  58.553 -56.111  1.00  0.00     0.029 A 
HETATM   24  C   UNL     1     -42.098  59.851 -55.998  1.00  0.00     0.116 A 
HETATM   25  N   UNL     1     -41.595  60.555 -57.030  1.00  0.00    -0.273 NA
HETATM   26  C   UNL     1     -41.550  59.935 -58.226  1.00  0.00     0.116 A 
HETATM   27  C   UNL     1     -42.004  58.641 -58.441  1.00  0.00     0.029 A 
ENDBRANCH   1  22
TORSDOF 4
ENDMDL
MODEL 6
REMARK VINA RESULT:      -8.1     13.644     15.978
REMARK  4 active torsions:
REMARK  status: ('A' for Active; 'I' for Inactive)
REMARK    1  A    between atoms: C_5  and  C_6 
REMARK    2  A    between atoms: C_6  and  N_7 
REMARK    3  A    between atoms: C_6  and  C_18 
REMARK    4  A    between atoms: N_7  and  C_8 
ROOT
HETATM    1  C   UNL     1     -35.612  40.382 -56.075  1.00  0.00     0.290 C 
ENDROOT
BRANCH   1   2
HETATM    2  C   UNL     1     -36.482  40.625 -57.296  1.00  0.00     0.021 A 
HETATM    3  C   UNL     1     -36.351  41.750 -58.129  1.00  0.00     0.055 A 
HETATM    4  C   UNL     1     -37.171  41.895 -59.246  1.00  0.00     0.117 A 
HETATM    5  C   UNL     1     -38.124  40.938 -59.572  1.00  0.00     0.045 A 
HETATM    6  F   UNL     1     -37.035  42.982 -60.017  1.00  0.00    -0.206 F 
HETATM    7  C   UNL     1     -38.262  39.812 -58.764  1.00  0.00     0.046 A 
HETATM    8  C   UNL     1     -37.445  39.665 -57.644  1.00  0.00     0.125 A 
HETATM    9  F   UNL     1     -37.607  38.580 -56.872  1.00  0.00    -0.205 F 
ENDBRANCH   1   2
BRANCH   1  10
HETATM   10  N   UNL     1     -35.463  41.539 -55.161  1.00  0.00     0.101 N 
HETATM   11  H   UNL     1     -35.441  42.381 -55.739  1.00  0.00     0.317 HD
BRANCH  10  12
HETATM   12  C   UNL     1     -36.461  41.677 -54.091  1.00  0.00     0.225 C 
HETATM   13  C   UNL     1     -35.742  42.280 -52.860  1.00  0.00     0.069 C 
HETATM   14  C   UNL     1     -34.783  41.266 -52.254  1.00  0.00     0.190 C 
HETATM   15  N   UNL     1     -35.571  40.046 -51.847  1.00  0.00    -0.067 N 
HETATM   16  C   UNL     1     -34.124  41.634 -50.940  1.00  0.00     0.035 C 
HETATM   17  H   UNL     1     -36.331  40.345 -51.220  1.00  0.00     0.280 HD
HETATM   18  C   UNL     1     -36.196  39.362 -53.022  1.00  0.00     0.237 C 
HETATM   19  C   UNL     1     -34.625  39.235 -51.002  1.00  0.00     0.235 C 
HETATM   20  C   UNL     1     -37.148  40.355 -53.686  1.00  0.00     0.063 C 
HETATM   21  C   UNL     1     -33.695  40.277 -50.379  1.00  0.00     0.030 C 
ENDBRANCH  10  12
ENDBRANCH   1  10
BRANCH   1  22
HETATM   22  C   UNL     1     -34.226  39.845 -56.419  1.00  0.00    -0.018 A 
HETATM   23  C   UNL     1     -33.083  40.515 -55.956  1.00  0.00     0.029 A 
HETATM   24  C   UNL     1     -31.831  40.031 -56.302  1.00  0.00     0.116 A 
HETATM   25  N   UNL     1     -31.637  38.945 -57.074  1.00  0.00    -0.273 NA
HETATM   26  C   UNL     1     -32.739  38.303 -57.510  1.00  0.00     0.116 A 
HETATM   27  C   UNL     1     -34.033  38.711 -57.221  1.00  0.00     0.029 A 
ENDBRANCH   1  22
TORSDOF 4
ENDMDL
MODEL 7
REMARK VINA RESULT:      -8.0      3.310      6.173
REMARK  4 active torsions:
REMARK  status: ('A' for Active; 'I' for Inactive)
REMARK    1  A    between atoms: C_5  and  C_6 
REMARK    2  A    between atoms: C_6  and  N_7 
REMARK    3  A    between atoms: C_6  and  C_18 
REMARK    4  A    between atoms: N_7  and  C_8 
ROOT
HETATM    1  C   UNL     1     -42.332  57.560 -53.685  1.00  0.00     0.290 C 
ENDROOT
BRANCH   1   2
HETATM    2  C   UNL     1     -41.885  56.109 -53.642  1.00  0.00     0.021 A 
HETATM    3  C   UNL     1     -40.907  55.575 -54.498  1.00  0.00     0.055 A 
HETATM    4  C   UNL     1     -40.531  54.237 -54.386  1.00  0.00     0.117 A 
HETATM    5  C   UNL     1     -41.098  53.406 -53.428  1.00  0.00     0.045 A 
HETATM    6  F   UNL     1     -39.606  53.748 -55.222  1.00  0.00    -0.206 F 
HETATM    7  C   UNL     1     -42.061  53.920 -52.565  1.00  0.00     0.046 A 
HETATM    8  C   UNL     1     -42.442  55.257 -52.676  1.00  0.00     0.125 A 
HETATM    9  F   UNL     1     -43.383  55.726 -51.843  1.00  0.00    -0.205 F 
ENDBRANCH   1   2
BRANCH   1  10
HETATM   10  N   UNL     1     -42.035  58.280 -54.945  1.00  0.00     0.101 N 
HETATM   11  H   UNL     1     -41.461  57.661 -55.520  1.00  0.00     0.317 HD
BRANCH  10  12
HETATM   12  C   UNL     1     -43.183  58.776 -55.718  1.00  0.00     0.225 C 
HETATM   13  C   UNL     1     -43.818  57.561 -56.438  1.00  0.00     0.069 C 
HETATM   14  C   UNL     1     -42.900  57.058 -57.543  1.00  0.00     0.190 C 
HETATM   15  N   UNL     1     -42.672  58.181 -58.524  1.00  0.00    -0.067 N 
HETATM   16  C   UNL     1     -43.443  55.980 -58.459  1.00  0.00     0.035 C 
HETATM   17  H   UNL     1     -43.590  58.518 -58.848  1.00  0.00     0.280 HD
HETATM   18  C   UNL     1     -41.960  59.339 -57.899  1.00  0.00     0.237 C 
HETATM   19  C   UNL     1     -42.018  57.532 -59.714  1.00  0.00     0.235 C 
HETATM   20  C   UNL     1     -42.831  59.861 -56.758  1.00  0.00     0.063 C 
HETATM   21  C   UNL     1     -42.548  56.097 -59.694  1.00  0.00     0.030 C 
ENDBRANCH  10  12
ENDBRANCH   1  10
BRANCH   1  22
HETATM   22  C   UNL     1     -41.813  58.387 -52.512  1.00  0.00    -0.018 A 
HETATM   23  C   UNL     1     -42.705  59.160 -51.754  1.00  0.00     0.029 A 
HETATM   24  C   UNL     1     -42.213  59.930 -50.712  1.00  0.00     0.116 A 
HETATM   25  N   UNL     1     -40.910  59.990 -50.377  1.00  0.00    -0.273 NA
HETATM   26  C   UNL     1     -40.060  59.240 -51.106  1.00  0.00     0.116 A 
HETATM   27  C   UNL     1     -40.454  58.441 -52.170  1.00  0.00     0.029 A 
ENDBRANCH   1  22
TORSDOF 4
ENDMDL
MODEL 8
REMARK VINA RESULT:      -7.9      2.098      5.924
REMARK  4 active torsions:
REMARK  status: ('A' for Active; 'I' for Inactive)
REMARK    1  A    between atoms: C_5  and  C_6 
REMARK    2  A    between atoms: C_6  and  N_7 
REMARK    3  A    between atoms: C_6  and  C_18 
REMARK    4  A    between atoms: N_7  and  C_8 
ROOT
HETATM    1  C   UNL     1     -42.822  55.552 -53.608  1.00  0.00     0.290 C 
ENDROOT
BRANCH   1   2
HETATM    2  C   UNL     1     -42.167  56.696 -52.853  1.00  0.00     0.021 A 
HETATM    3  C   UNL     1     -41.042  57.391 -53.327  1.00  0.00     0.055 A 
HETATM    4  C   UNL     1     -40.507  58.446 -52.589  1.00  0.00     0.117 A 
HETATM    5  C   UNL     1     -41.070  58.842 -51.383  1.00  0.00     0.045 A 
HETATM    6  F   UNL     1     -39.427  59.086 -53.056  1.00  0.00    -0.206 F 
HETATM    7  C   UNL     1     -42.191  58.171 -50.902  1.00  0.00     0.046 A 
HETATM    8  C   UNL     1     -42.727  57.114 -51.636  1.00  0.00     0.125 A 
HETATM    9  F   UNL     1     -43.798  56.472 -51.145  1.00  0.00    -0.205 F 
ENDBRANCH   1   2
BRANCH   1  10
HETATM   10  N   UNL     1     -42.097  54.260 -53.560  1.00  0.00     0.101 N 
HETATM   11  H   UNL     1     -42.315  53.759 -54.422  1.00  0.00     0.317 HD
BRANCH  10  12
HETATM   12  C   UNL     1     -40.643  54.319 -53.355  1.00  0.00     0.225 C 
HETATM   13  C   UNL     1     -40.000  53.262 -54.286  1.00  0.00     0.069 C 
HETATM   14  C   UNL     1     -40.322  51.857 -53.800  1.00  0.00     0.190 C 
HETATM   15  N   UNL     1     -39.790  51.702 -52.397  1.00  0.00    -0.067 N 
HETATM   16  C   UNL     1     -39.629  50.705 -54.500  1.00  0.00     0.035 C 
HETATM   17  H   UNL     1     -38.786  51.934 -52.405  1.00  0.00     0.280 HD
HETATM   18  C   UNL     1     -40.462  52.629 -51.435  1.00  0.00     0.237 C 
HETATM   19  C   UNL     1     -39.877  50.227 -52.108  1.00  0.00     0.235 C 
HETATM   20  C   UNL     1     -40.194  54.059 -51.900  1.00  0.00     0.063 C 
HETATM   21  C   UNL     1     -39.738  49.569 -53.482  1.00  0.00     0.030 C 
ENDBRANCH  10  12
ENDBRANCH   1  10
BRANCH   1  22
HETATM   22  C   UNL     1     -43.132  55.888 -55.064  1.00  0.00    -0.018 A 
HETATM   23  C   UNL     1     -42.736  55.008 -56.082  1.00  0.00     0.029 A 
HETATM   24  C   UNL     1     -42.997  55.342 -57.402  1.00  0.00     0.116 A 
HETATM   25  N   UNL     1     -43.611  56.481 -57.777  1.00  0.00    -0.273 NA
HETATM   26  C   UNL     1     -43.994  57.318 -56.793  1.00  0.00     0.116 A 
HETATM   27  C   UNL     1     -43.774  57.075 -55.444  1.00  0.00     0.029 A 
ENDBRANCH   1  22
TORSDOF 4
ENDMDL
MODEL 9
REMARK VINA RESULT:      -7.9      2.429      6.115
REMARK  4 active torsions:
REMARK  status: ('A' for Active; 'I' for Inactive)
REMARK    1  A    between atoms: C_5  and  C_6 
REMARK    2  A    between atoms: C_6  and  N_7 
REMARK    3  A    between atoms: C_6  and  C_18 
REMARK    4  A    between atoms: N_7  and  C_8 
ROOT
HETATM    1  C   UNL     1     -42.874  56.584 -54.083  1.00  0.00     0.290 C 
ENDROOT
BRANCH   1   2
HETATM    2  C   UNL     1     -42.122  57.568 -53.204  1.00  0.00     0.021 A 
HETATM    3  C   UNL     1     -40.777  57.919 -53.410  1.00  0.00     0.055 A 
HETATM    4  C   UNL     1     -40.158  58.847 -52.575  1.00  0.00     0.117 A 
HETATM    5  C   UNL     1     -40.847  59.453 -51.531  1.00  0.00     0.045 A 
HETATM    6  F   UNL     1     -38.872  59.156 -52.784  1.00  0.00    -0.206 F 
HETATM    7  C   UNL     1     -42.183  59.124 -51.318  1.00  0.00     0.046 A 
HETATM    8  C   UNL     1     -42.805  58.194 -52.149  1.00  0.00     0.125 A 
HETATM    9  F   UNL     1     -44.089  57.882 -51.914  1.00  0.00    -0.205 F 
ENDBRANCH   1   2
BRANCH   1  10
HETATM   10  N   UNL     1     -42.099  55.398 -54.518  1.00  0.00     0.101 N 
HETATM   11  H   UNL     1     -41.135  55.539 -54.213  1.00  0.00     0.317 HD
BRANCH  10  12
HETATM   12  C   UNL     1     -42.588  54.084 -54.078  1.00  0.00     0.225 C 
HETATM   13  C   UNL     1     -42.899  54.186 -52.565  1.00  0.00     0.069 C 
HETATM   14  C   UNL     1     -41.612  54.316 -51.765  1.00  0.00     0.190 C 
HETATM   15  N   UNL     1     -40.753  53.106 -52.037  1.00  0.00    -0.067 N 
HETATM   16  C   UNL     1     -41.724  54.257 -50.255  1.00  0.00     0.035 C 
HETATM   17  H   UNL     1     -41.306  52.264 -51.825  1.00  0.00     0.280 HD
HETATM   18  C   UNL     1     -40.334  53.024 -53.470  1.00  0.00     0.237 C 
HETATM   19  C   UNL     1     -39.661  53.163 -51.002  1.00  0.00     0.235 C 
HETATM   20  C   UNL     1     -41.599  52.923 -54.321  1.00  0.00     0.063 C 
HETATM   21  C   UNL     1     -40.305  53.887 -49.819  1.00  0.00     0.030 C 
ENDBRANCH  10  12
ENDBRANCH   1  10
BRANCH   1  22
HETATM   22  C   UNL     1     -43.509  57.233 -55.309  1.00  0.00    -0.018 A 
HETATM   23  C   UNL     1     -42.779  57.332 -56.503  1.00  0.00     0.029 A 
HETATM   24  C   UNL     1     -43.358  57.952 -57.599  1.00  0.00     0.116 A 
HETATM   25  N   UNL     1     -44.596  58.482 -57.590  1.00  0.00    -0.273 NA
HETATM   26  C   UNL     1     -45.294  58.378 -56.441  1.00  0.00     0.116 A 
HETATM   27  C   UNL     1     -44.800  57.780 -55.291  1.00  0.00     0.029 A 
ENDBRANCH   1  22
TORSDOF 4
ENDMDL
MODEL 10
REMARK VINA RESULT:      -7.9      3.191      5.448
REMARK  4 active torsions:
REMARK  status: ('A' for Active; 'I' for Inactive)
REMARK    1  A    between atoms: C_5  and  C_6 
REMARK    2  A    between atoms: C_6  and  N_7 
REMARK    3  A    between atoms: C_6  and  C_18 
REMARK    4  A    between atoms: N_7  and  C_8 
ROOT
HETATM    1  C   UNL     1     -41.884  56.805 -55.014  1.00  0.00     0.290 C 
ENDROOT
BRANCH   1   2
HETATM    2  C   UNL     1     -41.807  55.592 -54.104  1.00  0.00     0.021 A 
HETATM    3  C   UNL     1     -42.810  55.251 -53.181  1.00  0.00     0.055 A 
HETATM    4  C   UNL     1     -42.680  54.108 -52.393  1.00  0.00     0.117 A 
HETATM    5  C   UNL     1     -41.572  53.278 -52.503  1.00  0.00     0.045 A 
HETATM    6  F   UNL     1     -43.644  53.811 -51.512  1.00  0.00    -0.206 F 
HETATM    7  C   UNL     1     -40.572  53.594 -53.418  1.00  0.00     0.046 A 
HETATM    8  C   UNL     1     -40.698  54.737 -54.206  1.00  0.00     0.125 A 
HETATM    9  F   UNL     1     -39.714  55.030 -55.070  1.00  0.00    -0.205 F 
ENDBRANCH   1   2
BRANCH   1  10
HETATM   10  N   UNL     1     -42.644  57.958 -54.474  1.00  0.00     0.101 N 
HETATM   11  H   UNL     1     -42.937  57.710 -53.528  1.00  0.00     0.317 HD
BRANCH  10  12
HETATM   12  C   UNL     1     -41.967  59.262 -54.476  1.00  0.00     0.225 C 
HETATM   13  C   UNL     1     -40.731  59.145 -53.551  1.00  0.00     0.069 C 
HETATM   14  C   UNL     1     -41.162  59.026 -52.097  1.00  0.00     0.190 C 
HETATM   15  N   UNL     1     -41.965  60.249 -51.734  1.00  0.00    -0.067 N 
HETATM   16  C   UNL     1     -40.073  59.073 -51.044  1.00  0.00     0.035 C 
HETATM   17  H   UNL     1     -41.399  61.083 -51.946  1.00  0.00     0.280 HD
HETATM   18  C   UNL     1     -43.231  60.347 -52.527  1.00  0.00     0.237 C 
HETATM   19  C   UNL     1     -42.095  60.200 -50.235  1.00  0.00     0.235 C 
HETATM   20  C   UNL     1     -42.850  60.438 -54.003  1.00  0.00     0.063 C 
HETATM   21  C   UNL     1     -40.838  59.458 -49.777  1.00  0.00     0.030 C 
ENDBRANCH  10  12
ENDBRANCH   1  10
BRANCH   1  22
HETATM   22  C   UNL     1     -42.410  56.480 -56.409  1.00  0.00    -0.018 A 
HETATM   23  C   UNL     1     -42.397  57.467 -57.407  1.00  0.00     0.029 A 
HETATM   24  C   UNL     1     -42.906  57.165 -58.660  1.00  0.00     0.116 A 
HETATM   25  N   UNL     1     -43.428  55.968 -58.986  1.00  0.00    -0.273 NA
HETATM   26  C   UNL     1     -43.431  55.023 -58.025  1.00  0.00     0.116 A 
HETATM   27  C   UNL     1     -42.949  55.229 -56.740  1.00  0.00     0.029 A 
ENDBRANCH   1  22
TORSDOF 4
ENDMDL
