MODEL 1
REMARK VINA RESULT:      -8.9      0.000      0.000
REMARK  3 active torsions:
REMARK  status: ('A' for Active; 'I' for Inactive)
REMARK    1  A    between atoms: C_3  and  N_4 
REMARK       I    between atoms: N_4  and  C_5 
REMARK    2  A    between atoms: C_5  and  C_6 
REMARK    3  A    between atoms: C_7  and  C_8 
ROOT
HETATM    1  C   UNL     1     -41.453  55.575 -51.583  1.00  0.00     0.063 C 
HETATM    2  C   UNL     1     -41.259  56.672 -52.629  1.00  0.00     0.216 C 
HETATM    3  N   UNL     1     -40.656  57.857 -52.034  1.00  0.00    -0.091 N 
HETATM    4  C   UNL     1     -40.648  58.119 -50.695  1.00  0.00     0.735 A 
HETATM    5  N   UNL     1     -41.152  57.195 -49.851  1.00  0.00    -0.191 N 
HETATM    6  N   UNL     1     -40.094  58.867 -52.713  1.00  0.00     0.012 NA
HETATM    7  N   UNL     1     -39.762  59.750 -51.774  1.00  0.00     0.033 NA
HETATM    8  N   UNL     1     -40.107  59.298 -50.513  1.00  0.00     0.030 NA
HETATM    9  C   UNL     1     -41.439  55.890 -50.259  1.00  0.00     0.037 C 
HETATM   10  C   UNL     1     -41.702  54.912 -49.138  1.00  0.00     0.070 C 
HETATM   11  H   UNL     1     -41.033  57.343 -48.850  1.00  0.00     0.184 HD
ENDROOT
BRANCH   1  12
HETATM   12  C   UNL     1     -41.461  54.142 -52.043  1.00  0.00     0.256 C 
HETATM   13  N   UNL     1     -40.260  53.478 -51.946  1.00  0.00    -0.323 N 
HETATM   14  H   UNL     1     -39.415  54.043 -51.867  1.00  0.00     0.169 HD
HETATM   15  O   UNL     1     -42.502  53.653 -52.469  1.00  0.00    -0.267 OA
BRANCH  13  16
HETATM   16  C   UNL     1     -40.013  52.113 -52.233  1.00  0.00     0.041 A 
HETATM   17  C   UNL     1     -39.939  51.535 -53.513  1.00  0.00    -0.035 A 
HETATM   18  C   UNL     1     -40.231  52.259 -54.799  1.00  0.00     0.050 C 
HETATM   19  C   UNL     1     -39.625  50.164 -53.622  1.00  0.00     0.009 A 
HETATM   20  C   UNL     1     -39.452  49.366 -52.493  1.00  0.00     0.001 A 
HETATM   21  C   UNL     1     -39.600  49.922 -51.231  1.00  0.00     0.002 A 
HETATM   22  C   UNL     1     -39.886  51.282 -51.105  1.00  0.00     0.030 A 
ENDBRANCH  13  16
ENDBRANCH   1  12
BRANCH   2  23
HETATM   23  C   UNL     1     -42.581  57.034 -53.310  1.00  0.00     0.064 A 
HETATM   24  N   UNL     1     -42.674  56.711 -54.631  1.00  0.00    -0.263 NA
HETATM   25  C   UNL     1     -43.827  57.007 -55.278  1.00  0.00     0.117 A 
HETATM   26  C   UNL     1     -44.930  57.566 -54.664  1.00  0.00     0.019 A 
HETATM   27  C   UNL     1     -44.849  57.845 -53.307  1.00  0.00     0.003 A 
HETATM   28  C   UNL     1     -43.669  57.574 -52.618  1.00  0.00     0.030 A 
ENDBRANCH   2  23
TORSDOF 3
ENDMDL
MODEL 2
REMARK VINA RESULT:      -8.6      0.922      1.649
REMARK  3 active torsions:
REMARK  status: ('A' for Active; 'I' for Inactive)
REMARK    1  A    between atoms: C_3  and  N_4 
REMARK       I    between atoms: N_4  and  C_5 
REMARK    2  A    between atoms: C_5  and  C_6 
REMARK    3  A    between atoms: C_7  and  C_8 
ROOT
HETATM    1  C   UNL     1     -41.727  55.543 -52.369  1.00  0.00     0.063 C 
HETATM    2  C   UNL     1     -41.210  56.667 -53.265  1.00  0.00     0.216 C 
HETATM    3  N   UNL     1     -40.811  57.822 -52.472  1.00  0.00    -0.091 N 
HETATM    4  C   UNL     1     -41.216  58.044 -51.188  1.00  0.00     0.735 A 
HETATM    5  N   UNL     1     -41.964  57.105 -50.573  1.00  0.00    -0.191 N 
HETATM    6  N   UNL     1     -40.058  58.842 -52.910  1.00  0.00     0.012 NA
HETATM    7  N   UNL     1     -40.026  59.690 -51.885  1.00  0.00     0.033 NA
HETATM    8  N   UNL     1     -40.749  59.207 -50.808  1.00  0.00     0.030 NA
HETATM    9  C   UNL     1     -42.121  55.818 -51.094  1.00  0.00     0.037 C 
HETATM   10  C   UNL     1     -42.726  54.812 -50.144  1.00  0.00     0.070 C 
HETATM   11  H   UNL     1     -42.160  57.220 -49.581  1.00  0.00     0.184 HD
ENDROOT
BRANCH   1  12
HETATM   12  C   UNL     1     -41.604  54.124 -52.857  1.00  0.00     0.256 C 
HETATM   13  N   UNL     1     -40.445  53.471 -52.506  1.00  0.00    -0.323 N 
HETATM   14  H   UNL     1     -39.651  54.043 -52.220  1.00  0.00     0.169 HD
HETATM   15  O   UNL     1     -42.511  53.637 -53.523  1.00  0.00    -0.267 OA
BRANCH  13  16
HETATM   16  C   UNL     1     -40.114  52.119 -52.766  1.00  0.00     0.041 A 
HETATM   17  C   UNL     1     -39.992  51.097 -51.809  1.00  0.00    -0.035 A 
HETATM   18  C   UNL     1     -40.079  51.299 -50.320  1.00  0.00     0.050 C 
HETATM   19  C   UNL     1     -39.713  49.785 -52.248  1.00  0.00     0.009 A 
HETATM   20  C   UNL     1     -39.493  49.500 -53.594  1.00  0.00     0.001 A 
HETATM   21  C   UNL     1     -39.540  50.525 -54.528  1.00  0.00     0.002 A 
HETATM   22  C   UNL     1     -39.839  51.824 -54.114  1.00  0.00     0.030 A 
ENDBRANCH  13  16
ENDBRANCH   1  12
BRANCH   2  23
HETATM   23  C   UNL     1     -42.253  57.074 -54.308  1.00  0.00     0.064 A 
HETATM   24  N   UNL     1     -42.022  56.634 -55.578  1.00  0.00    -0.263 NA
HETATM   25  C   UNL     1     -42.920  56.964 -56.538  1.00  0.00     0.117 A 
HETATM   26  C   UNL     1     -44.081  57.671 -56.293  1.00  0.00     0.019 A 
HETATM   27  C   UNL     1     -44.338  58.070 -54.990  1.00  0.00     0.003 A 
HETATM   28  C   UNL     1     -43.422  57.768 -53.984  1.00  0.00     0.030 A 
ENDBRANCH   2  23
TORSDOF 3
ENDMDL
MODEL 3
REMARK VINA RESULT:      -8.4      1.881      4.235
REMARK  3 active torsions:
REMARK  status: ('A' for Active; 'I' for Inactive)
REMARK    1  A    between atoms: C_3  and  N_4 
REMARK       I    between atoms: N_4  and  C_5 
REMARK    2  A    between atoms: C_5  and  C_6 
REMARK    3  A    between atoms: C_7  and  C_8 
ROOT
HETATM    1  C   UNL     1     -42.961  55.930 -53.849  1.00  0.00     0.063 C 
HETATM    2  C   UNL     1     -43.301  57.052 -52.868  1.00  0.00     0.216 C 
HETATM    3  N   UNL     1     -44.221  58.007 -53.469  1.00  0.00    -0.091 N 
HETATM    4  C   UNL     1     -44.425  58.130 -54.813  1.00  0.00     0.735 A 
HETATM    5  N   UNL     1     -43.807  57.266 -55.643  1.00  0.00    -0.191 N 
HETATM    6  N   UNL     1     -44.933  58.926 -52.801  1.00  0.00     0.012 NA
HETATM    7  N   UNL     1     -45.555  59.616 -53.753  1.00  0.00     0.033 NA
HETATM    8  N   UNL     1     -45.243  59.134 -55.012  1.00  0.00     0.030 NA
HETATM    9  C   UNL     1     -43.182  56.104 -55.181  1.00  0.00     0.037 C 
HETATM   10  C   UNL     1     -42.812  55.106 -56.253  1.00  0.00     0.070 C 
HETATM   11  H   UNL     1     -44.057  57.286 -56.631  1.00  0.00     0.184 HD
ENDROOT
BRANCH   1  12
HETATM   12  C   UNL     1     -42.572  54.587 -53.293  1.00  0.00     0.256 C 
HETATM   13  N   UNL     1     -41.325  54.130 -53.655  1.00  0.00    -0.323 N 
HETATM   14  H   UNL     1     -40.890  54.553 -54.474  1.00  0.00     0.169 HD
HETATM   15  O   UNL     1     -43.358  53.985 -52.570  1.00  0.00    -0.267 OA
BRANCH  13  16
HETATM   16  C   UNL     1     -40.688  52.946 -53.211  1.00  0.00     0.041 A 
HETATM   17  C   UNL     1     -40.192  52.706 -51.918  1.00  0.00    -0.035 A 
HETATM   18  C   UNL     1     -40.150  53.724 -50.812  1.00  0.00     0.050 C 
HETATM   19  C   UNL     1     -39.636  51.442 -51.629  1.00  0.00     0.009 A 
HETATM   20  C   UNL     1     -39.511  50.460 -52.609  1.00  0.00     0.001 A 
HETATM   21  C   UNL     1     -39.933  50.726 -53.903  1.00  0.00     0.002 A 
HETATM   22  C   UNL     1     -40.508  51.962 -54.202  1.00  0.00     0.030 A 
ENDBRANCH  13  16
ENDBRANCH   1  12
BRANCH   2  23
HETATM   23  C   UNL     1     -42.038  57.766 -52.379  1.00  0.00     0.064 A 
HETATM   24  N   UNL     1     -41.876  57.820 -51.026  1.00  0.00    -0.263 NA
HETATM   25  C   UNL     1     -40.771  58.439 -50.543  1.00  0.00     0.117 A 
HETATM   26  C   UNL     1     -39.776  58.967 -51.342  1.00  0.00     0.019 A 
HETATM   27  C   UNL     1     -39.921  58.863 -52.718  1.00  0.00     0.003 A 
HETATM   28  C   UNL     1     -41.057  58.254 -53.246  1.00  0.00     0.030 A 
ENDBRANCH   2  23
TORSDOF 3
ENDMDL
MODEL 4
REMARK VINA RESULT:      -8.2      2.823      4.593
REMARK  3 active torsions:
REMARK  status: ('A' for Active; 'I' for Inactive)
REMARK    1  A    between atoms: C_3  and  N_4 
REMARK       I    between atoms: N_4  and  C_5 
REMARK    2  A    between atoms: C_5  and  C_6 
REMARK    3  A    between atoms: C_7  and  C_8 
ROOT
HETATM    1  C   UNL     1     -42.902  56.919 -55.230  1.00  0.00     0.063 C 
HETATM    2  C   UNL     1     -42.377  57.350 -56.600  1.00  0.00     0.216 C 
HETATM    3  N   UNL     1     -42.182  58.792 -56.652  1.00  0.00    -0.091 N 
HETATM    4  C   UNL     1     -42.761  59.672 -55.784  1.00  0.00     0.735 A 
HETATM    5  N   UNL     1     -43.495  59.188 -54.762  1.00  0.00    -0.191 N 
HETATM    6  N   UNL     1     -41.473  59.447 -57.582  1.00  0.00     0.012 NA
HETATM    7  N   UNL     1     -41.642  60.732 -57.280  1.00  0.00     0.033 NA
HETATM    8  N   UNL     1     -42.448  60.886 -56.166  1.00  0.00     0.030 NA
HETATM    9  C   UNL     1     -43.473  57.837 -54.403  1.00  0.00     0.037 C 
HETATM   10  C   UNL     1     -44.101  57.520 -53.067  1.00  0.00     0.070 C 
HETATM   11  H   UNL     1     -43.821  59.841 -54.052  1.00  0.00     0.184 HD
ENDROOT
BRANCH   1  12
HETATM   12  C   UNL     1     -42.596  55.525 -54.753  1.00  0.00     0.256 C 
HETATM   13  N   UNL     1     -41.332  55.332 -54.244  1.00  0.00    -0.323 N 
HETATM   14  H   UNL     1     -40.618  56.017 -54.489  1.00  0.00     0.169 HD
HETATM   15  O   UNL     1     -43.458  54.657 -54.840  1.00  0.00    -0.267 OA
BRANCH  13  16
HETATM   16  C   UNL     1     -40.817  54.149 -53.661  1.00  0.00     0.041 A 
HETATM   17  C   UNL     1     -40.739  53.870 -52.285  1.00  0.00    -0.035 A 
HETATM   18  C   UNL     1     -41.084  54.842 -51.190  1.00  0.00     0.050 C 
HETATM   19  C   UNL     1     -40.250  52.611 -51.875  1.00  0.00     0.009 A 
HETATM   20  C   UNL     1     -39.787  51.675 -52.797  1.00  0.00     0.001 A 
HETATM   21  C   UNL     1     -39.796  51.983 -54.149  1.00  0.00     0.002 A 
HETATM   22  C   UNL     1     -40.298  53.213 -54.575  1.00  0.00     0.030 A 
ENDBRANCH  13  16
ENDBRANCH   1  12
BRANCH   2  23
HETATM   23  C   UNL     1     -43.315  56.899 -57.723  1.00  0.00     0.064 A 
HETATM   24  N   UNL     1     -44.436  57.656 -57.896  1.00  0.00    -0.263 NA
HETATM   25  C   UNL     1     -45.296  57.301 -58.881  1.00  0.00     0.117 A 
HETATM   26  C   UNL     1     -45.075  56.252 -59.752  1.00  0.00     0.019 A 
HETATM   27  C   UNL     1     -43.908  55.518 -59.605  1.00  0.00     0.003 A 
HETATM   28  C   UNL     1     -43.014  55.843 -58.586  1.00  0.00     0.030 A 
ENDBRANCH   2  23
TORSDOF 3
ENDMDL
MODEL 5
REMARK VINA RESULT:      -7.8      2.783      6.629
REMARK  3 active torsions:
REMARK  status: ('A' for Active; 'I' for Inactive)
REMARK    1  A    between atoms: C_3  and  N_4 
REMARK       I    between atoms: N_4  and  C_5 
REMARK    2  A    between atoms: C_5  and  C_6 
REMARK    3  A    between atoms: C_7  and  C_8 
ROOT
HETATM    1  C   UNL     1     -41.918  55.660 -53.854  1.00  0.00     0.063 C 
HETATM    2  C   UNL     1     -42.464  54.362 -53.261  1.00  0.00     0.216 C 
HETATM    3  N   UNL     1     -43.165  54.616 -52.010  1.00  0.00    -0.091 N 
HETATM    4  C   UNL     1     -43.008  55.747 -51.263  1.00  0.00     0.735 A 
HETATM    5  N   UNL     1     -42.223  56.735 -51.739  1.00  0.00    -0.191 N 
HETATM    6  N   UNL     1     -43.995  53.760 -51.397  1.00  0.00     0.012 NA
HETATM    7  N   UNL     1     -44.325  54.376 -50.265  1.00  0.00     0.033 NA
HETATM    8  N   UNL     1     -43.712  55.612 -50.166  1.00  0.00     0.030 NA
HETATM    9  C   UNL     1     -41.779  56.761 -53.064  1.00  0.00     0.037 C 
HETATM   10  C   UNL     1     -41.176  58.071 -53.512  1.00  0.00     0.070 C 
HETATM   11  H   UNL     1     -42.207  57.621 -51.237  1.00  0.00     0.184 HD
ENDROOT
BRANCH   1  12
HETATM   12  C   UNL     1     -41.731  55.743 -55.345  1.00  0.00     0.256 C 
HETATM   13  N   UNL     1     -42.701  56.437 -56.030  1.00  0.00    -0.323 N 
HETATM   14  H   UNL     1     -43.595  56.581 -55.563  1.00  0.00     0.169 HD
HETATM   15  O   UNL     1     -40.756  55.204 -55.860  1.00  0.00    -0.267 OA
BRANCH  13  16
HETATM   16  C   UNL     1     -42.724  56.730 -57.416  1.00  0.00     0.041 A 
HETATM   17  C   UNL     1     -42.385  57.958 -58.010  1.00  0.00    -0.035 A 
HETATM   18  C   UNL     1     -42.052  59.215 -57.252  1.00  0.00     0.050 C 
HETATM   19  C   UNL     1     -42.407  58.061 -59.417  1.00  0.00     0.009 A 
HETATM   20  C   UNL     1     -42.817  56.997 -60.218  1.00  0.00     0.001 A 
HETATM   21  C   UNL     1     -43.223  55.811 -59.625  1.00  0.00     0.002 A 
HETATM   22  C   UNL     1     -43.184  55.683 -58.236  1.00  0.00     0.030 A 
ENDBRANCH  13  16
ENDBRANCH   1  12
BRANCH   2  23
HETATM   23  C   UNL     1     -41.349  53.335 -53.047  1.00  0.00     0.064 A 
HETATM   24  N   UNL     1     -40.754  53.355 -51.820  1.00  0.00    -0.263 NA
HETATM   25  C   UNL     1     -39.764  52.462 -51.580  1.00  0.00     0.117 A 
HETATM   26  C   UNL     1     -39.363  51.499 -52.485  1.00  0.00     0.019 A 
HETATM   27  C   UNL     1     -40.008  51.448 -53.712  1.00  0.00     0.003 A 
HETATM   28  C   UNL     1     -41.014  52.368 -53.999  1.00  0.00     0.030 A 
ENDBRANCH   2  23
TORSDOF 3
ENDMDL
MODEL 6
REMARK VINA RESULT:      -7.7      2.026      2.440
REMARK  3 active torsions:
REMARK  status: ('A' for Active; 'I' for Inactive)
REMARK    1  A    between atoms: C_3  and  N_4 
REMARK       I    between atoms: N_4  and  C_5 
REMARK    2  A    between atoms: C_5  and  C_6 
REMARK    3  A    between atoms: C_7  and  C_8 
ROOT
HETATM    1  C   UNL     1     -42.982  56.665 -52.719  1.00  0.00     0.063 C 
HETATM    2  C   UNL     1     -42.494  57.744 -53.685  1.00  0.00     0.216 C 
HETATM    3  N   UNL     1     -42.426  59.041 -53.027  1.00  0.00    -0.091 N 
HETATM    4  C   UNL     1     -43.083  59.345 -51.870  1.00  0.00     0.735 A 
HETATM    5  N   UNL     1     -43.774  58.372 -51.242  1.00  0.00    -0.191 N 
HETATM    6  N   UNL     1     -41.775  60.115 -53.493  1.00  0.00     0.012 NA
HETATM    7  N   UNL     1     -42.057  61.077 -52.618  1.00  0.00     0.033 NA
HETATM    8  N   UNL     1     -42.877  60.611 -51.605  1.00  0.00     0.030 NA
HETATM    9  C   UNL     1     -43.635  57.023 -51.578  1.00  0.00     0.037 C 
HETATM   10  C   UNL     1     -44.236  56.051 -50.590  1.00  0.00     0.070 C 
HETATM   11  H   UNL     1     -44.159  58.574 -50.321  1.00  0.00     0.184 HD
ENDROOT
BRANCH   1  12
HETATM   12  C   UNL     1     -42.556  55.242 -52.959  1.00  0.00     0.256 C 
HETATM   13  N   UNL     1     -41.282  54.924 -52.550  1.00  0.00    -0.323 N 
HETATM   14  H   UNL     1     -40.630  55.694 -52.402  1.00  0.00     0.169 HD
HETATM   15  O   UNL     1     -43.339  54.462 -53.492  1.00  0.00    -0.267 OA
BRANCH  13  16
HETATM   16  C   UNL     1     -40.666  53.649 -52.586  1.00  0.00     0.041 A 
HETATM   17  C   UNL     1     -40.185  52.993 -53.733  1.00  0.00    -0.035 A 
HETATM   18  C   UNL     1     -40.354  53.493 -55.142  1.00  0.00     0.050 C 
HETATM   19  C   UNL     1     -39.543  51.746 -53.582  1.00  0.00     0.009 A 
HETATM   20  C   UNL     1     -39.436  51.128 -52.338  1.00  0.00     0.001 A 
HETATM   21  C   UNL     1     -39.978  51.743 -51.219  1.00  0.00     0.002 A 
HETATM   22  C   UNL     1     -40.595  52.988 -51.346  1.00  0.00     0.030 A 
ENDBRANCH  13  16
ENDBRANCH   1  12
BRANCH   2  23
HETATM   23  C   UNL     1     -43.385  57.824 -54.927  1.00  0.00     0.064 A 
HETATM   24  N   UNL     1     -44.574  58.470 -54.761  1.00  0.00    -0.263 NA
HETATM   25  C   UNL     1     -45.397  58.572 -55.833  1.00  0.00     0.117 A 
HETATM   26  C   UNL     1     -45.077  58.108 -57.094  1.00  0.00     0.019 A 
HETATM   27  C   UNL     1     -43.844  57.498 -57.269  1.00  0.00     0.003 A 
HETATM   28  C   UNL     1     -42.984  57.356 -56.182  1.00  0.00     0.030 A 
ENDBRANCH   2  23
TORSDOF 3
ENDMDL
MODEL 7
REMARK VINA RESULT:      -7.6      3.109      6.281
REMARK  3 active torsions:
REMARK  status: ('A' for Active; 'I' for Inactive)
REMARK    1  A    between atoms: C_3  and  N_4 
REMARK       I    between atoms: N_4  and  C_5 
REMARK    2  A    between atoms: C_5  and  C_6 
REMARK    3  A    between atoms: C_7  and  C_8 
ROOT
HETATM    1  C   UNL     1     -42.872  57.906 -53.426  1.00  0.00     0.063 C 
HETATM    2  C   UNL     1     -43.720  57.070 -52.469  1.00  0.00     0.216 C 
HETATM    3  N   UNL     1     -44.539  57.923 -51.619  1.00  0.00    -0.091 N 
HETATM    4  C   UNL     1     -44.295  59.248 -51.406  1.00  0.00     0.735 A 
HETATM    5  N   UNL     1     -43.287  59.838 -52.080  1.00  0.00    -0.191 N 
HETATM    6  N   UNL     1     -45.588  57.516 -50.890  1.00  0.00     0.012 NA
HETATM    7  N   UNL     1     -45.965  58.603 -50.221  1.00  0.00     0.033 NA
HETATM    8  N   UNL     1     -45.163  59.687 -50.529  1.00  0.00     0.030 NA
HETATM    9  C   UNL     1     -42.657  59.225 -53.166  1.00  0.00     0.037 C 
HETATM   10  C   UNL     1     -41.772  60.132 -53.989  1.00  0.00     0.070 C 
HETATM   11  H   UNL     1     -43.187  60.849 -52.008  1.00  0.00     0.184 HD
ENDROOT
BRANCH   1  12
HETATM   12  C   UNL     1     -42.459  57.292 -54.737  1.00  0.00     0.256 C 
HETATM   13  N   UNL     1     -43.143  57.735 -55.845  1.00  0.00    -0.323 N 
HETATM   14  H   UNL     1     -44.042  58.191 -55.691  1.00  0.00     0.169 HD
HETATM   15  O   UNL     1     -41.563  56.455 -54.753  1.00  0.00    -0.267 OA
BRANCH  13  16
HETATM   16  C   UNL     1     -42.902  57.383 -57.196  1.00  0.00     0.041 A 
HETATM   17  C   UNL     1     -42.238  58.172 -58.152  1.00  0.00    -0.035 A 
HETATM   18  C   UNL     1     -41.774  59.585 -57.927  1.00  0.00     0.050 C 
HETATM   19  C   UNL     1     -42.030  57.641 -59.443  1.00  0.00     0.009 A 
HETATM   20  C   UNL     1     -42.523  56.389 -59.803  1.00  0.00     0.001 A 
HETATM   21  C   UNL     1     -43.243  55.645 -58.880  1.00  0.00     0.002 A 
HETATM   22  C   UNL     1     -43.437  56.143 -57.591  1.00  0.00     0.030 A 
ENDBRANCH  13  16
ENDBRANCH   1  12
BRANCH   2  23
HETATM   23  C   UNL     1     -42.849  56.147 -51.613  1.00  0.00     0.064 A 
HETATM   24  N   UNL     1     -42.977  54.812 -51.863  1.00  0.00    -0.263 NA
HETATM   25  C   UNL     1     -42.223  53.954 -51.134  1.00  0.00     0.117 A 
HETATM   26  C   UNL     1     -41.295  54.356 -50.194  1.00  0.00     0.019 A 
HETATM   27  C   UNL     1     -41.130  55.717 -49.981  1.00  0.00     0.003 A 
HETATM   28  C   UNL     1     -41.908  56.625 -50.697  1.00  0.00     0.030 A 
ENDBRANCH   2  23
TORSDOF 3
ENDMDL
MODEL 8
REMARK VINA RESULT:      -7.3      3.158      6.469
REMARK  3 active torsions:
REMARK  status: ('A' for Active; 'I' for Inactive)
REMARK    1  A    between atoms: C_3  and  N_4 
REMARK       I    between atoms: N_4  and  C_5 
REMARK    2  A    between atoms: C_5  and  C_6 
REMARK    3  A    between atoms: C_7  and  C_8 
ROOT
HETATM    1  C   UNL     1     -42.782  57.440 -55.002  1.00  0.00     0.063 C 
HETATM    2  C   UNL     1     -42.862  56.425 -53.862  1.00  0.00     0.216 C 
HETATM    3  N   UNL     1     -42.506  57.040 -52.592  1.00  0.00    -0.091 N 
HETATM    4  C   UNL     1     -41.810  58.208 -52.478  1.00  0.00     0.735 A 
HETATM    5  N   UNL     1     -41.497  58.888 -53.599  1.00  0.00    -0.191 N 
HETATM    6  N   UNL     1     -42.752  56.520 -51.381  1.00  0.00     0.012 NA
HETATM    7  N   UNL     1     -42.183  57.374 -50.534  1.00  0.00     0.033 NA
HETATM    8  N   UNL     1     -41.587  58.427 -51.205  1.00  0.00     0.030 NA
HETATM    9  C   UNL     1     -42.071  58.590 -54.838  1.00  0.00     0.037 C 
HETATM   10  C   UNL     1     -41.849  59.626 -55.913  1.00  0.00     0.070 C 
HETATM   11  H   UNL     1     -41.085  59.815 -53.501  1.00  0.00     0.184 HD
ENDROOT
BRANCH   1  12
HETATM   12  C   UNL     1     -43.654  57.229 -56.211  1.00  0.00     0.256 C 
HETATM   13  N   UNL     1     -43.061  56.581 -57.269  1.00  0.00    -0.323 N 
HETATM   14  H   UNL     1     -42.042  56.557 -57.294  1.00  0.00     0.169 HD
HETATM   15  O   UNL     1     -44.812  57.634 -56.194  1.00  0.00    -0.267 OA
BRANCH  13  16
HETATM   16  C   UNL     1     -43.675  56.189 -58.484  1.00  0.00     0.041 A 
HETATM   17  C   UNL     1     -44.034  57.042 -59.543  1.00  0.00    -0.035 A 
HETATM   18  C   UNL     1     -43.931  58.542 -59.510  1.00  0.00     0.050 C 
HETATM   19  C   UNL     1     -44.585  56.476 -60.712  1.00  0.00     0.009 A 
HETATM   20  C   UNL     1     -44.839  55.110 -60.809  1.00  0.00     0.001 A 
HETATM   21  C   UNL     1     -44.553  54.282 -59.734  1.00  0.00     0.002 A 
HETATM   22  C   UNL     1     -43.984  54.820 -58.579  1.00  0.00     0.030 A 
ENDBRANCH  13  16
ENDBRANCH   1  12
BRANCH   2  23
HETATM   23  C   UNL     1     -41.970  55.211 -54.133  1.00  0.00     0.064 A 
HETATM   24  N   UNL     1     -40.823  55.462 -54.826  1.00  0.00    -0.263 NA
HETATM   25  C   UNL     1     -39.997  54.421 -55.088  1.00  0.00     0.117 A 
HETATM   26  C   UNL     1     -40.223  53.132 -54.645  1.00  0.00     0.019 A 
HETATM   27  C   UNL     1     -41.365  52.891 -53.895  1.00  0.00     0.003 A 
HETATM   28  C   UNL     1     -42.247  53.936 -53.630  1.00  0.00     0.030 A 
ENDBRANCH   2  23
TORSDOF 3
ENDMDL
MODEL 9
REMARK VINA RESULT:      -7.3      2.423      6.425
REMARK  3 active torsions:
REMARK  status: ('A' for Active; 'I' for Inactive)
REMARK    1  A    between atoms: C_3  and  N_4 
REMARK       I    between atoms: N_4  and  C_5 
REMARK    2  A    between atoms: C_5  and  C_6 
REMARK    3  A    between atoms: C_7  and  C_8 
ROOT
HETATM    1  C   UNL     1     -42.739  57.082 -52.142  1.00  0.00     0.063 C 
HETATM    2  C   UNL     1     -42.653  55.568 -51.953  1.00  0.00     0.216 C 
HETATM    3  N   UNL     1     -42.124  55.238 -50.637  1.00  0.00    -0.091 N 
HETATM    4  C   UNL     1     -41.424  56.110 -49.854  1.00  0.00     0.735 A 
HETATM    5  N   UNL     1     -41.275  57.382 -50.275  1.00  0.00    -0.191 N 
HETATM    6  N   UNL     1     -42.193  54.034 -50.051  1.00  0.00     0.012 NA
HETATM    7  N   UNL     1     -41.514  54.180 -48.916  1.00  0.00     0.033 NA
HETATM    8  N   UNL     1     -41.024  55.467 -48.784  1.00  0.00     0.030 NA
HETATM    9  C   UNL     1     -42.018  57.909 -51.335  1.00  0.00     0.037 C 
HETATM   10  C   UNL     1     -41.955  59.411 -51.477  1.00  0.00     0.070 C 
HETATM   11  H   UNL     1     -40.859  58.055 -49.633  1.00  0.00     0.184 HD
ENDROOT
BRANCH   1  12
HETATM   12  C   UNL     1     -43.772  57.626 -53.091  1.00  0.00     0.256 C 
HETATM   13  N   UNL     1     -43.316  57.948 -54.349  1.00  0.00    -0.323 N 
HETATM   14  H   UNL     1     -42.312  58.084 -54.465  1.00  0.00     0.169 HD
HETATM   15  O   UNL     1     -44.931  57.754 -52.710  1.00  0.00    -0.267 OA
BRANCH  13  16
HETATM   16  C   UNL     1     -44.087  58.400 -55.448  1.00  0.00     0.041 A 
HETATM   17  C   UNL     1     -44.181  57.780 -56.706  1.00  0.00    -0.035 A 
HETATM   18  C   UNL     1     -43.376  56.584 -57.135  1.00  0.00     0.050 C 
HETATM   19  C   UNL     1     -45.046  58.334 -57.673  1.00  0.00     0.009 A 
HETATM   20  C   UNL     1     -45.752  59.510 -57.429  1.00  0.00     0.001 A 
HETATM   21  C   UNL     1     -45.599  60.161 -56.214  1.00  0.00     0.002 A 
HETATM   22  C   UNL     1     -44.767  59.614 -55.236  1.00  0.00     0.030 A 
ENDBRANCH  13  16
ENDBRANCH   1  12
BRANCH   2  23
HETATM   23  C   UNL     1     -41.801  54.917 -53.046  1.00  0.00     0.064 A 
HETATM   24  N   UNL     1     -40.986  55.760 -53.741  1.00  0.00    -0.263 NA
HETATM   25  C   UNL     1     -40.209  55.232 -54.717  1.00  0.00     0.117 A 
HETATM   26  C   UNL     1     -40.155  53.883 -55.010  1.00  0.00     0.019 A 
HETATM   27  C   UNL     1     -40.948  53.023 -54.264  1.00  0.00     0.003 A 
HETATM   28  C   UNL     1     -41.776  53.538 -53.269  1.00  0.00     0.030 A 
ENDBRANCH   2  23
TORSDOF 3
ENDMDL
MODEL 10
REMARK VINA RESULT:      -7.2      3.534      6.419
REMARK  3 active torsions:
REMARK  status: ('A' for Active; 'I' for Inactive)
REMARK    1  A    between atoms: C_3  and  N_4 
REMARK       I    between atoms: N_4  and  C_5 
REMARK    2  A    between atoms: C_5  and  C_6 
REMARK    3  A    between atoms: C_7  and  C_8 
ROOT
HETATM    1  C   UNL     1     -43.974  58.888 -54.009  1.00  0.00     0.063 C 
HETATM    2  C   UNL     1     -44.489  57.861 -53.001  1.00  0.00     0.216 C 
HETATM    3  N   UNL     1     -44.965  58.515 -51.790  1.00  0.00    -0.091 N 
HETATM    4  C   UNL     1     -44.629  59.787 -51.426  1.00  0.00     0.735 A 
HETATM    5  N   UNL     1     -43.878  60.525 -52.269  1.00  0.00    -0.191 N 
HETATM    6  N   UNL     1     -45.732  57.946 -50.850  1.00  0.00     0.012 NA
HETATM    7  N   UNL     1     -45.843  58.878 -49.906  1.00  0.00     0.033 NA
HETATM    8  N   UNL     1     -45.154  60.028 -50.251  1.00  0.00     0.030 NA
HETATM    9  C   UNL     1     -43.650  60.144 -53.594  1.00  0.00     0.037 C 
HETATM   10  C   UNL     1     -43.055  61.216 -54.476  1.00  0.00     0.070 C 
HETATM   11  H   UNL     1     -43.733  61.509 -52.048  1.00  0.00     0.184 HD
ENDROOT
BRANCH   1  12
HETATM   12  C   UNL     1     -44.023  58.540 -55.473  1.00  0.00     0.256 C 
HETATM   13  N   UNL     1     -42.865  58.021 -56.002  1.00  0.00    -0.323 N 
HETATM   14  H   UNL     1     -42.000  58.181 -55.487  1.00  0.00     0.169 HD
HETATM   15  O   UNL     1     -45.059  58.731 -56.101  1.00  0.00    -0.267 OA
BRANCH  13  16
HETATM   16  C   UNL     1     -42.667  57.542 -57.321  1.00  0.00     0.041 A 
HETATM   17  C   UNL     1     -42.861  56.220 -57.760  1.00  0.00    -0.035 A 
HETATM   18  C   UNL     1     -43.199  55.059 -56.865  1.00  0.00     0.050 C 
HETATM   19  C   UNL     1     -42.674  55.926 -59.127  1.00  0.00     0.009 A 
HETATM   20  C   UNL     1     -42.243  56.896 -60.028  1.00  0.00     0.001 A 
HETATM   21  C   UNL     1     -41.981  58.181 -59.577  1.00  0.00     0.002 A 
HETATM   22  C   UNL     1     -42.183  58.497 -58.233  1.00  0.00     0.030 A 
ENDBRANCH  13  16
ENDBRANCH   1  12
BRANCH   2  23
HETATM   23  C   UNL     1     -43.412  56.828 -52.658  1.00  0.00     0.064 A 
HETATM   24  N   UNL     1     -43.401  55.706 -53.433  1.00  0.00    -0.263 NA
HETATM   25  C   UNL     1     -42.464  54.763 -53.172  1.00  0.00     0.117 A 
HETATM   26  C   UNL     1     -41.488  54.898 -52.205  1.00  0.00     0.019 A 
HETATM   27  C   UNL     1     -41.471  56.064 -51.455  1.00  0.00     0.003 A 
HETATM   28  C   UNL     1     -42.436  57.043 -51.682  1.00  0.00     0.030 A 
ENDBRANCH   2  23
TORSDOF 3
ENDMDL
