MODEL 1
REMARK VINA RESULT:      -8.5      0.000      0.000
REMARK  5 active torsions:
REMARK  status: ('A' for Active; 'I' for Inactive)
REMARK    1  A    between atoms: C_8  and  N_9 
REMARK    2  A    between atoms: C_12  and  N_13 
REMARK    3  A    between atoms: N_13  and  C_15 
REMARK    4  A    between atoms: C_15  and  C_16 
REMARK    5  A    between atoms: C_17  and  C_18 
ROOT
HETATM    1  N   UNL     1     -41.814  57.935 -52.109  1.00  0.00    -0.067 N 
HETATM    2  H   UNL     1     -42.804  57.807 -52.357  1.00  0.00     0.280 HD
HETATM    3  C   UNL     1     -41.769  59.071 -51.110  1.00  0.00     0.270 C 
ENDROOT
BRANCH   1   4
HETATM    4  C   UNL     1     -40.991  58.159 -53.393  1.00  0.00     0.190 C 
HETATM    5  C   UNL     1     -40.911  56.868 -54.225  1.00  0.00     0.048 C 
HETATM    6  C   UNL     1     -42.185  56.580 -55.022  1.00  0.00     0.099 C 
HETATM    7  N   UNL     1     -42.521  57.759 -55.831  1.00  0.00    -0.268 NA
HETATM    8  C   UNL     1     -42.759  58.980 -55.054  1.00  0.00     0.099 C 
HETATM    9  C   UNL     1     -41.491  59.316 -54.272  1.00  0.00     0.048 C 
BRANCH   7  10
HETATM   10  C   UNL     1     -43.449  57.516 -56.856  1.00  0.00     0.109 A 
HETATM   11  N   UNL     1     -44.648  58.125 -56.826  1.00  0.00    -0.224 NA
HETATM   12  C   UNL     1     -45.550  57.817 -57.790  1.00  0.00     0.102 A 
HETATM   13  N   UNL     1     -45.309  56.930 -58.764  1.00  0.00    -0.348 N 
HETATM   14  C   UNL     1     -46.897  58.465 -57.728  1.00  0.00     0.091 C 
HETATM   15  C   UNL     1     -44.123  56.306 -58.825  1.00  0.00     0.009 A 
HETATM   16  H   UNL     1     -46.036  56.727 -59.448  1.00  0.00     0.167 HD
HETATM   17  C   UNL     1     -43.881  55.308 -59.911  1.00  0.00     0.068 C 
HETATM   18  C   UNL     1     -43.161  56.591 -57.854  1.00  0.00     0.069 A 
ENDBRANCH   7  10
ENDBRANCH   1   4
BRANCH   1  19
HETATM   19  C   UNL     1     -41.397  56.630 -51.407  1.00  0.00     0.277 C 
BRANCH  19  20
HETATM   20  C   UNL     1     -42.512  55.671 -51.211  1.00  0.00     0.016 A 
HETATM   21  C   UNL     1     -42.573  54.294 -51.586  1.00  0.00     0.096 A 
HETATM   22  N   UNL     1     -43.787  53.789 -51.342  1.00  0.00    -0.174 NA
HETATM   23  N   UNL     1     -44.451  54.760 -50.707  1.00  0.00    -0.288 N 
HETATM   24  H   UNL     1     -45.390  54.562 -50.370  1.00  0.00     0.188 HD
HETATM   25  C   UNL     1     -43.742  55.924 -50.633  1.00  0.00     0.120 A 
BRANCH  21  26
HETATM   26  C   UNL     1     -41.542  53.472 -52.213  1.00  0.00    -0.005 A 
HETATM   27  C   UNL     1     -40.548  52.857 -51.442  1.00  0.00     0.014 A 
HETATM   28  C   UNL     1     -39.579  52.055 -52.051  1.00  0.00     0.001 A 
HETATM   29  C   UNL     1     -39.605  51.857 -53.431  1.00  0.00     0.000 A 
HETATM   30  C   UNL     1     -40.600  52.454 -54.204  1.00  0.00     0.001 A 
HETATM   31  C   UNL     1     -41.567  53.257 -53.597  1.00  0.00     0.014 A 
ENDBRANCH  21  26
ENDBRANCH  19  20
ENDBRANCH   1  19
TORSDOF 5
ENDMDL
MODEL 2
REMARK VINA RESULT:      -8.5      0.535      1.599
REMARK  5 active torsions:
REMARK  status: ('A' for Active; 'I' for Inactive)
REMARK    1  A    between atoms: C_8  and  N_9 
REMARK    2  A    between atoms: C_12  and  N_13 
REMARK    3  A    between atoms: N_13  and  C_15 
REMARK    4  A    between atoms: C_15  and  C_16 
REMARK    5  A    between atoms: C_17  and  C_18 
ROOT
HETATM    1  N   UNL     1     -41.596  57.918 -51.847  1.00  0.00    -0.067 N 
HETATM    2  H   UNL     1     -42.602  57.875 -52.055  1.00  0.00     0.280 HD
HETATM    3  C   UNL     1     -41.428  58.965 -50.766  1.00  0.00     0.270 C 
ENDROOT
BRANCH   1   4
HETATM    4  C   UNL     1     -40.817  58.192 -53.149  1.00  0.00     0.190 C 
HETATM    5  C   UNL     1     -40.701  56.914 -53.998  1.00  0.00     0.048 C 
HETATM    6  C   UNL     1     -41.981  56.577 -54.764  1.00  0.00     0.099 C 
HETATM    7  N   UNL     1     -42.390  57.748 -55.551  1.00  0.00    -0.268 NA
HETATM    8  C   UNL     1     -42.662  58.949 -54.755  1.00  0.00     0.099 C 
HETATM    9  C   UNL     1     -41.391  59.334 -54.003  1.00  0.00     0.048 C 
BRANCH   7  10
HETATM   10  C   UNL     1     -43.333  57.473 -56.555  1.00  0.00     0.109 A 
HETATM   11  N   UNL     1     -43.008  56.648 -57.565  1.00  0.00    -0.224 NA
HETATM   12  C   UNL     1     -43.912  56.456 -58.556  1.00  0.00     0.102 A 
HETATM   13  N   UNL     1     -45.109  57.055 -58.583  1.00  0.00    -0.348 N 
HETATM   14  C   UNL     1     -43.529  55.570 -59.699  1.00  0.00     0.091 C 
HETATM   15  C   UNL     1     -45.467  57.884 -57.590  1.00  0.00     0.009 A 
HETATM   16  H   UNL     1     -45.738  56.886 -59.367  1.00  0.00     0.167 HD
HETATM   17  C   UNL     1     -46.801  58.555 -57.649  1.00  0.00     0.068 C 
HETATM   18  C   UNL     1     -44.569  58.112 -56.547  1.00  0.00     0.069 A 
ENDBRANCH   7  10
ENDBRANCH   1   4
BRANCH   1  19
HETATM   19  C   UNL     1     -41.237  56.537 -51.271  1.00  0.00     0.277 C 
BRANCH  19  20
HETATM   20  C   UNL     1     -42.394  55.613 -51.163  1.00  0.00     0.016 A 
HETATM   21  C   UNL     1     -42.480  54.250 -51.579  1.00  0.00     0.096 A 
HETATM   22  N   UNL     1     -43.723  53.782 -51.416  1.00  0.00    -0.174 NA
HETATM   23  N   UNL     1     -44.388  54.760 -50.791  1.00  0.00    -0.288 N 
HETATM   24  H   UNL     1     -45.351  54.587 -50.512  1.00  0.00     0.188 HD
HETATM   25  C   UNL     1     -43.644  55.895 -50.646  1.00  0.00     0.120 A 
BRANCH  21  26
HETATM   26  C   UNL     1     -41.445  53.408 -52.171  1.00  0.00    -0.005 A 
HETATM   27  C   UNL     1     -40.486  52.778 -51.368  1.00  0.00     0.014 A 
HETATM   28  C   UNL     1     -39.513  51.958 -51.944  1.00  0.00     0.001 A 
HETATM   29  C   UNL     1     -39.500  51.756 -53.324  1.00  0.00     0.000 A 
HETATM   30  C   UNL     1     -40.460  52.367 -54.129  1.00  0.00     0.001 A 
HETATM   31  C   UNL     1     -41.430  53.189 -53.555  1.00  0.00     0.014 A 
ENDBRANCH  21  26
ENDBRANCH  19  20
ENDBRANCH   1  19
TORSDOF 5
ENDMDL
MODEL 3
REMARK VINA RESULT:      -8.4      2.009      2.923
REMARK  5 active torsions:
REMARK  status: ('A' for Active; 'I' for Inactive)
REMARK    1  A    between atoms: C_8  and  N_9 
REMARK    2  A    between atoms: C_12  and  N_13 
REMARK    3  A    between atoms: N_13  and  C_15 
REMARK    4  A    between atoms: C_15  and  C_16 
REMARK    5  A    between atoms: C_17  and  C_18 
ROOT
HETATM    1  N   UNL     1     -43.015  55.221 -52.997  1.00  0.00    -0.067 N 
HETATM    2  H   UNL     1     -43.738  54.877 -53.642  1.00  0.00     0.280 HD
HETATM    3  C   UNL     1     -43.641  56.364 -52.225  1.00  0.00     0.270 C 
ENDROOT
BRANCH   1   4
HETATM    4  C   UNL     1     -41.749  55.587 -53.797  1.00  0.00     0.190 C 
HETATM    5  C   UNL     1     -41.528  54.600 -54.955  1.00  0.00     0.048 C 
HETATM    6  C   UNL     1     -42.436  54.863 -56.158  1.00  0.00     0.099 C 
HETATM    7  N   UNL     1     -42.291  56.266 -56.570  1.00  0.00    -0.268 NA
HETATM    8  C   UNL     1     -42.646  57.241 -55.534  1.00  0.00     0.099 C 
HETATM    9  C   UNL     1     -41.732  57.029 -54.330  1.00  0.00     0.048 C 
BRANCH   7  10
HETATM   10  C   UNL     1     -42.791  56.550 -57.851  1.00  0.00     0.109 A 
HETATM   11  N   UNL     1     -43.545  55.638 -58.488  1.00  0.00    -0.224 NA
HETATM   12  C   UNL     1     -43.954  55.910 -59.752  1.00  0.00     0.102 A 
HETATM   13  N   UNL     1     -43.637  57.039 -60.398  1.00  0.00    -0.348 N 
HETATM   14  C   UNL     1     -44.757  54.874 -60.472  1.00  0.00     0.091 C 
HETATM   15  C   UNL     1     -42.887  57.972 -59.791  1.00  0.00     0.009 A 
HETATM   16  H   UNL     1     -43.959  57.176 -61.355  1.00  0.00     0.167 HD
HETATM   17  C   UNL     1     -42.531  59.217 -60.537  1.00  0.00     0.068 C 
HETATM   18  C   UNL     1     -42.443  57.736 -58.489  1.00  0.00     0.069 A 
ENDBRANCH   7  10
ENDBRANCH   1   4
BRANCH   1  19
HETATM   19  C   UNL     1     -42.739  54.054 -52.033  1.00  0.00     0.277 C 
BRANCH  19  20
HETATM   20  C   UNL     1     -41.526  54.239 -51.198  1.00  0.00     0.016 A 
HETATM   21  C   UNL     1     -40.393  53.378 -51.078  1.00  0.00     0.096 A 
HETATM   22  N   UNL     1     -39.551  53.829 -50.143  1.00  0.00    -0.174 NA
HETATM   23  N   UNL     1     -40.046  55.012 -49.764  1.00  0.00    -0.288 N 
HETATM   24  H   UNL     1     -39.518  55.564 -49.092  1.00  0.00     0.188 HD
HETATM   25  C   UNL     1     -41.251  55.289 -50.342  1.00  0.00     0.120 A 
BRANCH  21  26
HETATM   26  C   UNL     1     -40.120  52.125 -51.777  1.00  0.00    -0.005 A 
HETATM   27  C   UNL     1     -40.034  52.087 -53.174  1.00  0.00     0.014 A 
HETATM   28  C   UNL     1     -39.751  50.887 -53.830  1.00  0.00     0.001 A 
HETATM   29  C   UNL     1     -39.544  49.721 -53.093  1.00  0.00     0.000 A 
HETATM   30  C   UNL     1     -39.613  49.753 -51.702  1.00  0.00     0.001 A 
HETATM   31  C   UNL     1     -39.898  50.951 -51.045  1.00  0.00     0.014 A 
ENDBRANCH  21  26
ENDBRANCH  19  20
ENDBRANCH   1  19
TORSDOF 5
ENDMDL
MODEL 4
REMARK VINA RESULT:      -7.8      2.952      4.513
REMARK  5 active torsions:
REMARK  status: ('A' for Active; 'I' for Inactive)
REMARK    1  A    between atoms: C_8  and  N_9 
REMARK    2  A    between atoms: C_12  and  N_13 
REMARK    3  A    between atoms: N_13  and  C_15 
REMARK    4  A    between atoms: C_15  and  C_16 
REMARK    5  A    between atoms: C_17  and  C_18 
ROOT
HETATM    1  N   UNL     1     -42.849  55.130 -51.785  1.00  0.00    -0.067 N 
HETATM    2  H   UNL     1     -43.191  55.386 -52.720  1.00  0.00     0.280 HD
HETATM    3  C   UNL     1     -43.633  53.905 -51.364  1.00  0.00     0.270 C 
ENDROOT
BRANCH   1   4
HETATM    4  C   UNL     1     -42.978  56.344 -50.844  1.00  0.00     0.190 C 
HETATM    5  C   UNL     1     -41.710  57.213 -50.892  1.00  0.00     0.048 C 
HETATM    6  C   UNL     1     -41.633  58.106 -52.131  1.00  0.00     0.099 C 
HETATM    7  N   UNL     1     -42.868  58.896 -52.230  1.00  0.00    -0.268 NA
HETATM    8  C   UNL     1     -44.091  58.097 -52.343  1.00  0.00     0.099 C 
HETATM    9  C   UNL     1     -44.217  57.217 -51.102  1.00  0.00     0.048 C 
BRANCH   7  10
HETATM   10  C   UNL     1     -42.790  59.991 -53.104  1.00  0.00     0.109 A 
HETATM   11  N   UNL     1     -43.051  61.229 -52.646  1.00  0.00    -0.224 NA
HETATM   12  C   UNL     1     -43.036  62.258 -53.528  1.00  0.00     0.102 A 
HETATM   13  N   UNL     1     -42.784  62.102 -54.834  1.00  0.00    -0.348 N 
HETATM   14  C   UNL     1     -43.369  63.626 -53.022  1.00  0.00     0.091 C 
HETATM   15  C   UNL     1     -42.517  60.881 -55.325  1.00  0.00     0.009 A 
HETATM   16  H   UNL     1     -42.807  62.913 -55.450  1.00  0.00     0.167 HD
HETATM   17  C   UNL     1     -42.254  60.727 -56.788  1.00  0.00     0.068 C 
HETATM   18  C   UNL     1     -42.520  59.790 -54.454  1.00  0.00     0.069 A 
ENDBRANCH   7  10
ENDBRANCH   1   4
BRANCH   1  19
HETATM   19  C   UNL     1     -41.373  54.741 -51.982  1.00  0.00     0.277 C 
BRANCH  19  20
HETATM   20  C   UNL     1     -40.976  54.596 -53.405  1.00  0.00     0.016 A 
HETATM   21  C   UNL     1     -40.397  53.462 -54.052  1.00  0.00     0.096 A 
HETATM   22  N   UNL     1     -40.075  53.751 -55.317  1.00  0.00    -0.174 NA
HETATM   23  N   UNL     1     -40.550  54.983 -55.529  1.00  0.00    -0.288 N 
HETATM   24  H   UNL     1     -40.466  55.379 -56.462  1.00  0.00     0.188 HD
HETATM   25  C   UNL     1     -41.070  55.549 -54.401  1.00  0.00     0.120 A 
BRANCH  21  26
HETATM   26  C   UNL     1     -40.093  52.148 -53.493  1.00  0.00    -0.005 A 
HETATM   27  C   UNL     1     -39.769  52.002 -52.138  1.00  0.00     0.014 A 
HETATM   28  C   UNL     1     -39.502  50.737 -51.609  1.00  0.00     0.001 A 
HETATM   29  C   UNL     1     -39.565  49.611 -52.430  1.00  0.00     0.000 A 
HETATM   30  C   UNL     1     -39.901  49.746 -53.776  1.00  0.00     0.001 A 
HETATM   31  C   UNL     1     -40.166  51.009 -54.305  1.00  0.00     0.014 A 
ENDBRANCH  21  26
ENDBRANCH  19  20
ENDBRANCH   1  19
TORSDOF 5
ENDMDL
MODEL 5
REMARK VINA RESULT:      -7.8      2.253      6.020
REMARK  5 active torsions:
REMARK  status: ('A' for Active; 'I' for Inactive)
REMARK    1  A    between atoms: C_8  and  N_9 
REMARK    2  A    between atoms: C_12  and  N_13 
REMARK    3  A    between atoms: N_13  and  C_15 
REMARK    4  A    between atoms: C_15  and  C_16 
REMARK    5  A    between atoms: C_17  and  C_18 
ROOT
HETATM    1  N   UNL     1     -43.904  57.624 -55.018  1.00  0.00    -0.067 N 
HETATM    2  H   UNL     1     -44.057  56.992 -54.222  1.00  0.00     0.280 HD
HETATM    3  C   UNL     1     -45.202  57.651 -55.797  1.00  0.00     0.270 C 
ENDROOT
BRANCH   1   4
HETATM    4  C   UNL     1     -42.672  57.152 -55.816  1.00  0.00     0.190 C 
HETATM    5  C   UNL     1     -41.396  57.252 -54.964  1.00  0.00     0.048 C 
HETATM    6  C   UNL     1     -41.251  56.114 -53.952  1.00  0.00     0.099 C 
HETATM    7  N   UNL     1     -41.366  54.830 -54.656  1.00  0.00    -0.268 NA
HETATM    8  C   UNL     1     -42.640  54.633 -55.353  1.00  0.00     0.099 C 
HETATM    9  C   UNL     1     -42.800  55.735 -56.398  1.00  0.00     0.048 C 
BRANCH   7  10
HETATM   10  C   UNL     1     -40.913  53.722 -53.922  1.00  0.00     0.109 A 
HETATM   11  N   UNL     1     -40.715  53.838 -52.597  1.00  0.00    -0.224 NA
HETATM   12  C   UNL     1     -40.210  52.773 -51.926  1.00  0.00     0.102 A 
HETATM   13  N   UNL     1     -39.889  51.617 -52.520  1.00  0.00    -0.348 N 
HETATM   14  C   UNL     1     -39.952  52.921 -50.460  1.00  0.00     0.091 C 
HETATM   15  C   UNL     1     -40.075  51.466 -53.840  1.00  0.00     0.009 A 
HETATM   16  H   UNL     1     -39.494  50.860 -51.963  1.00  0.00     0.167 HD
HETATM   17  C   UNL     1     -39.695  50.173 -54.485  1.00  0.00     0.068 C 
HETATM   18  C   UNL     1     -40.594  52.535 -54.573  1.00  0.00     0.069 A 
ENDBRANCH   7  10
ENDBRANCH   1   4
BRANCH   1  19
HETATM   19  C   UNL     1     -43.660  59.012 -54.398  1.00  0.00     0.277 C 
BRANCH  19  20
HETATM   20  C   UNL     1     -44.503  59.295 -53.210  1.00  0.00     0.016 A 
HETATM   21  C   UNL     1     -44.338  58.820 -51.873  1.00  0.00     0.096 A 
HETATM   22  N   UNL     1     -45.363  59.203 -51.104  1.00  0.00    -0.174 NA
HETATM   23  N   UNL     1     -46.100  60.010 -51.875  1.00  0.00    -0.288 N 
HETATM   24  H   UNL     1     -46.908  60.468 -51.461  1.00  0.00     0.188 HD
HETATM   25  C   UNL     1     -45.645  60.072 -53.161  1.00  0.00     0.120 A 
BRANCH  21  26
HETATM   26  C   UNL     1     -43.278  57.978 -51.327  1.00  0.00    -0.005 A 
HETATM   27  C   UNL     1     -42.002  58.500 -51.081  1.00  0.00     0.014 A 
HETATM   28  C   UNL     1     -41.002  57.690 -50.538  1.00  0.00     0.001 A 
HETATM   29  C   UNL     1     -41.274  56.357 -50.231  1.00  0.00     0.000 A 
HETATM   30  C   UNL     1     -42.546  55.834 -50.459  1.00  0.00     0.001 A 
HETATM   31  C   UNL     1     -43.545  56.642 -51.003  1.00  0.00     0.014 A 
ENDBRANCH  21  26
ENDBRANCH  19  20
ENDBRANCH   1  19
TORSDOF 5
ENDMDL
MODEL 6
REMARK VINA RESULT:      -7.7      1.673      2.156
REMARK  5 active torsions:
REMARK  status: ('A' for Active; 'I' for Inactive)
REMARK    1  A    between atoms: C_8  and  N_9 
REMARK    2  A    between atoms: C_12  and  N_13 
REMARK    3  A    between atoms: N_13  and  C_15 
REMARK    4  A    between atoms: C_15  and  C_16 
REMARK    5  A    between atoms: C_17  and  C_18 
ROOT
HETATM    1  N   UNL     1     -42.712  56.314 -51.903  1.00  0.00    -0.067 N 
HETATM    2  H   UNL     1     -42.795  55.652 -52.685  1.00  0.00     0.280 HD
HETATM    3  C   UNL     1     -43.621  55.796 -50.809  1.00  0.00     0.270 C 
ENDROOT
BRANCH   1   4
HETATM    4  C   UNL     1     -43.034  57.736 -52.402  1.00  0.00     0.190 C 
HETATM    5  C   UNL     1     -42.053  58.164 -53.508  1.00  0.00     0.048 C 
HETATM    6  C   UNL     1     -42.372  57.550 -54.872  1.00  0.00     0.099 C 
HETATM    7  N   UNL     1     -43.772  57.836 -55.211  1.00  0.00    -0.268 NA
HETATM    8  C   UNL     1     -44.748  57.304 -54.255  1.00  0.00     0.099 C 
HETATM    9  C   UNL     1     -44.480  57.926 -52.887  1.00  0.00     0.048 C 
BRANCH   7  10
HETATM   10  C   UNL     1     -44.095  57.638 -56.563  1.00  0.00     0.109 A 
HETATM   11  N   UNL     1     -45.283  58.059 -57.032  1.00  0.00    -0.224 NA
HETATM   12  C   UNL     1     -45.597  57.792 -58.323  1.00  0.00     0.102 A 
HETATM   13  N   UNL     1     -44.786  57.121 -59.151  1.00  0.00    -0.348 N 
HETATM   14  C   UNL     1     -46.937  58.225 -58.828  1.00  0.00     0.091 C 
HETATM   15  C   UNL     1     -43.592  56.688 -58.717  1.00  0.00     0.009 A 
HETATM   16  H   UNL     1     -45.088  56.934 -60.107  1.00  0.00     0.167 HD
HETATM   17  C   UNL     1     -42.710  55.928 -59.654  1.00  0.00     0.068 C 
HETATM   18  C   UNL     1     -43.225  56.940 -57.395  1.00  0.00     0.069 A 
ENDBRANCH   7  10
ENDBRANCH   1   4
BRANCH   1  19
HETATM   19  C   UNL     1     -41.250  56.212 -51.434  1.00  0.00     0.277 C 
BRANCH  19  20
HETATM   20  C   UNL     1     -41.015  55.144 -50.430  1.00  0.00     0.016 A 
HETATM   21  C   UNL     1     -40.754  53.758 -50.657  1.00  0.00     0.096 A 
HETATM   22  N   UNL     1     -40.707  53.089 -49.500  1.00  0.00    -0.174 NA
HETATM   23  N   UNL     1     -40.796  54.025 -48.548  1.00  0.00    -0.288 N 
HETATM   24  H   UNL     1     -40.717  53.735 -47.576  1.00  0.00     0.188 HD
HETATM   25  C   UNL     1     -41.018  55.273 -49.054  1.00  0.00     0.120 A 
BRANCH  21  26
HETATM   26  C   UNL     1     -40.609  53.051 -51.926  1.00  0.00    -0.005 A 
HETATM   27  C   UNL     1     -41.405  53.385 -53.028  1.00  0.00     0.014 A 
HETATM   28  C   UNL     1     -41.242  52.717 -54.244  1.00  0.00     0.001 A 
HETATM   29  C   UNL     1     -40.277  51.718 -54.366  1.00  0.00     0.000 A 
HETATM   30  C   UNL     1     -39.470  51.390 -53.278  1.00  0.00     0.001 A 
HETATM   31  C   UNL     1     -39.633  52.055 -52.063  1.00  0.00     0.014 A 
ENDBRANCH  21  26
ENDBRANCH  19  20
ENDBRANCH   1  19
TORSDOF 5
ENDMDL
MODEL 7
REMARK VINA RESULT:      -7.6      2.166      3.164
REMARK  5 active torsions:
REMARK  status: ('A' for Active; 'I' for Inactive)
REMARK    1  A    between atoms: C_8  and  N_9 
REMARK    2  A    between atoms: C_12  and  N_13 
REMARK    3  A    between atoms: N_13  and  C_15 
REMARK    4  A    between atoms: C_15  and  C_16 
REMARK    5  A    between atoms: C_17  and  C_18 
ROOT
HETATM    1  N   UNL     1     -42.783  56.816 -51.471  1.00  0.00    -0.067 N 
HETATM    2  H   UNL     1     -42.697  56.294 -52.352  1.00  0.00     0.280 HD
HETATM    3  C   UNL     1     -43.931  56.185 -50.712  1.00  0.00     0.270 C 
ENDROOT
BRANCH   1   4
HETATM    4  C   UNL     1     -42.950  58.317 -51.781  1.00  0.00     0.190 C 
HETATM    5  C   UNL     1     -41.631  58.922 -52.288  1.00  0.00     0.048 C 
HETATM    6  C   UNL     1     -41.335  58.592 -53.752  1.00  0.00     0.099 C 
HETATM    7  N   UNL     1     -42.491  58.977 -54.573  1.00  0.00    -0.268 NA
HETATM    8  C   UNL     1     -43.741  58.299 -54.217  1.00  0.00     0.099 C 
HETATM    9  C   UNL     1     -44.084  58.637 -52.768  1.00  0.00     0.048 C 
BRANCH   7  10
HETATM   10  C   UNL     1     -42.227  59.053 -55.950  1.00  0.00     0.109 A 
HETATM   11  N   UNL     1     -41.724  60.187 -56.469  1.00  0.00    -0.224 NA
HETATM   12  C   UNL     1     -41.545  60.256 -57.811  1.00  0.00     0.102 A 
HETATM   13  N   UNL     1     -41.853  59.255 -58.645  1.00  0.00    -0.348 N 
HETATM   14  C   UNL     1     -41.025  61.535 -58.389  1.00  0.00     0.091 C 
HETATM   15  C   UNL     1     -42.355  58.108 -58.161  1.00  0.00     0.009 A 
HETATM   16  H   UNL     1     -41.714  59.376 -59.648  1.00  0.00     0.167 HD
HETATM   17  C   UNL     1     -42.708  57.010 -59.111  1.00  0.00     0.068 C 
HETATM   18  C   UNL     1     -42.557  57.990 -56.785  1.00  0.00     0.069 A 
ENDBRANCH   7  10
ENDBRANCH   1   4
BRANCH   1  19
HETATM   19  C   UNL     1     -41.471  56.554 -50.710  1.00  0.00     0.277 C 
BRANCH  19  20
HETATM   20  C   UNL     1     -41.117  55.117 -50.602  1.00  0.00     0.016 A 
HETATM   21  C   UNL     1     -41.128  54.123 -51.627  1.00  0.00     0.096 A 
HETATM   22  N   UNL     1     -40.853  52.916 -51.121  1.00  0.00    -0.174 NA
HETATM   23  N   UNL     1     -40.540  53.135 -49.839  1.00  0.00    -0.288 N 
HETATM   24  H   UNL     1     -40.234  52.346 -49.275  1.00  0.00     0.188 HD
HETATM   25  C   UNL     1     -40.716  54.436 -49.468  1.00  0.00     0.120 A 
BRANCH  21  26
HETATM   26  C   UNL     1     -41.445  54.275 -53.044  1.00  0.00    -0.005 A 
HETATM   27  C   UNL     1     -42.764  54.167 -53.500  1.00  0.00     0.014 A 
HETATM   28  C   UNL     1     -43.058  54.336 -54.855  1.00  0.00     0.001 A 
HETATM   29  C   UNL     1     -42.036  54.624 -55.759  1.00  0.00     0.000 A 
HETATM   30  C   UNL     1     -40.722  54.749 -55.311  1.00  0.00     0.001 A 
HETATM   31  C   UNL     1     -40.427  54.577 -53.958  1.00  0.00     0.014 A 
ENDBRANCH  21  26
ENDBRANCH  19  20
ENDBRANCH   1  19
TORSDOF 5
ENDMDL
MODEL 8
REMARK VINA RESULT:      -7.4      3.457      5.981
REMARK  5 active torsions:
REMARK  status: ('A' for Active; 'I' for Inactive)
REMARK    1  A    between atoms: C_8  and  N_9 
REMARK    2  A    between atoms: C_12  and  N_13 
REMARK    3  A    between atoms: N_13  and  C_15 
REMARK    4  A    between atoms: C_15  and  C_16 
REMARK    5  A    between atoms: C_17  and  C_18 
ROOT
HETATM    1  N   UNL     1     -41.504  57.684 -51.816  1.00  0.00    -0.067 N 
HETATM    2  H   UNL     1     -42.526  57.725 -51.708  1.00  0.00     0.280 HD
HETATM    3  C   UNL     1     -40.980  56.908 -50.627  1.00  0.00     0.270 C 
ENDROOT
BRANCH   1   4
HETATM    4  C   UNL     1     -40.950  59.116 -51.959  1.00  0.00     0.190 C 
HETATM    5  C   UNL     1     -41.778  59.926 -52.971  1.00  0.00     0.048 C 
HETATM    6  C   UNL     1     -43.104  60.433 -52.400  1.00  0.00     0.099 C 
HETATM    7  N   UNL     1     -42.840  61.172 -51.158  1.00  0.00    -0.268 NA
HETATM    8  C   UNL     1     -42.188  60.382 -50.110  1.00  0.00     0.099 C 
HETATM    9  C   UNL     1     -40.843  59.889 -50.635  1.00  0.00     0.048 C 
BRANCH   7  10
HETATM   10  C   UNL     1     -43.905  61.976 -50.722  1.00  0.00     0.109 A 
HETATM   11  N   UNL     1     -43.798  62.652 -49.565  1.00  0.00    -0.224 NA
HETATM   12  C   UNL     1     -44.869  63.364 -49.134  1.00  0.00     0.102 A 
HETATM   13  N   UNL     1     -46.030  63.418 -49.799  1.00  0.00    -0.348 N 
HETATM   14  C   UNL     1     -44.759  64.080 -47.825  1.00  0.00     0.091 C 
HETATM   15  C   UNL     1     -46.170  62.758 -50.959  1.00  0.00     0.009 A 
HETATM   16  H   UNL     1     -46.805  63.955 -49.413  1.00  0.00     0.167 HD
HETATM   17  C   UNL     1     -47.480  62.819 -51.677  1.00  0.00     0.068 C 
HETATM   18  C   UNL     1     -45.095  62.011 -51.443  1.00  0.00     0.069 A 
ENDBRANCH   7  10
ENDBRANCH   1   4
BRANCH   1  19
HETATM   19  C   UNL     1     -41.261  56.869 -53.098  1.00  0.00     0.277 C 
BRANCH  19  20
HETATM   20  C   UNL     1     -42.440  56.085 -53.544  1.00  0.00     0.016 A 
HETATM   21  C   UNL     1     -42.563  54.669 -53.677  1.00  0.00     0.096 A 
HETATM   22  N   UNL     1     -43.744  54.344 -54.214  1.00  0.00    -0.174 NA
HETATM   23  N   UNL     1     -44.421  55.494 -54.300  1.00  0.00    -0.288 N 
HETATM   24  H   UNL     1     -45.383  55.466 -54.630  1.00  0.00     0.188 HD
HETATM   25  C   UNL     1     -43.669  56.576 -53.943  1.00  0.00     0.120 A 
BRANCH  21  26
HETATM   26  C   UNL     1     -41.582  53.634 -53.367  1.00  0.00    -0.005 A 
HETATM   27  C   UNL     1     -41.066  52.809 -54.375  1.00  0.00     0.014 A 
HETATM   28  C   UNL     1     -40.111  51.836 -54.069  1.00  0.00     0.001 A 
HETATM   29  C   UNL     1     -39.661  51.689 -52.758  1.00  0.00     0.000 A 
HETATM   30  C   UNL     1     -40.158  52.515 -51.752  1.00  0.00     0.001 A 
HETATM   31  C   UNL     1     -41.113  53.486 -52.055  1.00  0.00     0.014 A 
ENDBRANCH  21  26
ENDBRANCH  19  20
ENDBRANCH   1  19
TORSDOF 5
ENDMDL
MODEL 9
REMARK VINA RESULT:      -7.4      2.243      7.846
REMARK  5 active torsions:
REMARK  status: ('A' for Active; 'I' for Inactive)
REMARK    1  A    between atoms: C_8  and  N_9 
REMARK    2  A    between atoms: C_12  and  N_13 
REMARK    3  A    between atoms: N_13  and  C_15 
REMARK    4  A    between atoms: C_15  and  C_16 
REMARK    5  A    between atoms: C_17  and  C_18 
ROOT
HETATM    1  N   UNL     1     -43.489  57.428 -54.853  1.00  0.00    -0.067 N 
HETATM    2  H   UNL     1     -42.602  57.904 -54.644  1.00  0.00     0.280 HD
HETATM    3  C   UNL     1     -44.340  57.544 -53.606  1.00  0.00     0.270 C 
ENDROOT
BRANCH   1   4
HETATM    4  C   UNL     1     -43.199  55.987 -55.316  1.00  0.00     0.190 C 
HETATM    5  C   UNL     1     -41.685  55.715 -55.344  1.00  0.00     0.048 C 
HETATM    6  C   UNL     1     -41.090  55.454 -53.960  1.00  0.00     0.099 C 
HETATM    7  N   UNL     1     -41.849  54.379 -53.306  1.00  0.00    -0.268 NA
HETATM    8  C   UNL     1     -43.274  54.670 -53.121  1.00  0.00     0.099 C 
HETATM    9  C   UNL     1     -43.908  54.902 -54.490  1.00  0.00     0.048 C 
BRANCH   7  10
HETATM   10  C   UNL     1     -41.209  53.807 -52.196  1.00  0.00     0.109 A 
HETATM   11  N   UNL     1     -40.604  52.612 -52.319  1.00  0.00    -0.224 NA
HETATM   12  C   UNL     1     -40.055  52.051 -51.214  1.00  0.00     0.102 A 
HETATM   13  N   UNL     1     -40.094  52.624 -50.004  1.00  0.00    -0.348 N 
HETATM   14  C   UNL     1     -39.420  50.703 -51.348  1.00  0.00     0.091 C 
HETATM   15  C   UNL     1     -40.688  53.817 -49.845  1.00  0.00     0.009 A 
HETATM   16  H   UNL     1     -39.680  52.142 -49.207  1.00  0.00     0.167 HD
HETATM   17  C   UNL     1     -40.734  54.431 -48.483  1.00  0.00     0.068 C 
HETATM   18  C   UNL     1     -41.267  54.434 -50.955  1.00  0.00     0.069 A 
ENDBRANCH   7  10
ENDBRANCH   1   4
BRANCH   1  19
HETATM   19  C   UNL     1     -44.137  58.249 -55.982  1.00  0.00     0.277 C 
BRANCH  19  20
HETATM   20  C   UNL     1     -43.189  58.653 -57.050  1.00  0.00     0.016 A 
HETATM   21  C   UNL     1     -43.054  58.114 -58.366  1.00  0.00     0.096 A 
HETATM   22  N   UNL     1     -42.012  58.663 -58.999  1.00  0.00    -0.174 NA
HETATM   23  N   UNL     1     -41.568  59.622 -58.180  1.00  0.00    -0.288 N 
HETATM   24  H   UNL     1     -40.806  60.215 -58.500  1.00  0.00     0.188 HD
HETATM   25  C   UNL     1     -42.219  59.635 -56.981  1.00  0.00     0.120 A 
BRANCH  21  26
HETATM   26  C   UNL     1     -43.841  57.064 -59.008  1.00  0.00    -0.005 A 
HETATM   27  C   UNL     1     -43.358  55.752 -59.085  1.00  0.00     0.014 A 
HETATM   28  C   UNL     1     -44.130  54.752 -59.682  1.00  0.00     0.001 A 
HETATM   29  C   UNL     1     -45.389  55.056 -60.197  1.00  0.00     0.000 A 
HETATM   30  C   UNL     1     -45.883  56.357 -60.111  1.00  0.00     0.001 A 
HETATM   31  C   UNL     1     -45.112  57.357 -59.516  1.00  0.00     0.014 A 
ENDBRANCH  21  26
ENDBRANCH  19  20
ENDBRANCH   1  19
TORSDOF 5
ENDMDL
MODEL 10
REMARK VINA RESULT:      -7.3      2.712      4.869
REMARK  5 active torsions:
REMARK  status: ('A' for Active; 'I' for Inactive)
REMARK    1  A    between atoms: C_8  and  N_9 
REMARK    2  A    between atoms: C_12  and  N_13 
REMARK    3  A    between atoms: N_13  and  C_15 
REMARK    4  A    between atoms: C_15  and  C_16 
REMARK    5  A    between atoms: C_17  and  C_18 
ROOT
HETATM    1  N   UNL     1     -41.434  55.196 -54.275  1.00  0.00    -0.067 N 
HETATM    2  H   UNL     1     -40.964  55.961 -53.774  1.00  0.00     0.280 HD
HETATM    3  C   UNL     1     -40.374  54.532 -55.128  1.00  0.00     0.270 C 
ENDROOT
BRANCH   1   4
HETATM    4  C   UNL     1     -42.640  55.759 -55.052  1.00  0.00     0.190 C 
HETATM    5  C   UNL     1     -43.909  55.743 -54.183  1.00  0.00     0.048 C 
HETATM    6  C   UNL     1     -43.959  56.881 -53.162  1.00  0.00     0.099 C 
HETATM    7  N   UNL     1     -43.764  58.159 -53.860  1.00  0.00    -0.268 NA
HETATM    8  C   UNL     1     -42.489  58.271 -54.575  1.00  0.00     0.099 C 
HETATM    9  C   UNL     1     -42.421  57.168 -55.628  1.00  0.00     0.048 C 
BRANCH   7  10
HETATM   10  C   UNL     1     -44.128  59.291 -53.113  1.00  0.00     0.109 A 
HETATM   11  N   UNL     1     -43.246  59.835 -52.256  1.00  0.00    -0.224 NA
HETATM   12  C   UNL     1     -43.649  60.883 -51.497  1.00  0.00     0.102 A 
HETATM   13  N   UNL     1     -44.884  61.397 -51.552  1.00  0.00    -0.348 N 
HETATM   14  C   UNL     1     -42.678  61.457 -50.515  1.00  0.00     0.091 C 
HETATM   15  C   UNL     1     -45.789  60.880 -52.398  1.00  0.00     0.009 A 
HETATM   16  H   UNL     1     -45.132  62.174 -50.941  1.00  0.00     0.167 HD
HETATM   17  C   UNL     1     -47.167  61.458 -52.431  1.00  0.00     0.068 C 
HETATM   18  C   UNL     1     -45.420  59.800 -53.200  1.00  0.00     0.069 A 
ENDBRANCH   7  10
ENDBRANCH   1   4
BRANCH   1  19
HETATM   19  C   UNL     1     -41.892  54.213 -53.184  1.00  0.00     0.277 C 
BRANCH  19  20
HETATM   20  C   UNL     1     -41.130  54.326 -51.915  1.00  0.00     0.016 A 
HETATM   21  C   UNL     1     -40.345  53.327 -51.262  1.00  0.00     0.096 A 
HETATM   22  N   UNL     1     -39.901  53.771 -50.081  1.00  0.00    -0.174 NA
HETATM   23  N   UNL     1     -40.267  55.056 -50.027  1.00  0.00    -0.288 N 
HETATM   24  H   UNL     1     -39.971  55.610 -49.227  1.00  0.00     0.188 HD
HETATM   25  C   UNL     1     -41.038  55.430 -51.090  1.00  0.00     0.120 A 
BRANCH  21  26
HETATM   26  C   UNL     1     -40.057  51.963 -51.695  1.00  0.00    -0.005 A 
HETATM   27  C   UNL     1     -39.791  51.679 -53.040  1.00  0.00     0.014 A 
HETATM   28  C   UNL     1     -39.496  50.373 -53.440  1.00  0.00     0.001 A 
HETATM   29  C   UNL     1     -39.456  49.348 -52.496  1.00  0.00     0.000 A 
HETATM   30  C   UNL     1     -39.705  49.625 -51.153  1.00  0.00     0.001 A 
HETATM   31  C   UNL     1     -40.003  50.928 -50.753  1.00  0.00     0.014 A 
ENDBRANCH  21  26
ENDBRANCH  19  20
ENDBRANCH   1  19
TORSDOF 5
ENDMDL
