MODEL 1
REMARK VINA RESULT:      -8.4      0.000      0.000
REMARK  6 active torsions:
REMARK  status: ('A' for Active; 'I' for Inactive)
REMARK    1  A    between atoms: C_7  and  C_8 
REMARK    2  A    between atoms: N_9  and  N_10 
REMARK       I    between atoms: N_10  and  C_11 
REMARK    3  A    between atoms: C_11  and  C_12 
REMARK    4  A    between atoms: C_15  and  O_16 
REMARK    5  A    between atoms: O_16  and  C_17 
REMARK    6  A    between atoms: C_17  and  C_20 
ROOT
HETATM    1  N   UNL     1     -41.216  55.431 -55.746  1.00  0.00    -0.243 N 
HETATM    2  C   UNL     1     -42.410  55.395 -56.457  1.00  0.00     0.271 C 
HETATM    3  O   UNL     1     -43.271  54.523 -56.363  1.00  0.00    -0.266 OA
HETATM    4  H   UNL     1     -40.511  56.123 -55.965  1.00  0.00     0.192 HD
ENDROOT
BRANCH   1   5
HETATM    5  N   UNL     1     -40.755  54.461 -54.888  1.00  0.00    -0.183 NA
HETATM    6  C   UNL     1     -41.036  54.556 -53.627  1.00  0.00     0.153 C 
BRANCH   6   7
HETATM    7  C   UNL     1     -40.594  53.523 -52.704  1.00  0.00     0.018 A 
HETATM    8  C   UNL     1     -40.436  53.726 -51.338  1.00  0.00     0.018 A 
HETATM    9  C   UNL     1     -40.651  54.937 -50.503  1.00  0.00     0.069 C 
HETATM   10  N   UNL     1     -40.009  52.545 -50.786  1.00  0.00    -0.358 N 
HETATM   11  H   UNL     1     -39.813  52.399 -49.806  1.00  0.00     0.166 HD
HETATM   12  C   UNL     1     -39.884  51.575 -51.749  1.00  0.00     0.043 A 
HETATM   13  C   UNL     1     -40.245  52.155 -52.966  1.00  0.00     0.004 A 
HETATM   14  C   UNL     1     -39.484  50.238 -51.630  1.00  0.00     0.030 A 
HETATM   15  C   UNL     1     -40.205  51.344 -54.122  1.00  0.00     0.014 A 
HETATM   16  C   UNL     1     -39.809  50.005 -54.022  1.00  0.00     0.001 A 
HETATM   17  C   UNL     1     -39.453  49.462 -52.791  1.00  0.00     0.002 A 
ENDBRANCH   6   7
ENDBRANCH   1   5
BRANCH   2  18
HETATM   18  C   UNL     1     -42.655  56.535 -57.391  1.00  0.00     0.033 A 
HETATM   19  C   UNL     1     -42.423  57.872 -57.050  1.00  0.00     0.020 A 
HETATM   20  C   UNL     1     -42.693  58.887 -57.977  1.00  0.00     0.038 A 
HETATM   21  C   UNL     1     -43.181  58.589 -59.253  1.00  0.00     0.075 A 
HETATM   22  C   UNL     1     -43.390  57.256 -59.601  1.00  0.00     0.038 A 
HETATM   23  C   UNL     1     -43.127  56.238 -58.677  1.00  0.00     0.020 A 
BRANCH  21  24
HETATM   24  O   UNL     1     -43.406  59.679 -60.043  1.00  0.00    -0.279 OA
BRANCH  24  25
HETATM   25  C   UNL     1     -42.404  60.052 -60.995  1.00  0.00     0.418 C 
HETATM   26  F   UNL     1     -41.486  59.057 -61.098  1.00  0.00    -0.169 F 
HETATM   27  F   UNL     1     -42.996  60.202 -62.211  1.00  0.00    -0.169 F 
BRANCH  25  28
HETATM   28  C   UNL     1     -41.746  61.368 -60.581  1.00  0.00     0.455 C 
HETATM   29  F   UNL     1     -41.010  61.219 -59.446  1.00  0.00    -0.205 F 
HETATM   30  F   UNL     1     -40.885  61.811 -61.537  1.00  0.00    -0.205 F 
ENDBRANCH  25  28
ENDBRANCH  24  25
ENDBRANCH  21  24
ENDBRANCH   2  18
TORSDOF 6
ENDMDL
MODEL 2
REMARK VINA RESULT:      -8.2      5.233     10.483
REMARK  6 active torsions:
REMARK  status: ('A' for Active; 'I' for Inactive)
REMARK    1  A    between atoms: C_7  and  C_8 
REMARK    2  A    between atoms: N_9  and  N_10 
REMARK       I    between atoms: N_10  and  C_11 
REMARK    3  A    between atoms: C_11  and  C_12 
REMARK    4  A    between atoms: C_15  and  O_16 
REMARK    5  A    between atoms: O_16  and  C_17 
REMARK    6  A    between atoms: C_17  and  C_20 
ROOT
HETATM    1  N   UNL     1     -42.298  56.346 -57.053  1.00  0.00    -0.243 N 
HETATM    2  C   UNL     1     -42.747  56.016 -55.780  1.00  0.00     0.271 C 
HETATM    3  O   UNL     1     -43.737  56.489 -55.227  1.00  0.00    -0.266 OA
HETATM    4  H   UNL     1     -41.411  55.994 -57.389  1.00  0.00     0.192 HD
ENDROOT
BRANCH   1   5
HETATM    5  N   UNL     1     -42.827  57.315 -57.872  1.00  0.00    -0.183 NA
HETATM    6  C   UNL     1     -43.461  56.953 -58.941  1.00  0.00     0.153 C 
BRANCH   6   7
HETATM    7  C   UNL     1     -44.064  57.956 -59.804  1.00  0.00     0.018 A 
HETATM    8  C   UNL     1     -45.426  58.028 -60.069  1.00  0.00     0.018 A 
HETATM    9  C   UNL     1     -46.555  57.184 -59.596  1.00  0.00     0.069 C 
HETATM   10  N   UNL     1     -45.634  59.087 -60.914  1.00  0.00    -0.358 N 
HETATM   11  H   UNL     1     -46.533  59.377 -61.274  1.00  0.00     0.166 HD
HETATM   12  C   UNL     1     -44.449  59.713 -61.210  1.00  0.00     0.043 A 
HETATM   13  C   UNL     1     -43.441  59.029 -60.528  1.00  0.00     0.004 A 
HETATM   14  C   UNL     1     -44.200  60.827 -62.022  1.00  0.00     0.030 A 
HETATM   15  C   UNL     1     -42.115  59.494 -60.668  1.00  0.00     0.014 A 
HETATM   16  C   UNL     1     -41.847  60.606 -61.474  1.00  0.00     0.001 A 
HETATM   17  C   UNL     1     -42.877  61.262 -62.142  1.00  0.00     0.002 A 
ENDBRANCH   6   7
ENDBRANCH   1   5
BRANCH   2  18
HETATM   18  C   UNL     1     -41.957  54.978 -55.051  1.00  0.00     0.033 A 
HETATM   19  C   UNL     1     -40.716  54.505 -55.493  1.00  0.00     0.020 A 
HETATM   20  C   UNL     1     -40.043  53.519 -54.761  1.00  0.00     0.038 A 
HETATM   21  C   UNL     1     -40.583  53.001 -53.579  1.00  0.00     0.075 A 
HETATM   22  C   UNL     1     -41.807  53.489 -53.126  1.00  0.00     0.038 A 
HETATM   23  C   UNL     1     -42.487  54.471 -53.857  1.00  0.00     0.020 A 
BRANCH  21  24
HETATM   24  O   UNL     1     -39.820  52.040 -52.981  1.00  0.00    -0.279 OA
BRANCH  24  25
HETATM   25  C   UNL     1     -39.848  50.713 -53.517  1.00  0.00     0.418 C 
HETATM   26  F   UNL     1     -40.965  50.554 -54.272  1.00  0.00    -0.169 F 
HETATM   27  F   UNL     1     -38.768  50.551 -54.329  1.00  0.00    -0.169 F 
BRANCH  25  28
HETATM   28  C   UNL     1     -39.797  49.686 -52.387  1.00  0.00     0.455 C 
HETATM   29  F   UNL     1     -38.942  48.668 -52.680  1.00  0.00    -0.205 F 
HETATM   30  F   UNL     1     -39.343  50.244 -51.233  1.00  0.00    -0.205 F 
ENDBRANCH  25  28
ENDBRANCH  24  25
ENDBRANCH  21  24
ENDBRANCH   2  18
TORSDOF 6
ENDMDL
MODEL 3
REMARK VINA RESULT:      -8.1      2.835      3.409
REMARK  6 active torsions:
REMARK  status: ('A' for Active; 'I' for Inactive)
REMARK    1  A    between atoms: C_7  and  C_8 
REMARK    2  A    between atoms: N_9  and  N_10 
REMARK       I    between atoms: N_10  and  C_11 
REMARK    3  A    between atoms: C_11  and  C_12 
REMARK    4  A    between atoms: C_15  and  O_16 
REMARK    5  A    between atoms: O_16  and  C_17 
REMARK    6  A    between atoms: C_17  and  C_20 
ROOT
HETATM    1  N   UNL     1     -41.929  55.243 -56.352  1.00  0.00    -0.243 N 
HETATM    2  C   UNL     1     -42.372  56.560 -56.305  1.00  0.00     0.271 C 
HETATM    3  O   UNL     1     -42.112  57.369 -55.417  1.00  0.00    -0.266 OA
HETATM    4  H   UNL     1     -42.282  54.611 -57.060  1.00  0.00     0.192 HD
ENDROOT
BRANCH   1   5
HETATM    5  N   UNL     1     -41.205  54.597 -55.380  1.00  0.00    -0.183 NA
HETATM    6  C   UNL     1     -41.827  54.120 -54.349  1.00  0.00     0.153 C 
BRANCH   6   7
HETATM    7  C   UNL     1     -41.090  53.398 -53.325  1.00  0.00     0.018 A 
HETATM    8  C   UNL     1     -40.791  53.926 -52.074  1.00  0.00     0.018 A 
HETATM    9  C   UNL     1     -41.105  55.250 -51.475  1.00  0.00     0.069 C 
HETATM   10  N   UNL     1     -40.091  52.975 -51.374  1.00  0.00    -0.358 N 
HETATM   11  H   UNL     1     -39.744  53.085 -50.432  1.00  0.00     0.166 HD
HETATM   12  C   UNL     1     -39.925  51.841 -52.129  1.00  0.00     0.043 A 
HETATM   13  C   UNL     1     -40.541  52.071 -53.360  1.00  0.00     0.004 A 
HETATM   14  C   UNL     1     -39.281  50.638 -51.812  1.00  0.00     0.030 A 
HETATM   15  C   UNL     1     -40.511  51.035 -54.319  1.00  0.00     0.014 A 
HETATM   16  C   UNL     1     -39.874  49.825 -54.019  1.00  0.00     0.001 A 
HETATM   17  C   UNL     1     -39.267  49.632 -52.781  1.00  0.00     0.002 A 
ENDBRANCH   6   7
ENDBRANCH   1   5
BRANCH   2  18
HETATM   18  C   UNL     1     -43.214  57.014 -57.453  1.00  0.00     0.033 A 
HETATM   19  C   UNL     1     -43.759  58.299 -57.547  1.00  0.00     0.020 A 
HETATM   20  C   UNL     1     -44.551  58.644 -58.650  1.00  0.00     0.038 A 
HETATM   21  C   UNL     1     -44.799  57.726 -59.676  1.00  0.00     0.075 A 
HETATM   22  C   UNL     1     -44.237  56.454 -59.594  1.00  0.00     0.038 A 
HETATM   23  C   UNL     1     -43.449  56.103 -58.492  1.00  0.00     0.020 A 
BRANCH  21  24
HETATM   24  O   UNL     1     -45.595  58.199 -60.679  1.00  0.00    -0.279 OA
BRANCH  24  25
HETATM   25  C   UNL     1     -47.015  58.081 -60.539  1.00  0.00     0.418 C 
HETATM   26  F   UNL     1     -47.363  58.324 -59.249  1.00  0.00    -0.169 F 
HETATM   27  F   UNL     1     -47.608  59.027 -61.316  1.00  0.00    -0.169 F 
BRANCH  25  28
HETATM   28  C   UNL     1     -47.476  56.694 -60.981  1.00  0.00     0.455 C 
HETATM   29  F   UNL     1     -46.615  56.148 -61.883  1.00  0.00    -0.205 F 
HETATM   30  F   UNL     1     -47.523  55.831 -59.930  1.00  0.00    -0.205 F 
ENDBRANCH  25  28
ENDBRANCH  24  25
ENDBRANCH  21  24
ENDBRANCH   2  18
TORSDOF 6
ENDMDL
MODEL 4
REMARK VINA RESULT:      -8.0      2.803      4.189
REMARK  6 active torsions:
REMARK  status: ('A' for Active; 'I' for Inactive)
REMARK    1  A    between atoms: C_7  and  C_8 
REMARK    2  A    between atoms: N_9  and  N_10 
REMARK       I    between atoms: N_10  and  C_11 
REMARK    3  A    between atoms: C_11  and  C_12 
REMARK    4  A    between atoms: C_15  and  O_16 
REMARK    5  A    between atoms: O_16  and  C_17 
REMARK    6  A    between atoms: C_17  and  C_20 
ROOT
HETATM    1  N   UNL     1     -41.963  55.014 -55.956  1.00  0.00    -0.243 N 
HETATM    2  C   UNL     1     -42.412  56.302 -56.223  1.00  0.00     0.271 C 
HETATM    3  O   UNL     1     -42.161  57.300 -55.551  1.00  0.00    -0.266 OA
HETATM    4  H   UNL     1     -42.308  54.231 -56.495  1.00  0.00     0.192 HD
ENDROOT
BRANCH   1   5
HETATM    5  N   UNL     1     -41.241  54.621 -54.854  1.00  0.00    -0.183 NA
HETATM    6  C   UNL     1     -41.847  53.983 -53.904  1.00  0.00     0.153 C 
BRANCH   6   7
HETATM    7  C   UNL     1     -41.098  53.521 -52.746  1.00  0.00     0.018 A 
HETATM    8  C   UNL     1     -40.230  52.436 -52.772  1.00  0.00     0.018 A 
HETATM    9  C   UNL     1     -39.851  51.519 -53.879  1.00  0.00     0.069 C 
HETATM   10  N   UNL     1     -39.704  52.290 -51.514  1.00  0.00    -0.358 N 
HETATM   11  H   UNL     1     -39.041  51.579 -51.239  1.00  0.00     0.166 HD
HETATM   12  C   UNL     1     -40.200  53.248 -50.665  1.00  0.00     0.043 A 
HETATM   13  C   UNL     1     -41.078  54.040 -51.407  1.00  0.00     0.004 A 
HETATM   14  C   UNL     1     -39.935  53.470 -49.308  1.00  0.00     0.030 A 
HETATM   15  C   UNL     1     -41.718  55.113 -50.749  1.00  0.00     0.014 A 
HETATM   16  C   UNL     1     -41.463  55.351 -49.393  1.00  0.00     0.001 A 
HETATM   17  C   UNL     1     -40.583  54.538 -48.684  1.00  0.00     0.002 A 
ENDBRANCH   6   7
ENDBRANCH   1   5
BRANCH   2  18
HETATM   18  C   UNL     1     -43.249  56.467 -57.450  1.00  0.00     0.033 A 
HETATM   19  C   UNL     1     -43.391  55.471 -58.423  1.00  0.00     0.020 A 
HETATM   20  C   UNL     1     -44.183  55.707 -59.554  1.00  0.00     0.038 A 
HETATM   21  C   UNL     1     -44.852  56.924 -59.727  1.00  0.00     0.075 A 
HETATM   22  C   UNL     1     -44.729  57.906 -58.747  1.00  0.00     0.038 A 
HETATM   23  C   UNL     1     -43.935  57.677 -57.617  1.00  0.00     0.020 A 
BRANCH  21  24
HETATM   24  O   UNL     1     -45.576  57.013 -60.880  1.00  0.00    -0.279 OA
BRANCH  24  25
HETATM   25  C   UNL     1     -47.005  56.978 -60.795  1.00  0.00     0.418 C 
HETATM   26  F   UNL     1     -47.499  56.208 -61.798  1.00  0.00    -0.169 F 
HETATM   27  F   UNL     1     -47.355  56.400 -59.614  1.00  0.00    -0.169 F 
BRANCH  25  28
HETATM   28  C   UNL     1     -47.572  58.395 -60.859  1.00  0.00     0.455 C 
HETATM   29  F   UNL     1     -47.777  58.904 -59.614  1.00  0.00    -0.205 F 
HETATM   30  F   UNL     1     -46.711  59.245 -61.480  1.00  0.00    -0.205 F 
ENDBRANCH  25  28
ENDBRANCH  24  25
ENDBRANCH  21  24
ENDBRANCH   2  18
TORSDOF 6
ENDMDL
MODEL 5
REMARK VINA RESULT:      -7.9      7.375     10.499
REMARK  6 active torsions:
REMARK  status: ('A' for Active; 'I' for Inactive)
REMARK    1  A    between atoms: C_7  and  C_8 
REMARK    2  A    between atoms: N_9  and  N_10 
REMARK       I    between atoms: N_10  and  C_11 
REMARK    3  A    between atoms: C_11  and  C_12 
REMARK    4  A    between atoms: C_15  and  O_16 
REMARK    5  A    between atoms: O_16  and  C_17 
REMARK    6  A    between atoms: C_17  and  C_20 
ROOT
HETATM    1  N   UNL     1     -43.507  58.519 -51.171  1.00  0.00    -0.243 N 
HETATM    2  C   UNL     1     -43.975  57.218 -51.028  1.00  0.00     0.271 C 
HETATM    3  O   UNL     1     -45.065  56.900 -50.560  1.00  0.00    -0.266 OA
HETATM    4  H   UNL     1     -42.552  58.689 -51.461  1.00  0.00     0.192 HD
ENDROOT
BRANCH   1   5
HETATM    5  N   UNL     1     -44.138  59.660 -50.737  1.00  0.00    -0.183 NA
HETATM    6  C   UNL     1     -43.443  60.567 -50.128  1.00  0.00     0.153 C 
BRANCH   6   7
HETATM    7  C   UNL     1     -44.079  61.800 -49.693  1.00  0.00     0.018 A 
HETATM    8  C   UNL     1     -44.237  62.915 -50.508  1.00  0.00     0.018 A 
HETATM    9  C   UNL     1     -43.841  63.152 -51.922  1.00  0.00     0.069 C 
HETATM   10  N   UNL     1     -44.872  63.884 -49.774  1.00  0.00    -0.358 N 
HETATM   11  H   UNL     1     -45.118  64.804 -50.113  1.00  0.00     0.166 HD
HETATM   12  C   UNL     1     -45.136  63.436 -48.503  1.00  0.00     0.043 A 
HETATM   13  C   UNL     1     -44.652  62.130 -48.419  1.00  0.00     0.004 A 
HETATM   14  C   UNL     1     -45.765  64.088 -47.435  1.00  0.00     0.030 A 
HETATM   15  C   UNL     1     -44.815  61.443 -47.196  1.00  0.00     0.014 A 
HETATM   16  C   UNL     1     -45.443  62.077 -46.117  1.00  0.00     0.001 A 
HETATM   17  C   UNL     1     -45.910  63.383 -46.237  1.00  0.00     0.002 A 
ENDBRANCH   6   7
ENDBRANCH   1   5
BRANCH   2  18
HETATM   18  C   UNL     1     -43.068  56.134 -51.513  1.00  0.00     0.033 A 
HETATM   19  C   UNL     1     -43.116  54.820 -51.036  1.00  0.00     0.020 A 
HETATM   20  C   UNL     1     -42.220  53.863 -51.531  1.00  0.00     0.038 A 
HETATM   21  C   UNL     1     -41.279  54.194 -52.512  1.00  0.00     0.075 A 
HETATM   22  C   UNL     1     -41.247  55.497 -53.004  1.00  0.00     0.038 A 
HETATM   23  C   UNL     1     -42.136  56.458 -52.509  1.00  0.00     0.020 A 
BRANCH  21  24
HETATM   24  O   UNL     1     -40.468  53.163 -52.889  1.00  0.00    -0.279 OA
BRANCH  24  25
HETATM   25  C   UNL     1     -40.623  52.616 -54.203  1.00  0.00     0.418 C 
HETATM   26  F   UNL     1     -41.921  52.723 -54.587  1.00  0.00    -0.169 F 
HETATM   27  F   UNL     1     -39.871  53.348 -55.069  1.00  0.00    -0.169 F 
BRANCH  25  28
HETATM   28  C   UNL     1     -40.160  51.161 -54.228  1.00  0.00     0.455 C 
HETATM   29  F   UNL     1     -39.738  50.753 -53.000  1.00  0.00    -0.205 F 
HETATM   30  F   UNL     1     -41.175  50.326 -54.578  1.00  0.00    -0.205 F 
ENDBRANCH  25  28
ENDBRANCH  24  25
ENDBRANCH  21  24
ENDBRANCH   2  18
TORSDOF 6
ENDMDL
MODEL 6
REMARK VINA RESULT:      -7.8      7.377      8.736
REMARK  6 active torsions:
REMARK  status: ('A' for Active; 'I' for Inactive)
REMARK    1  A    between atoms: C_7  and  C_8 
REMARK    2  A    between atoms: N_9  and  N_10 
REMARK       I    between atoms: N_10  and  C_11 
REMARK    3  A    between atoms: C_11  and  C_12 
REMARK    4  A    between atoms: C_15  and  O_16 
REMARK    5  A    between atoms: O_16  and  C_17 
REMARK    6  A    between atoms: C_17  and  C_20 
ROOT
HETATM    1  N   UNL     1     -42.474  57.884 -50.680  1.00  0.00    -0.243 N 
HETATM    2  C   UNL     1     -42.469  59.099 -51.357  1.00  0.00     0.271 C 
HETATM    3  O   UNL     1     -41.831  59.344 -52.378  1.00  0.00    -0.266 OA
HETATM    4  H   UNL     1     -42.938  57.801 -49.784  1.00  0.00     0.192 HD
ENDROOT
BRANCH   1   5
HETATM    5  N   UNL     1     -41.705  56.786 -50.981  1.00  0.00    -0.183 NA
HETATM    6  C   UNL     1     -42.033  55.637 -50.482  1.00  0.00     0.153 C 
BRANCH   6   7
HETATM    7  C   UNL     1     -41.259  54.452 -50.817  1.00  0.00     0.018 A 
HETATM    8  C   UNL     1     -40.550  53.705 -49.883  1.00  0.00     0.018 A 
HETATM    9  C   UNL     1     -40.389  53.881 -48.415  1.00  0.00     0.069 C 
HETATM   10  N   UNL     1     -39.944  52.670 -50.547  1.00  0.00    -0.358 N 
HETATM   11  H   UNL     1     -39.362  51.964 -50.117  1.00  0.00     0.166 HD
HETATM   12  C   UNL     1     -40.237  52.714 -51.887  1.00  0.00     0.043 A 
HETATM   13  C   UNL     1     -41.062  53.821 -52.092  1.00  0.00     0.004 A 
HETATM   14  C   UNL     1     -39.836  51.861 -52.922  1.00  0.00     0.030 A 
HETATM   15  C   UNL     1     -41.510  54.078 -53.406  1.00  0.00     0.014 A 
HETATM   16  C   UNL     1     -41.121  53.235 -54.453  1.00  0.00     0.001 A 
HETATM   17  C   UNL     1     -40.294  52.141 -54.212  1.00  0.00     0.002 A 
ENDBRANCH   6   7
ENDBRANCH   1   5
BRANCH   2  18
HETATM   18  C   UNL     1     -43.340  60.173 -50.790  1.00  0.00     0.033 A 
HETATM   19  C   UNL     1     -44.685  59.978 -50.458  1.00  0.00     0.020 A 
HETATM   20  C   UNL     1     -45.439  61.041 -49.944  1.00  0.00     0.038 A 
HETATM   21  C   UNL     1     -44.867  62.301 -49.740  1.00  0.00     0.075 A 
HETATM   22  C   UNL     1     -43.521  62.488 -50.048  1.00  0.00     0.038 A 
HETATM   23  C   UNL     1     -42.764  61.431 -50.566  1.00  0.00     0.020 A 
BRANCH  21  24
HETATM   24  O   UNL     1     -45.725  63.239 -49.244  1.00  0.00    -0.279 OA
BRANCH  24  25
HETATM   25  C   UNL     1     -45.839  63.379 -47.824  1.00  0.00     0.418 C 
HETATM   26  F   UNL     1     -44.865  62.652 -47.219  1.00  0.00    -0.169 F 
HETATM   27  F   UNL     1     -45.646  64.686 -47.500  1.00  0.00    -0.169 F 
BRANCH  25  28
HETATM   28  C   UNL     1     -47.225  62.936 -47.359  1.00  0.00     0.455 C 
HETATM   29  F   UNL     1     -48.128  62.978 -48.376  1.00  0.00    -0.205 F 
HETATM   30  F   UNL     1     -47.210  61.650 -46.916  1.00  0.00    -0.205 F 
ENDBRANCH  25  28
ENDBRANCH  24  25
ENDBRANCH  21  24
ENDBRANCH   2  18
TORSDOF 6
ENDMDL
MODEL 7
REMARK VINA RESULT:      -7.7      6.593      7.981
REMARK  6 active torsions:
REMARK  status: ('A' for Active; 'I' for Inactive)
REMARK    1  A    between atoms: C_7  and  C_8 
REMARK    2  A    between atoms: N_9  and  N_10 
REMARK       I    between atoms: N_10  and  C_11 
REMARK    3  A    between atoms: C_11  and  C_12 
REMARK    4  A    between atoms: C_15  and  O_16 
REMARK    5  A    between atoms: O_16  and  C_17 
REMARK    6  A    between atoms: C_17  and  C_20 
ROOT
HETATM    1  N   UNL     1     -43.046  56.261 -51.793  1.00  0.00    -0.243 N 
HETATM    2  C   UNL     1     -43.844  57.142 -52.515  1.00  0.00     0.271 C 
HETATM    3  O   UNL     1     -44.277  56.949 -53.648  1.00  0.00    -0.266 OA
HETATM    4  H   UNL     1     -42.640  56.545 -50.911  1.00  0.00     0.192 HD
ENDROOT
BRANCH   1   5
HETATM    5  N   UNL     1     -42.535  55.071 -52.252  1.00  0.00    -0.183 NA
HETATM    6  C   UNL     1     -41.254  54.883 -52.210  1.00  0.00     0.153 C 
BRANCH   6   7
HETATM    7  C   UNL     1     -40.690  53.618 -52.654  1.00  0.00     0.018 A 
HETATM    8  C   UNL     1     -40.331  53.353 -53.970  1.00  0.00     0.018 A 
HETATM    9  C   UNL     1     -40.410  54.200 -55.190  1.00  0.00     0.069 C 
HETATM   10  N   UNL     1     -39.840  52.074 -54.021  1.00  0.00    -0.358 N 
HETATM   11  H   UNL     1     -39.501  51.613 -54.854  1.00  0.00     0.166 HD
HETATM   12  C   UNL     1     -39.865  51.493 -52.777  1.00  0.00     0.043 A 
HETATM   13  C   UNL     1     -40.392  52.437 -51.894  1.00  0.00     0.004 A 
HETATM   14  C   UNL     1     -39.460  50.214 -52.376  1.00  0.00     0.030 A 
HETATM   15  C   UNL     1     -40.514  52.073 -50.535  1.00  0.00     0.014 A 
HETATM   16  C   UNL     1     -40.112  50.800 -50.114  1.00  0.00     0.001 A 
HETATM   17  C   UNL     1     -39.594  49.884 -51.024  1.00  0.00     0.002 A 
ENDBRANCH   6   7
ENDBRANCH   1   5
BRANCH   2  18
HETATM   18  C   UNL     1     -44.213  58.414 -51.823  1.00  0.00     0.033 A 
HETATM   19  C   UNL     1     -43.528  59.620 -52.013  1.00  0.00     0.020 A 
HETATM   20  C   UNL     1     -43.926  60.767 -51.315  1.00  0.00     0.038 A 
HETATM   21  C   UNL     1     -45.012  60.737 -50.434  1.00  0.00     0.075 A 
HETATM   22  C   UNL     1     -45.708  59.542 -50.262  1.00  0.00     0.038 A 
HETATM   23  C   UNL     1     -45.312  58.391 -50.954  1.00  0.00     0.020 A 
BRANCH  21  24
HETATM   24  O   UNL     1     -45.275  61.926 -49.818  1.00  0.00    -0.279 OA
BRANCH  24  25
HETATM   25  C   UNL     1     -44.709  62.168 -48.526  1.00  0.00     0.418 C 
HETATM   26  F   UNL     1     -43.899  61.133 -48.187  1.00  0.00    -0.169 F 
HETATM   27  F   UNL     1     -43.945  63.292 -48.591  1.00  0.00    -0.169 F 
BRANCH  25  28
HETATM   28  C   UNL     1     -45.817  62.362 -47.492  1.00  0.00     0.455 C 
HETATM   29  F   UNL     1     -46.481  61.199 -47.251  1.00  0.00    -0.205 F 
HETATM   30  F   UNL     1     -45.310  62.766 -46.296  1.00  0.00    -0.205 F 
ENDBRANCH  25  28
ENDBRANCH  24  25
ENDBRANCH  21  24
ENDBRANCH   2  18
TORSDOF 6
ENDMDL
MODEL 8
REMARK VINA RESULT:      -7.7      7.074     10.263
REMARK  6 active torsions:
REMARK  status: ('A' for Active; 'I' for Inactive)
REMARK    1  A    between atoms: C_7  and  C_8 
REMARK    2  A    between atoms: N_9  and  N_10 
REMARK       I    between atoms: N_10  and  C_11 
REMARK    3  A    between atoms: C_11  and  C_12 
REMARK    4  A    between atoms: C_15  and  O_16 
REMARK    5  A    between atoms: O_16  and  C_17 
REMARK    6  A    between atoms: C_17  and  C_20 
ROOT
HETATM    1  N   UNL     1     -41.932  58.112 -51.765  1.00  0.00    -0.243 N 
HETATM    2  C   UNL     1     -41.191  57.740 -52.882  1.00  0.00     0.271 C 
HETATM    3  O   UNL     1     -40.581  58.508 -53.622  1.00  0.00    -0.266 OA
HETATM    4  H   UNL     1     -42.496  57.429 -51.276  1.00  0.00     0.192 HD
ENDROOT
BRANCH   1   5
HETATM    5  N   UNL     1     -42.182  59.398 -51.352  1.00  0.00    -0.183 NA
HETATM    6  C   UNL     1     -43.406  59.823 -51.335  1.00  0.00     0.153 C 
BRANCH   6   7
HETATM    7  C   UNL     1     -43.702  61.167 -50.865  1.00  0.00     0.018 A 
HETATM    8  C   UNL     1     -43.570  62.305 -51.651  1.00  0.00     0.018 A 
HETATM    9  C   UNL     1     -43.131  62.468 -53.062  1.00  0.00     0.069 C 
HETATM   10  N   UNL     1     -43.932  63.386 -50.888  1.00  0.00    -0.358 N 
HETATM   11  H   UNL     1     -43.934  64.346 -51.203  1.00  0.00     0.166 HD
HETATM   12  C   UNL     1     -44.299  62.989 -49.626  1.00  0.00     0.043 A 
HETATM   13  C   UNL     1     -44.167  61.600 -49.577  1.00  0.00     0.004 A 
HETATM   14  C   UNL     1     -44.735  63.752 -48.536  1.00  0.00     0.030 A 
HETATM   15  C   UNL     1     -44.497  60.947 -48.369  1.00  0.00     0.014 A 
HETATM   16  C   UNL     1     -44.937  61.694 -47.270  1.00  0.00     0.001 A 
HETATM   17  C   UNL     1     -45.053  63.078 -47.354  1.00  0.00     0.002 A 
ENDBRANCH   6   7
ENDBRANCH   1   5
BRANCH   2  18
HETATM   18  C   UNL     1     -41.125  56.275 -53.171  1.00  0.00     0.033 A 
HETATM   19  C   UNL     1     -40.572  55.746 -54.342  1.00  0.00     0.020 A 
HETATM   20  C   UNL     1     -40.561  54.361 -54.546  1.00  0.00     0.038 A 
HETATM   21  C   UNL     1     -41.085  53.485 -53.589  1.00  0.00     0.075 A 
HETATM   22  C   UNL     1     -41.616  54.010 -52.413  1.00  0.00     0.038 A 
HETATM   23  C   UNL     1     -41.633  55.395 -52.206  1.00  0.00     0.020 A 
BRANCH  21  24
HETATM   24  O   UNL     1     -41.015  52.165 -53.930  1.00  0.00    -0.279 OA
BRANCH  24  25
HETATM   25  C   UNL     1     -39.924  51.387 -53.430  1.00  0.00     0.418 C 
HETATM   26  F   UNL     1     -38.753  51.914 -53.871  1.00  0.00    -0.169 F 
HETATM   27  F   UNL     1     -39.927  51.457 -52.071  1.00  0.00    -0.169 F 
BRANCH  25  28
HETATM   28  C   UNL     1     -40.070  49.930 -53.866  1.00  0.00     0.455 C 
HETATM   29  F   UNL     1     -39.501  49.717 -55.084  1.00  0.00    -0.205 F 
HETATM   30  F   UNL     1     -39.441  49.090 -53.001  1.00  0.00    -0.205 F 
ENDBRANCH  25  28
ENDBRANCH  24  25
ENDBRANCH  21  24
ENDBRANCH   2  18
TORSDOF 6
ENDMDL
MODEL 9
REMARK VINA RESULT:      -7.4      6.356     10.075
REMARK  6 active torsions:
REMARK  status: ('A' for Active; 'I' for Inactive)
REMARK    1  A    between atoms: C_7  and  C_8 
REMARK    2  A    between atoms: N_9  and  N_10 
REMARK       I    between atoms: N_10  and  C_11 
REMARK    3  A    between atoms: C_11  and  C_12 
REMARK    4  A    between atoms: C_15  and  O_16 
REMARK    5  A    between atoms: O_16  and  C_17 
REMARK    6  A    between atoms: C_17  and  C_20 
ROOT
HETATM    1  N   UNL     1     -43.559  56.677 -53.018  1.00  0.00    -0.243 N 
HETATM    2  C   UNL     1     -43.206  56.007 -54.184  1.00  0.00     0.271 C 
HETATM    3  O   UNL     1     -43.641  56.251 -55.307  1.00  0.00    -0.266 OA
HETATM    4  H   UNL     1     -43.241  56.339 -52.119  1.00  0.00     0.192 HD
ENDROOT
BRANCH   1   5
HETATM    5  N   UNL     1     -44.513  57.660 -52.906  1.00  0.00    -0.183 NA
HETATM    6  C   UNL     1     -44.131  58.896 -52.831  1.00  0.00     0.153 C 
BRANCH   6   7
HETATM    7  C   UNL     1     -45.121  59.958 -52.752  1.00  0.00     0.018 A 
HETATM    8  C   UNL     1     -45.734  60.354 -51.568  1.00  0.00     0.018 A 
HETATM    9  C   UNL     1     -45.575  59.856 -50.176  1.00  0.00     0.069 C 
HETATM   10  N   UNL     1     -46.604  61.371 -51.867  1.00  0.00    -0.358 N 
HETATM   11  H   UNL     1     -47.187  61.854 -51.197  1.00  0.00     0.166 HD
HETATM   12  C   UNL     1     -46.577  61.655 -53.210  1.00  0.00     0.043 A 
HETATM   13  C   UNL     1     -45.655  60.787 -53.796  1.00  0.00     0.004 A 
HETATM   14  C   UNL     1     -47.295  62.611 -53.939  1.00  0.00     0.030 A 
HETATM   15  C   UNL     1     -45.442  60.890 -55.188  1.00  0.00     0.014 A 
HETATM   16  C   UNL     1     -46.149  61.841 -55.933  1.00  0.00     0.001 A 
HETATM   17  C   UNL     1     -47.064  62.689 -55.315  1.00  0.00     0.002 A 
ENDBRANCH   6   7
ENDBRANCH   1   5
BRANCH   2  18
HETATM   18  C   UNL     1     -42.193  54.918 -54.037  1.00  0.00     0.033 A 
HETATM   19  C   UNL     1     -42.063  54.139 -52.882  1.00  0.00     0.020 A 
HETATM   20  C   UNL     1     -41.077  53.146 -52.816  1.00  0.00     0.038 A 
HETATM   21  C   UNL     1     -40.222  52.904 -53.896  1.00  0.00     0.075 A 
HETATM   22  C   UNL     1     -40.367  53.663 -55.055  1.00  0.00     0.038 A 
HETATM   23  C   UNL     1     -41.347  54.660 -55.125  1.00  0.00     0.020 A 
BRANCH  21  24
HETATM   24  O   UNL     1     -39.307  51.914 -53.683  1.00  0.00    -0.279 OA
BRANCH  24  25
HETATM   25  C   UNL     1     -39.712  50.555 -53.877  1.00  0.00     0.418 C 
HETATM   26  F   UNL     1     -40.905  50.527 -54.524  1.00  0.00    -0.169 F 
HETATM   27  F   UNL     1     -38.794  49.937 -54.669  1.00  0.00    -0.169 F 
BRANCH  25  28
HETATM   28  C   UNL     1     -39.798  49.832 -52.534  1.00  0.00     0.455 C 
HETATM   29  F   UNL     1     -39.088  48.671 -52.548  1.00  0.00    -0.205 F 
HETATM   30  F   UNL     1     -39.271  50.587 -51.532  1.00  0.00    -0.205 F 
ENDBRANCH  25  28
ENDBRANCH  24  25
ENDBRANCH  21  24
ENDBRANCH   2  18
TORSDOF 6
ENDMDL
MODEL 10
REMARK VINA RESULT:      -7.4     15.538     17.502
REMARK  6 active torsions:
REMARK  status: ('A' for Active; 'I' for Inactive)
REMARK    1  A    between atoms: C_7  and  C_8 
REMARK    2  A    between atoms: N_9  and  N_10 
REMARK       I    between atoms: N_10  and  C_11 
REMARK    3  A    between atoms: C_11  and  C_12 
REMARK    4  A    between atoms: C_15  and  O_16 
REMARK    5  A    between atoms: O_16  and  C_17 
REMARK    6  A    between atoms: C_17  and  C_20 
ROOT
HETATM    1  N   UNL     1     -35.058  40.432 -52.732  1.00  0.00    -0.243 N 
HETATM    2  C   UNL     1     -35.428  41.706 -53.149  1.00  0.00     0.271 C 
HETATM    3  O   UNL     1     -35.431  42.714 -52.445  1.00  0.00    -0.266 OA
HETATM    4  H   UNL     1     -35.192  39.637 -53.343  1.00  0.00     0.192 HD
ENDROOT
BRANCH   1   5
HETATM    5  N   UNL     1     -34.721  40.065 -51.452  1.00  0.00    -0.183 NA
HETATM    6  C   UNL     1     -34.884  38.831 -51.092  1.00  0.00     0.153 C 
BRANCH   6   7
HETATM    7  C   UNL     1     -34.498  38.408 -49.755  1.00  0.00     0.018 A 
HETATM    8  C   UNL     1     -35.231  37.508 -48.990  1.00  0.00     0.018 A 
HETATM    9  C   UNL     1     -36.498  36.787 -49.283  1.00  0.00     0.069 C 
HETATM   10  N   UNL     1     -34.578  37.344 -47.795  1.00  0.00    -0.358 N 
HETATM   11  H   UNL     1     -34.883  36.744 -47.042  1.00  0.00     0.166 HD
HETATM   12  C   UNL     1     -33.437  38.108 -47.756  1.00  0.00     0.043 A 
HETATM   13  C   UNL     1     -33.356  38.788 -48.972  1.00  0.00     0.004 A 
HETATM   14  C   UNL     1     -32.481  38.241 -46.742  1.00  0.00     0.030 A 
HETATM   15  C   UNL     1     -32.251  39.644 -49.178  1.00  0.00     0.014 A 
HETATM   16  C   UNL     1     -31.284  39.788 -48.176  1.00  0.00     0.001 A 
HETATM   17  C   UNL     1     -31.400  39.096 -46.974  1.00  0.00     0.002 A 
ENDBRANCH   6   7
ENDBRANCH   1   5
BRANCH   2  18
HETATM   18  C   UNL     1     -35.828  41.841 -54.582  1.00  0.00     0.033 A 
HETATM   19  C   UNL     1     -34.945  42.234 -55.594  1.00  0.00     0.020 A 
HETATM   20  C   UNL     1     -35.401  42.351 -56.913  1.00  0.00     0.038 A 
HETATM   21  C   UNL     1     -36.730  42.067 -57.246  1.00  0.00     0.075 A 
HETATM   22  C   UNL     1     -37.603  41.653 -56.243  1.00  0.00     0.038 A 
HETATM   23  C   UNL     1     -37.154  41.539 -54.922  1.00  0.00     0.020 A 
BRANCH  21  24
HETATM   24  O   UNL     1     -37.030  42.235 -58.567  1.00  0.00    -0.279 OA
BRANCH  24  25
HETATM   25  C   UNL     1     -37.465  41.098 -59.320  1.00  0.00     0.418 C 
HETATM   26  F   UNL     1     -38.702  40.726 -58.902  1.00  0.00    -0.169 F 
HETATM   27  F   UNL     1     -37.556  41.453 -60.630  1.00  0.00    -0.169 F 
BRANCH  25  28
HETATM   28  C   UNL     1     -36.466  39.952 -59.169  1.00  0.00     0.455 C 
HETATM   29  F   UNL     1     -36.948  38.976 -58.354  1.00  0.00    -0.205 F 
HETATM   30  F   UNL     1     -36.213  39.358 -60.366  1.00  0.00    -0.205 F 
ENDBRANCH  25  28
ENDBRANCH  24  25
ENDBRANCH  21  24
ENDBRANCH   2  18
TORSDOF 6
ENDMDL
