MODEL 1
REMARK VINA RESULT:     -10.0      0.000      0.000
REMARK  5 active torsions:
REMARK  status: ('A' for Active; 'I' for Inactive)
REMARK    1  A    between atoms: C_2  and  N_3 
REMARK    2  A    between atoms: C_7  and  N_8 
REMARK       I    between atoms: N_8  and  C_9 
REMARK    3  A    between atoms: C_9  and  C_10 
REMARK    4  A    between atoms: C_10  and  C_11 
REMARK    5  A    between atoms: C_11  and  C_12 
ROOT
HETATM    1  C   UNL     1     -44.249  56.582 -59.540  1.00  0.00    -0.028 A 
HETATM    2  C   UNL     1     -44.895  55.390 -59.629  1.00  0.00     0.015 A 
HETATM    3  C   UNL     1     -44.340  54.031 -59.293  1.00  0.00     0.069 C 
HETATM    4  N   UNL     1     -46.194  55.346 -60.091  1.00  0.00    -0.326 N 
HETATM    5  C   UNL     1     -46.939  56.418 -60.494  1.00  0.00     0.266 A 
HETATM    6  O   UNL     1     -48.091  56.284 -60.889  1.00  0.00    -0.267 OA
HETATM    7  C   UNL     1     -46.261  57.729 -60.421  1.00  0.00     0.105 A 
HETATM    8  C   UNL     1     -47.066  58.945 -60.854  1.00  0.00     0.026 C 
HETATM    9  N   UNL     1     -47.733  59.952 -61.213  1.00  0.00    -0.096 N 
HETATM   10  C   UNL     1     -44.987  57.813 -59.970  1.00  0.00    -0.029 A 
HETATM   11  C   UNL     1     -44.270  59.147 -59.899  1.00  0.00     0.050 C 
HETATM   12  H   UNL     1     -46.679  54.459 -60.164  1.00  0.00     0.169 HD
ENDROOT
BRANCH   1  13
HETATM   13  C   UNL     1     -42.815  56.819 -59.048  1.00  0.00     0.050 C 
BRANCH  13  14
HETATM   14  C   UNL     1     -42.529  57.581 -57.753  1.00  0.00     0.108 C 
BRANCH  14  15
HETATM   15  C   UNL     1     -42.632  56.675 -56.535  1.00  0.00     0.222 C 
HETATM   16  N   UNL     1     -41.402  56.274 -56.046  1.00  0.00    -0.327 N 
HETATM   17  H   UNL     1     -40.582  56.560 -56.568  1.00  0.00     0.169 HD
HETATM   18  O   UNL     1     -43.733  56.366 -56.089  1.00  0.00    -0.273 OA
BRANCH  16  19
HETATM   19  C   UNL     1     -41.148  55.489 -54.899  1.00  0.00     0.035 A 
HETATM   20  C   UNL     1     -40.748  54.150 -54.946  1.00  0.00     0.044 A 
HETATM   21  C   UNL     1     -40.550  53.422 -53.748  1.00  0.00     0.005 A 
HETATM   22  C   UNL     1     -40.743  54.065 -52.526  1.00  0.00     0.046 A 
HETATM   23  C   UNL     1     -40.179  52.068 -53.472  1.00  0.00     0.003 A 
HETATM   24  N   UNL     1     -40.482  53.137 -51.535  1.00  0.00    -0.346 N 
HETATM   25  C   UNL     1     -41.130  55.411 -52.456  1.00  0.00     0.033 A 
HETATM   26  C   UNL     1     -40.146  51.913 -52.085  1.00  0.00     0.046 A 
HETATM   27  C   UNL     1     -39.814  50.687 -51.484  1.00  0.00     0.030 A 
HETATM   28  C   UNL     1     -39.520  49.601 -52.315  1.00  0.00     0.002 A 
HETATM   29  C   UNL     1     -39.551  49.732 -53.699  1.00  0.00     0.001 A 
HETATM   30  C   UNL     1     -39.876  50.957 -54.288  1.00  0.00     0.014 A 
HETATM   31  C   UNL     1     -41.338  56.101 -53.656  1.00  0.00     0.032 A 
BRANCH  24  32
HETATM   32  C   UNL     1     -40.564  53.400 -50.107  1.00  0.00     0.125 C 
HETATM   33  C   UNL     1     -39.366  54.183 -49.598  1.00  0.00     0.027 C 
ENDBRANCH  24  32
ENDBRANCH  16  19
ENDBRANCH  14  15
ENDBRANCH  13  14
ENDBRANCH   1  13
TORSDOF 5
ENDMDL
MODEL 2
REMARK VINA RESULT:      -9.9      1.875      2.214
REMARK  5 active torsions:
REMARK  status: ('A' for Active; 'I' for Inactive)
REMARK    1  A    between atoms: C_2  and  N_3 
REMARK    2  A    between atoms: C_7  and  N_8 
REMARK       I    between atoms: N_8  and  C_9 
REMARK    3  A    between atoms: C_9  and  C_10 
REMARK    4  A    between atoms: C_10  and  C_11 
REMARK    5  A    between atoms: C_11  and  C_12 
ROOT
HETATM    1  C   UNL     1     -45.047  57.392 -58.587  1.00  0.00    -0.028 A 
HETATM    2  C   UNL     1     -44.078  56.476 -58.847  1.00  0.00     0.015 A 
HETATM    3  C   UNL     1     -42.787  56.286 -58.094  1.00  0.00     0.069 C 
HETATM    4  N   UNL     1     -44.217  55.613 -59.913  1.00  0.00    -0.326 N 
HETATM    5  C   UNL     1     -45.269  55.577 -60.784  1.00  0.00     0.266 A 
HETATM    6  O   UNL     1     -45.308  54.770 -61.705  1.00  0.00    -0.267 OA
HETATM    7  C   UNL     1     -46.336  56.568 -60.537  1.00  0.00     0.105 A 
HETATM    8  C   UNL     1     -47.526  56.549 -61.484  1.00  0.00     0.026 C 
HETATM    9  N   UNL     1     -48.512  56.532 -62.268  1.00  0.00    -0.096 N 
HETATM   10  C   UNL     1     -46.237  57.431 -59.499  1.00  0.00    -0.029 A 
HETATM   11  C   UNL     1     -47.314  58.464 -59.235  1.00  0.00     0.050 C 
HETATM   12  H   UNL     1     -43.494  54.930 -60.114  1.00  0.00     0.169 HD
ENDROOT
BRANCH   1  13
HETATM   13  C   UNL     1     -45.063  58.422 -57.449  1.00  0.00     0.050 C 
BRANCH  13  14
HETATM   14  C   UNL     1     -45.496  58.042 -56.032  1.00  0.00     0.108 C 
BRANCH  14  15
HETATM   15  C   UNL     1     -44.316  57.578 -55.191  1.00  0.00     0.222 C 
HETATM   16  N   UNL     1     -44.598  56.464 -54.422  1.00  0.00    -0.327 N 
HETATM   17  H   UNL     1     -45.549  56.118 -54.441  1.00  0.00     0.169 HD
HETATM   18  O   UNL     1     -43.250  58.185 -55.238  1.00  0.00    -0.273 OA
BRANCH  16  19
HETATM   19  C   UNL     1     -43.710  55.752 -53.585  1.00  0.00     0.035 A 
HETATM   20  C   UNL     1     -42.896  54.705 -54.028  1.00  0.00     0.044 A 
HETATM   21  C   UNL     1     -42.060  54.016 -53.116  1.00  0.00     0.005 A 
HETATM   22  C   UNL     1     -42.050  54.410 -51.777  1.00  0.00     0.046 A 
HETATM   23  C   UNL     1     -41.158  52.914 -53.251  1.00  0.00     0.003 A 
HETATM   24  N   UNL     1     -41.157  53.584 -51.120  1.00  0.00    -0.346 N 
HETATM   25  C   UNL     1     -42.847  55.467 -51.316  1.00  0.00     0.033 A 
HETATM   26  C   UNL     1     -40.608  52.660 -51.992  1.00  0.00     0.046 A 
HETATM   27  C   UNL     1     -39.676  51.629 -51.784  1.00  0.00     0.030 A 
HETATM   28  C   UNL     1     -39.308  50.839 -52.878  1.00  0.00     0.002 A 
HETATM   29  C   UNL     1     -39.846  51.071 -54.139  1.00  0.00     0.001 A 
HETATM   30  C   UNL     1     -40.768  52.104 -54.338  1.00  0.00     0.014 A 
HETATM   31  C   UNL     1     -43.679  56.116 -52.235  1.00  0.00     0.032 A 
BRANCH  24  32
HETATM   32  C   UNL     1     -40.844  53.660 -49.702  1.00  0.00     0.125 C 
HETATM   33  C   UNL     1     -39.482  54.282 -49.447  1.00  0.00     0.027 C 
ENDBRANCH  24  32
ENDBRANCH  16  19
ENDBRANCH  14  15
ENDBRANCH  13  14
ENDBRANCH   1  13
TORSDOF 5
ENDMDL
MODEL 3
REMARK VINA RESULT:      -9.6      2.801      4.080
REMARK  5 active torsions:
REMARK  status: ('A' for Active; 'I' for Inactive)
REMARK    1  A    between atoms: C_2  and  N_3 
REMARK    2  A    between atoms: C_7  and  N_8 
REMARK       I    between atoms: N_8  and  C_9 
REMARK    3  A    between atoms: C_9  and  C_10 
REMARK    4  A    between atoms: C_10  and  C_11 
REMARK    5  A    between atoms: C_11  and  C_12 
ROOT
HETATM    1  C   UNL     1     -41.975  59.623 -58.215  1.00  0.00    -0.028 A 
HETATM    2  C   UNL     1     -41.921  60.459 -57.145  1.00  0.00     0.015 A 
HETATM    3  C   UNL     1     -42.083  60.086 -55.695  1.00  0.00     0.069 C 
HETATM    4  N   UNL     1     -41.723  61.810 -57.339  1.00  0.00    -0.326 N 
HETATM    5  C   UNL     1     -41.573  62.433 -58.545  1.00  0.00     0.266 A 
HETATM    6  O   UNL     1     -41.399  63.644 -58.621  1.00  0.00    -0.267 OA
HETATM    7  C   UNL     1     -41.639  61.554 -59.731  1.00  0.00     0.105 A 
HETATM    8  C   UNL     1     -41.467  62.216 -61.089  1.00  0.00     0.026 C 
HETATM    9  N   UNL     1     -41.324  62.765 -62.215  1.00  0.00    -0.096 N 
HETATM   10  C   UNL     1     -41.830  60.222 -59.581  1.00  0.00    -0.029 A 
HETATM   11  C   UNL     1     -41.913  59.304 -60.785  1.00  0.00     0.050 C 
HETATM   12  H   UNL     1     -41.687  62.439 -56.545  1.00  0.00     0.169 HD
ENDROOT
BRANCH   1  13
HETATM   13  C   UNL     1     -42.183  58.102 -58.188  1.00  0.00     0.050 C 
BRANCH  13  14
HETATM   14  C   UNL     1     -43.494  57.482 -57.700  1.00  0.00     0.108 C 
BRANCH  14  15
HETATM   15  C   UNL     1     -43.315  56.774 -56.365  1.00  0.00     0.222 C 
HETATM   16  N   UNL     1     -42.079  56.167 -56.230  1.00  0.00    -0.327 N 
HETATM   17  H   UNL     1     -41.461  56.196 -57.030  1.00  0.00     0.169 HD
HETATM   18  O   UNL     1     -44.224  56.777 -55.540  1.00  0.00    -0.273 OA
BRANCH  16  19
HETATM   19  C   UNL     1     -41.577  55.487 -55.099  1.00  0.00     0.035 A 
HETATM   20  C   UNL     1     -41.207  54.138 -55.103  1.00  0.00     0.044 A 
HETATM   21  C   UNL     1     -40.746  53.521 -53.914  1.00  0.00     0.005 A 
HETATM   22  C   UNL     1     -40.651  54.283 -52.749  1.00  0.00     0.046 A 
HETATM   23  C   UNL     1     -40.332  52.189 -53.597  1.00  0.00     0.003 A 
HETATM   24  N   UNL     1     -40.179  53.444 -51.756  1.00  0.00    -0.346 N 
HETATM   25  C   UNL     1     -41.003  55.640 -52.727  1.00  0.00     0.033 A 
HETATM   26  C   UNL     1     -39.985  52.165 -52.245  1.00  0.00     0.046 A 
HETATM   27  C   UNL     1     -39.532  50.992 -51.616  1.00  0.00     0.030 A 
HETATM   28  C   UNL     1     -39.443  49.824 -52.381  1.00  0.00     0.002 A 
HETATM   29  C   UNL     1     -39.787  49.824 -53.728  1.00  0.00     0.001 A 
HETATM   30  C   UNL     1     -40.230  50.998 -54.347  1.00  0.00     0.014 A 
HETATM   31  C   UNL     1     -41.475  56.219 -53.911  1.00  0.00     0.032 A 
BRANCH  24  32
HETATM   32  C   UNL     1     -39.931  53.844 -50.380  1.00  0.00     0.125 C 
HETATM   33  C   UNL     1     -41.217  53.994 -49.585  1.00  0.00     0.027 C 
ENDBRANCH  24  32
ENDBRANCH  16  19
ENDBRANCH  14  15
ENDBRANCH  13  14
ENDBRANCH   1  13
TORSDOF 5
ENDMDL
MODEL 4
REMARK VINA RESULT:      -9.5      1.869      3.268
REMARK  5 active torsions:
REMARK  status: ('A' for Active; 'I' for Inactive)
REMARK    1  A    between atoms: C_2  and  N_3 
REMARK    2  A    between atoms: C_7  and  N_8 
REMARK       I    between atoms: N_8  and  C_9 
REMARK    3  A    between atoms: C_9  and  C_10 
REMARK    4  A    between atoms: C_10  and  C_11 
REMARK    5  A    between atoms: C_11  and  C_12 
ROOT
HETATM    1  C   UNL     1     -45.032  57.513 -58.641  1.00  0.00    -0.028 A 
HETATM    2  C   UNL     1     -44.006  56.675 -58.942  1.00  0.00     0.015 A 
HETATM    3  C   UNL     1     -42.684  56.569 -58.229  1.00  0.00     0.069 C 
HETATM    4  N   UNL     1     -44.112  55.820 -60.020  1.00  0.00    -0.326 N 
HETATM    5  C   UNL     1     -45.182  55.719 -60.862  1.00  0.00     0.266 A 
HETATM    6  O   UNL     1     -45.188  54.926 -61.795  1.00  0.00    -0.267 OA
HETATM    7  C   UNL     1     -46.312  56.626 -60.570  1.00  0.00     0.105 A 
HETATM    8  C   UNL     1     -47.523  56.533 -61.484  1.00  0.00     0.026 C 
HETATM    9  N   UNL     1     -48.527  56.456 -62.242  1.00  0.00    -0.096 N 
HETATM   10  C   UNL     1     -46.247  57.478 -59.520  1.00  0.00    -0.029 A 
HETATM   11  C   UNL     1     -47.389  58.425 -59.210  1.00  0.00     0.050 C 
HETATM   12  H   UNL     1     -43.347  55.196 -60.251  1.00  0.00     0.169 HD
ENDROOT
BRANCH   1  13
HETATM   13  C   UNL     1     -45.091  58.522 -57.486  1.00  0.00     0.050 C 
BRANCH  13  14
HETATM   14  C   UNL     1     -45.482  58.095 -56.070  1.00  0.00     0.108 C 
BRANCH  14  15
HETATM   15  C   UNL     1     -44.297  57.516 -55.312  1.00  0.00     0.222 C 
HETATM   16  N   UNL     1     -44.412  56.159 -55.072  1.00  0.00    -0.327 N 
HETATM   17  H   UNL     1     -45.274  55.712 -55.356  1.00  0.00     0.169 HD
HETATM   18  O   UNL     1     -43.368  58.244 -54.974  1.00  0.00    -0.273 OA
BRANCH  16  19
HETATM   19  C   UNL     1     -43.465  55.314 -54.453  1.00  0.00     0.035 A 
HETATM   20  C   UNL     1     -43.181  55.334 -53.085  1.00  0.00     0.044 A 
HETATM   21  C   UNL     1     -42.188  54.478 -52.549  1.00  0.00     0.005 A 
HETATM   22  C   UNL     1     -41.514  53.605 -53.403  1.00  0.00     0.046 A 
HETATM   23  C   UNL     1     -41.662  54.289 -51.232  1.00  0.00     0.003 A 
HETATM   24  N   UNL     1     -40.616  52.895 -52.628  1.00  0.00    -0.346 N 
HETATM   25  C   UNL     1     -41.794  53.559 -54.776  1.00  0.00     0.033 A 
HETATM   26  C   UNL     1     -40.681  53.298 -51.307  1.00  0.00     0.046 A 
HETATM   27  C   UNL     1     -39.965  52.876 -50.173  1.00  0.00     0.030 A 
HETATM   28  C   UNL     1     -40.251  53.483 -48.946  1.00  0.00     0.002 A 
HETATM   29  C   UNL     1     -41.222  54.474 -48.849  1.00  0.00     0.001 A 
HETATM   30  C   UNL     1     -41.933  54.883 -49.981  1.00  0.00     0.014 A 
HETATM   31  C   UNL     1     -42.766  54.431 -55.282  1.00  0.00     0.032 A 
BRANCH  24  32
HETATM   32  C   UNL     1     -39.712  51.872 -53.131  1.00  0.00     0.125 C 
HETATM   33  C   UNL     1     -40.452  50.749 -53.837  1.00  0.00     0.027 C 
ENDBRANCH  24  32
ENDBRANCH  16  19
ENDBRANCH  14  15
ENDBRANCH  13  14
ENDBRANCH   1  13
TORSDOF 5
ENDMDL
MODEL 5
REMARK VINA RESULT:      -9.5      2.221      3.220
REMARK  5 active torsions:
REMARK  status: ('A' for Active; 'I' for Inactive)
REMARK    1  A    between atoms: C_2  and  N_3 
REMARK    2  A    between atoms: C_7  and  N_8 
REMARK       I    between atoms: N_8  and  C_9 
REMARK    3  A    between atoms: C_9  and  C_10 
REMARK    4  A    between atoms: C_10  and  C_11 
REMARK    5  A    between atoms: C_11  and  C_12 
ROOT
HETATM    1  C   UNL     1     -44.033  58.427 -57.641  1.00  0.00    -0.028 A 
HETATM    2  C   UNL     1     -42.682  58.544 -57.709  1.00  0.00     0.015 A 
HETATM    3  C   UNL     1     -41.805  59.431 -56.864  1.00  0.00     0.069 C 
HETATM    4  N   UNL     1     -41.976  57.817 -58.646  1.00  0.00    -0.326 N 
HETATM    5  C   UNL     1     -42.510  56.955 -59.561  1.00  0.00     0.266 A 
HETATM    6  O   UNL     1     -41.803  56.349 -60.356  1.00  0.00    -0.267 OA
HETATM    7  C   UNL     1     -43.980  56.814 -59.522  1.00  0.00     0.105 A 
HETATM    8  C   UNL     1     -44.606  55.854 -60.522  1.00  0.00     0.026 C 
HETATM    9  N   UNL     1     -45.125  55.059 -61.351  1.00  0.00    -0.096 N 
HETATM   10  C   UNL     1     -44.707  57.508 -58.615  1.00  0.00    -0.029 A 
HETATM   11  C   UNL     1     -46.218  57.387 -58.566  1.00  0.00     0.050 C 
HETATM   12  H   UNL     1     -40.967  57.905 -58.704  1.00  0.00     0.169 HD
ENDROOT
BRANCH   1  13
HETATM   13  C   UNL     1     -44.974  59.149 -56.667  1.00  0.00     0.050 C 
BRANCH  13  14
HETATM   14  C   UNL     1     -45.520  58.455 -55.418  1.00  0.00     0.108 C 
BRANCH  14  15
HETATM   15  C   UNL     1     -44.399  57.956 -54.519  1.00  0.00     0.222 C 
HETATM   16  N   UNL     1     -44.518  56.618 -54.188  1.00  0.00    -0.327 N 
HETATM   17  H   UNL     1     -45.347  56.135 -54.510  1.00  0.00     0.169 HD
HETATM   18  O   UNL     1     -43.511  58.723 -54.158  1.00  0.00    -0.273 OA
BRANCH  16  19
HETATM   19  C   UNL     1     -43.618  55.839 -53.428  1.00  0.00     0.035 A 
HETATM   20  C   UNL     1     -42.853  54.796 -53.958  1.00  0.00     0.044 A 
HETATM   21  C   UNL     1     -42.000  54.038 -53.120  1.00  0.00     0.005 A 
HETATM   22  C   UNL     1     -41.925  54.358 -51.764  1.00  0.00     0.046 A 
HETATM   23  C   UNL     1     -41.136  52.921 -53.350  1.00  0.00     0.003 A 
HETATM   24  N   UNL     1     -41.031  53.475 -51.189  1.00  0.00    -0.346 N 
HETATM   25  C   UNL     1     -42.673  55.409 -51.214  1.00  0.00     0.033 A 
HETATM   26  C   UNL     1     -40.544  52.586 -52.131  1.00  0.00     0.046 A 
HETATM   27  C   UNL     1     -39.634  51.521 -52.016  1.00  0.00     0.030 A 
HETATM   28  C   UNL     1     -39.333  50.782 -53.164  1.00  0.00     0.002 A 
HETATM   29  C   UNL     1     -39.914  51.095 -54.388  1.00  0.00     0.001 A 
HETATM   30  C   UNL     1     -40.813  52.161 -54.494  1.00  0.00     0.014 A 
HETATM   31  C   UNL     1     -43.523  56.129 -52.063  1.00  0.00     0.032 A 
BRANCH  24  32
HETATM   32  C   UNL     1     -40.659  53.466 -49.783  1.00  0.00     0.125 C 
HETATM   33  C   UNL     1     -39.529  54.435 -49.481  1.00  0.00     0.027 C 
ENDBRANCH  24  32
ENDBRANCH  16  19
ENDBRANCH  14  15
ENDBRANCH  13  14
ENDBRANCH   1  13
TORSDOF 5
ENDMDL
MODEL 6
REMARK VINA RESULT:      -9.4      2.611      4.222
REMARK  5 active torsions:
REMARK  status: ('A' for Active; 'I' for Inactive)
REMARK    1  A    between atoms: C_2  and  N_3 
REMARK    2  A    between atoms: C_7  and  N_8 
REMARK       I    between atoms: N_8  and  C_9 
REMARK    3  A    between atoms: C_9  and  C_10 
REMARK    4  A    between atoms: C_10  and  C_11 
REMARK    5  A    between atoms: C_11  and  C_12 
ROOT
HETATM    1  C   UNL     1     -43.614  58.747 -56.992  1.00  0.00    -0.028 A 
HETATM    2  C   UNL     1     -42.628  59.676 -57.097  1.00  0.00     0.015 A 
HETATM    3  C   UNL     1     -41.691  59.874 -58.259  1.00  0.00     0.069 C 
HETATM    4  N   UNL     1     -42.389  60.546 -56.053  1.00  0.00    -0.326 N 
HETATM    5  C   UNL     1     -43.064  60.578 -54.866  1.00  0.00     0.266 A 
HETATM    6  O   UNL     1     -42.783  61.391 -53.994  1.00  0.00    -0.267 OA
HETATM    7  C   UNL     1     -44.136  59.573 -54.713  1.00  0.00     0.105 A 
HETATM    8  C   UNL     1     -44.912  59.587 -53.406  1.00  0.00     0.026 C 
HETATM    9  N   UNL     1     -45.555  59.599 -52.322  1.00  0.00    -0.096 N 
HETATM   10  C   UNL     1     -44.401  58.703 -55.716  1.00  0.00    -0.029 A 
HETATM   11  C   UNL     1     -45.489  57.656 -55.576  1.00  0.00     0.050 C 
HETATM   12  H   UNL     1     -41.651  61.237 -56.125  1.00  0.00     0.169 HD
ENDROOT
BRANCH   1  13
HETATM   13  C   UNL     1     -44.020  57.708 -58.046  1.00  0.00     0.050 C 
BRANCH  13  14
HETATM   14  C   UNL     1     -43.095  56.551 -58.426  1.00  0.00     0.108 C 
BRANCH  14  15
HETATM   15  C   UNL     1     -42.870  55.606 -57.255  1.00  0.00     0.222 C 
HETATM   16  N   UNL     1     -41.859  56.018 -56.406  1.00  0.00    -0.327 N 
HETATM   17  H   UNL     1     -41.340  56.845 -56.673  1.00  0.00     0.169 HD
HETATM   18  O   UNL     1     -43.553  54.592 -57.142  1.00  0.00    -0.273 OA
BRANCH  16  19
HETATM   19  C   UNL     1     -41.445  55.406 -55.203  1.00  0.00     0.035 A 
HETATM   20  C   UNL     1     -41.065  54.064 -55.103  1.00  0.00     0.044 A 
HETATM   21  C   UNL     1     -40.699  53.516 -53.850  1.00  0.00     0.005 A 
HETATM   22  C   UNL     1     -40.706  54.340 -52.724  1.00  0.00     0.046 A 
HETATM   23  C   UNL     1     -40.301  52.208 -53.428  1.00  0.00     0.003 A 
HETATM   24  N   UNL     1     -40.310  53.561 -51.652  1.00  0.00    -0.346 N 
HETATM   25  C   UNL     1     -41.069  55.692 -52.804  1.00  0.00     0.033 A 
HETATM   26  C   UNL     1     -40.066  52.260 -52.053  1.00  0.00     0.046 A 
HETATM   27  C   UNL     1     -39.657  51.128 -51.327  1.00  0.00     0.030 A 
HETATM   28  C   UNL     1     -39.496  49.923 -52.018  1.00  0.00     0.002 A 
HETATM   29  C   UNL     1     -39.728  49.847 -53.387  1.00  0.00     0.001 A 
HETATM   30  C   UNL     1     -40.128  50.980 -54.102  1.00  0.00     0.014 A 
HETATM   31  C   UNL     1     -41.447  56.201 -54.052  1.00  0.00     0.032 A 
BRANCH  24  32
HETATM   32  C   UNL     1     -40.179  54.037 -50.284  1.00  0.00     0.125 C 
HETATM   33  C   UNL     1     -41.522  54.147 -49.583  1.00  0.00     0.027 C 
ENDBRANCH  24  32
ENDBRANCH  16  19
ENDBRANCH  14  15
ENDBRANCH  13  14
ENDBRANCH   1  13
TORSDOF 5
ENDMDL
MODEL 7
REMARK VINA RESULT:      -9.2      2.542      9.872
REMARK  5 active torsions:
REMARK  status: ('A' for Active; 'I' for Inactive)
REMARK    1  A    between atoms: C_2  and  N_3 
REMARK    2  A    between atoms: C_7  and  N_8 
REMARK       I    between atoms: N_8  and  C_9 
REMARK    3  A    between atoms: C_9  and  C_10 
REMARK    4  A    between atoms: C_10  and  C_11 
REMARK    5  A    between atoms: C_11  and  C_12 
ROOT
HETATM    1  C   UNL     1     -40.616  53.702 -51.435  1.00  0.00    -0.028 A 
HETATM    2  C   UNL     1     -40.567  53.165 -50.188  1.00  0.00     0.015 A 
HETATM    3  C   UNL     1     -40.819  53.877 -48.885  1.00  0.00     0.069 C 
HETATM    4  N   UNL     1     -40.235  51.836 -50.025  1.00  0.00    -0.326 N 
HETATM    5  C   UNL     1     -39.929  50.958 -51.026  1.00  0.00     0.266 A 
HETATM    6  O   UNL     1     -39.646  49.790 -50.786  1.00  0.00    -0.267 OA
HETATM    7  C   UNL     1     -39.960  51.513 -52.394  1.00  0.00     0.105 A 
HETATM    8  C   UNL     1     -39.633  50.558 -53.532  1.00  0.00     0.026 C 
HETATM    9  N   UNL     1     -39.362  49.767 -54.475  1.00  0.00    -0.096 N 
HETATM   10  C   UNL     1     -40.284  52.812 -52.595  1.00  0.00    -0.029 A 
HETATM   11  C   UNL     1     -40.311  53.404 -53.990  1.00  0.00     0.050 C 
HETATM   12  H   UNL     1     -40.192  51.432 -49.097  1.00  0.00     0.169 HD
ENDROOT
BRANCH   1  13
HETATM   13  C   UNL     1     -40.968  55.150 -51.803  1.00  0.00     0.050 C 
BRANCH  13  14
HETATM   14  C   UNL     1     -42.388  55.694 -51.638  1.00  0.00     0.108 C 
BRANCH  14  15
HETATM   15  C   UNL     1     -42.935  56.238 -52.949  1.00  0.00     0.222 C 
HETATM   16  N   UNL     1     -42.100  56.008 -54.027  1.00  0.00    -0.327 N 
HETATM   17  H   UNL     1     -41.207  55.573 -53.835  1.00  0.00     0.169 HD
HETATM   18  O   UNL     1     -44.017  56.818 -52.971  1.00  0.00    -0.273 OA
BRANCH  16  19
HETATM   19  C   UNL     1     -42.340  56.326 -55.382  1.00  0.00     0.035 A 
HETATM   20  C   UNL     1     -42.036  57.564 -55.957  1.00  0.00     0.044 A 
HETATM   21  C   UNL     1     -42.343  57.815 -57.316  1.00  0.00     0.005 A 
HETATM   22  C   UNL     1     -42.936  56.805 -58.074  1.00  0.00     0.046 A 
HETATM   23  C   UNL     1     -42.186  58.958 -58.162  1.00  0.00     0.003 A 
HETATM   24  N   UNL     1     -43.121  57.312 -59.347  1.00  0.00    -0.346 N 
HETATM   25  C   UNL     1     -43.237  55.552 -57.521  1.00  0.00     0.033 A 
HETATM   26  C   UNL     1     -42.682  58.621 -59.424  1.00  0.00     0.046 A 
HETATM   27  C   UNL     1     -42.673  59.534 -60.492  1.00  0.00     0.030 A 
HETATM   28  C   UNL     1     -42.160  60.815 -60.264  1.00  0.00     0.002 A 
HETATM   29  C   UNL     1     -41.665  61.173 -59.014  1.00  0.00     0.001 A 
HETATM   30  C   UNL     1     -41.671  60.256 -57.959  1.00  0.00     0.014 A 
HETATM   31  C   UNL     1     -42.941  55.338 -56.170  1.00  0.00     0.032 A 
BRANCH  24  32
HETATM   32  C   UNL     1     -43.712  56.577 -60.455  1.00  0.00     0.125 C 
HETATM   33  C   UNL     1     -45.230  56.607 -60.420  1.00  0.00     0.027 C 
ENDBRANCH  24  32
ENDBRANCH  16  19
ENDBRANCH  14  15
ENDBRANCH  13  14
ENDBRANCH   1  13
TORSDOF 5
ENDMDL
MODEL 8
REMARK VINA RESULT:      -9.0      2.075      2.763
REMARK  5 active torsions:
REMARK  status: ('A' for Active; 'I' for Inactive)
REMARK    1  A    between atoms: C_2  and  N_3 
REMARK    2  A    between atoms: C_7  and  N_8 
REMARK       I    between atoms: N_8  and  C_9 
REMARK    3  A    between atoms: C_9  and  C_10 
REMARK    4  A    between atoms: C_10  and  C_11 
REMARK    5  A    between atoms: C_11  and  C_12 
ROOT
HETATM    1  C   UNL     1     -43.900  58.522 -59.151  1.00  0.00    -0.028 A 
HETATM    2  C   UNL     1     -44.946  58.435 -60.014  1.00  0.00     0.015 A 
HETATM    3  C   UNL     1     -45.991  57.352 -60.064  1.00  0.00     0.069 C 
HETATM    4  N   UNL     1     -45.114  59.396 -60.989  1.00  0.00    -0.326 N 
HETATM    5  C   UNL     1     -44.304  60.476 -61.198  1.00  0.00     0.266 A 
HETATM    6  O   UNL     1     -44.533  61.283 -62.091  1.00  0.00    -0.267 OA
HETATM    7  C   UNL     1     -43.149  60.595 -60.284  1.00  0.00     0.105 A 
HETATM    8  C   UNL     1     -42.232  61.791 -60.484  1.00  0.00     0.026 C 
HETATM    9  N   UNL     1     -41.473  62.783 -60.650  1.00  0.00    -0.096 N 
HETATM   10  C   UNL     1     -42.952  59.672 -59.313  1.00  0.00    -0.029 A 
HETATM   11  C   UNL     1     -41.767  59.768 -58.372  1.00  0.00     0.050 C 
HETATM   12  H   UNL     1     -45.890  59.333 -61.638  1.00  0.00     0.169 HD
ENDROOT
BRANCH   1  13
HETATM   13  C   UNL     1     -43.562  57.553 -58.010  1.00  0.00     0.050 C 
BRANCH  13  14
HETATM   14  C   UNL     1     -42.745  56.283 -58.255  1.00  0.00     0.108 C 
BRANCH  14  15
HETATM   15  C   UNL     1     -42.711  55.392 -57.022  1.00  0.00     0.222 C 
HETATM   16  N   UNL     1     -41.613  55.621 -56.213  1.00  0.00    -0.327 N 
HETATM   17  H   UNL     1     -40.928  56.289 -56.542  1.00  0.00     0.169 HD
HETATM   18  O   UNL     1     -43.602  54.570 -56.832  1.00  0.00    -0.273 OA
BRANCH  16  19
HETATM   19  C   UNL     1     -41.319  55.013 -54.972  1.00  0.00     0.035 A 
HETATM   20  C   UNL     1     -40.870  53.696 -54.839  1.00  0.00     0.044 A 
HETATM   21  C   UNL     1     -40.633  53.149 -53.554  1.00  0.00     0.005 A 
HETATM   22  C   UNL     1     -40.838  53.949 -52.430  1.00  0.00     0.046 A 
HETATM   23  C   UNL     1     -40.210  51.860 -53.099  1.00  0.00     0.003 A 
HETATM   24  N   UNL     1     -40.534  53.177 -51.324  1.00  0.00    -0.346 N 
HETATM   25  C   UNL     1     -41.274  55.277 -52.542  1.00  0.00     0.033 A 
HETATM   26  C   UNL     1     -40.158  51.901 -51.704  1.00  0.00     0.046 A 
HETATM   27  C   UNL     1     -39.774  50.783 -50.943  1.00  0.00     0.030 A 
HETATM   28  C   UNL     1     -39.448  49.603 -51.619  1.00  0.00     0.002 A 
HETATM   29  C   UNL     1     -39.497  49.539 -53.008  1.00  0.00     0.001 A 
HETATM   30  C   UNL     1     -39.873  50.658 -53.757  1.00  0.00     0.014 A 
HETATM   31  C   UNL     1     -41.520  55.785 -53.824  1.00  0.00     0.032 A 
BRANCH  24  32
HETATM   32  C   UNL     1     -40.612  53.634 -49.945  1.00  0.00     0.125 C 
HETATM   33  C   UNL     1     -39.348  54.353 -49.506  1.00  0.00     0.027 C 
ENDBRANCH  24  32
ENDBRANCH  16  19
ENDBRANCH  14  15
ENDBRANCH  13  14
ENDBRANCH   1  13
TORSDOF 5
ENDMDL
MODEL 9
REMARK VINA RESULT:      -8.8      2.834     10.606
REMARK  5 active torsions:
REMARK  status: ('A' for Active; 'I' for Inactive)
REMARK    1  A    between atoms: C_2  and  N_3 
REMARK    2  A    between atoms: C_7  and  N_8 
REMARK       I    between atoms: N_8  and  C_9 
REMARK    3  A    between atoms: C_9  and  C_10 
REMARK    4  A    between atoms: C_10  and  C_11 
REMARK    5  A    between atoms: C_11  and  C_12 
ROOT
HETATM    1  C   UNL     1     -40.839  54.151 -53.414  1.00  0.00    -0.028 A 
HETATM    2  C   UNL     1     -41.063  54.999 -52.377  1.00  0.00     0.015 A 
HETATM    3  C   UNL     1     -41.521  56.432 -52.462  1.00  0.00     0.069 C 
HETATM    4  N   UNL     1     -40.844  54.575 -51.083  1.00  0.00    -0.326 N 
HETATM    5  C   UNL     1     -40.400  53.338 -50.709  1.00  0.00     0.266 A 
HETATM    6  O   UNL     1     -40.236  53.049 -49.530  1.00  0.00    -0.267 OA
HETATM    7  C   UNL     1     -40.136  52.394 -51.814  1.00  0.00     0.105 A 
HETATM    8  C   UNL     1     -39.649  51.005 -51.431  1.00  0.00     0.026 C 
HETATM    9  N   UNL     1     -39.247  49.854 -51.113  1.00  0.00    -0.096 N 
HETATM   10  C   UNL     1     -40.341  52.773 -53.097  1.00  0.00    -0.029 A 
HETATM   11  C   UNL     1     -40.065  51.823 -54.246  1.00  0.00     0.050 C 
HETATM   12  H   UNL     1     -41.004  55.206 -50.306  1.00  0.00     0.169 HD
ENDROOT
BRANCH   1  13
HETATM   13  C   UNL     1     -41.032  54.448 -54.908  1.00  0.00     0.050 C 
BRANCH  13  14
HETATM   14  C   UNL     1     -42.426  54.551 -55.530  1.00  0.00     0.108 C 
BRANCH  14  15
HETATM   15  C   UNL     1     -42.667  55.924 -56.139  1.00  0.00     0.222 C 
HETATM   16  N   UNL     1     -42.402  55.975 -57.495  1.00  0.00    -0.327 N 
HETATM   17  H   UNL     1     -42.022  55.140 -57.923  1.00  0.00     0.169 HD
HETATM   18  O   UNL     1     -43.054  56.851 -55.433  1.00  0.00    -0.273 OA
BRANCH  16  19
HETATM   19  C   UNL     1     -42.582  57.073 -58.364  1.00  0.00     0.035 A 
HETATM   20  C   UNL     1     -41.950  58.309 -58.198  1.00  0.00     0.044 A 
HETATM   21  C   UNL     1     -42.214  59.372 -59.095  1.00  0.00     0.005 A 
HETATM   22  C   UNL     1     -43.099  59.162 -60.153  1.00  0.00     0.046 A 
HETATM   23  C   UNL     1     -41.760  60.727 -59.173  1.00  0.00     0.003 A 
HETATM   24  N   UNL     1     -43.170  60.346 -60.862  1.00  0.00    -0.346 N 
HETATM   25  C   UNL     1     -43.733  57.926 -60.346  1.00  0.00     0.033 A 
HETATM   26  C   UNL     1     -42.372  61.315 -60.282  1.00  0.00     0.046 A 
HETATM   27  C   UNL     1     -42.133  62.654 -60.637  1.00  0.00     0.030 A 
HETATM   28  C   UNL     1     -41.263  63.405 -59.840  1.00  0.00     0.002 A 
HETATM   29  C   UNL     1     -40.646  62.840 -58.729  1.00  0.00     0.001 A 
HETATM   30  C   UNL     1     -40.884  61.505 -58.387  1.00  0.00     0.014 A 
HETATM   31  C   UNL     1     -43.468  56.898 -59.432  1.00  0.00     0.032 A 
BRANCH  24  32
HETATM   32  C   UNL     1     -43.983  60.556 -62.050  1.00  0.00     0.125 C 
HETATM   33  C   UNL     1     -45.356  61.113 -61.716  1.00  0.00     0.027 C 
ENDBRANCH  24  32
ENDBRANCH  16  19
ENDBRANCH  14  15
ENDBRANCH  13  14
ENDBRANCH   1  13
TORSDOF 5
ENDMDL
MODEL 10
REMARK VINA RESULT:      -8.7      2.631      3.124
REMARK  5 active torsions:
REMARK  status: ('A' for Active; 'I' for Inactive)
REMARK    1  A    between atoms: C_2  and  N_3 
REMARK    2  A    between atoms: C_7  and  N_8 
REMARK       I    between atoms: N_8  and  C_9 
REMARK    3  A    between atoms: C_9  and  C_10 
REMARK    4  A    between atoms: C_10  and  C_11 
REMARK    5  A    between atoms: C_11  and  C_12 
ROOT
HETATM    1  C   UNL     1     -44.178  58.169 -57.523  1.00  0.00    -0.028 A 
HETATM    2  C   UNL     1     -43.289  57.168 -57.753  1.00  0.00     0.015 A 
HETATM    3  C   UNL     1     -43.130  55.897 -56.961  1.00  0.00     0.069 C 
HETATM    4  N   UNL     1     -42.391  57.274 -58.795  1.00  0.00    -0.326 N 
HETATM    5  C   UNL     1     -42.286  58.326 -59.660  1.00  0.00     0.266 A 
HETATM    6  O   UNL     1     -41.456  58.332 -60.561  1.00  0.00    -0.267 OA
HETATM    7  C   UNL     1     -43.232  59.438 -59.430  1.00  0.00     0.105 A 
HETATM    8  C   UNL     1     -43.147  60.622 -60.381  1.00  0.00     0.026 C 
HETATM    9  N   UNL     1     -43.077  61.602 -61.169  1.00  0.00    -0.096 N 
HETATM   10  C   UNL     1     -44.130  59.370 -58.419  1.00  0.00    -0.029 A 
HETATM   11  C   UNL     1     -45.100  60.505 -58.157  1.00  0.00     0.050 C 
HETATM   12  H   UNL     1     -41.722  56.532 -58.968  1.00  0.00     0.169 HD
ENDROOT
BRANCH   1  13
HETATM   13  C   UNL     1     -45.245  58.220 -56.420  1.00  0.00     0.050 C 
BRANCH  13  14
HETATM   14  C   UNL     1     -44.984  58.922 -55.086  1.00  0.00     0.108 C 
BRANCH  14  15
HETATM   15  C   UNL     1     -43.851  58.260 -54.317  1.00  0.00     0.222 C 
HETATM   16  N   UNL     1     -44.235  57.098 -53.671  1.00  0.00    -0.327 N 
HETATM   17  H   UNL     1     -45.214  56.847 -53.718  1.00  0.00     0.169 HD
HETATM   18  O   UNL     1     -42.733  58.766 -54.309  1.00  0.00    -0.273 OA
BRANCH  16  19
HETATM   19  C   UNL     1     -43.417  56.218 -52.930  1.00  0.00     0.035 A 
HETATM   20  C   UNL     1     -42.657  55.193 -53.503  1.00  0.00     0.044 A 
HETATM   21  C   UNL     1     -41.891  54.329 -52.684  1.00  0.00     0.005 A 
HETATM   22  C   UNL     1     -41.893  54.527 -51.303  1.00  0.00     0.046 A 
HETATM   23  C   UNL     1     -41.056  53.201 -52.959  1.00  0.00     0.003 A 
HETATM   24  N   UNL     1     -41.071  53.560 -50.755  1.00  0.00    -0.346 N 
HETATM   25  C   UNL     1     -42.635  55.558 -50.709  1.00  0.00     0.033 A 
HETATM   26  C   UNL     1     -40.557  52.736 -51.740  1.00  0.00     0.046 A 
HETATM   27  C   UNL     1     -39.697  51.627 -51.665  1.00  0.00     0.030 A 
HETATM   28  C   UNL     1     -39.349  50.978 -52.854  1.00  0.00     0.002 A 
HETATM   29  C   UNL     1     -39.837  51.421 -54.079  1.00  0.00     0.001 A 
HETATM   30  C   UNL     1     -40.687  52.530 -54.144  1.00  0.00     0.014 A 
HETATM   31  C   UNL     1     -43.400  56.385 -51.541  1.00  0.00     0.032 A 
BRANCH  24  32
HETATM   32  C   UNL     1     -40.793  53.413 -49.335  1.00  0.00     0.125 C 
HETATM   33  C   UNL     1     -39.615  54.262 -48.889  1.00  0.00     0.027 C 
ENDBRANCH  24  32
ENDBRANCH  16  19
ENDBRANCH  14  15
ENDBRANCH  13  14
ENDBRANCH   1  13
TORSDOF 5
ENDMDL
