MODEL 1
REMARK VINA RESULT:      -8.2      0.000      0.000
REMARK  5 active torsions:
REMARK  status: ('A' for Active; 'I' for Inactive)
REMARK    1  A    between atoms: C_2  and  N_3 
REMARK    2  A    between atoms: C_2  and  C_16 
REMARK    3  A    between atoms: N_3  and  C_6 
REMARK    4  A    between atoms: C_6  and  C_7 
REMARK    5  A    between atoms: C_19  and  C_20 
ROOT
HETATM    1  C   UNL     1     -43.212  57.656 -55.596  1.00  0.00     0.049 C 
HETATM    2  C   UNL     1     -43.628  56.229 -55.249  1.00  0.00     0.260 C 
ENDROOT
BRANCH   2   3
HETATM    3  N   UNL     1     -44.617  56.261 -54.109  1.00  0.00    -0.060 N 
HETATM    4  H   UNL     1     -45.553  56.420 -54.519  1.00  0.00     0.278 HD
HETATM    5  H   UNL     1     -44.693  55.325 -53.690  1.00  0.00     0.278 HD
BRANCH   3   6
HETATM    6  C   UNL     1     -44.420  57.291 -53.057  1.00  0.00     0.274 C 
BRANCH   6   7
HETATM    7  C   UNL     1     -43.410  56.862 -52.041  1.00  0.00     0.004 A 
HETATM    8  C   UNL     1     -42.284  57.629 -51.783  1.00  0.00     0.113 A 
HETATM    9  C   UNL     1     -41.328  57.249 -50.872  1.00  0.00     0.105 A 
HETATM   10  O   UNL     1     -41.999  58.830 -52.363  1.00  0.00    -0.322 OA
HETATM   11  O   UNL     1     -40.314  58.147 -50.777  1.00  0.00    -0.323 OA
HETATM   12  C   UNL     1     -41.438  56.079 -50.154  1.00  0.00     0.040 A 
HETATM   13  C   UNL     1     -40.703  59.116 -51.766  1.00  0.00     0.352 A 
HETATM   14  C   UNL     1     -42.558  55.279 -50.386  1.00  0.00     0.003 A 
HETATM   15  C   UNL     1     -43.537  55.662 -51.323  1.00  0.00     0.012 A 
ENDBRANCH   6   7
ENDBRANCH   3   6
ENDBRANCH   2   3
BRANCH   2  16
HETATM   16  C   UNL     1     -42.437  55.413 -54.875  1.00  0.00     0.203 A 
HETATM   17  O   UNL     1     -41.211  55.924 -55.152  1.00  0.00    -0.194 OA
HETATM   18  N   UNL     1     -40.288  54.995 -54.692  1.00  0.00    -0.106 NA
HETATM   19  C   UNL     1     -41.040  54.001 -54.188  1.00  0.00     0.189 A 
HETATM   20  N   UNL     1     -42.402  54.229 -54.303  1.00  0.00    -0.202 NA
BRANCH  19  21
HETATM   21  C   UNL     1     -40.495  52.798 -53.568  1.00  0.00     0.017 A 
HETATM   22  C   UNL     1     -40.228  51.664 -54.346  1.00  0.00     0.057 A 
HETATM   23  C   UNL     1     -39.713  50.517 -53.748  1.00  0.00     0.117 A 
HETATM   24  F   UNL     1     -39.461  49.443 -54.507  1.00  0.00    -0.206 F 
HETATM   25  C   UNL     1     -39.459  50.468 -52.384  1.00  0.00     0.042 A 
HETATM   26  C   UNL     1     -39.721  51.587 -51.599  1.00  0.00     0.004 A 
HETATM   27  C   UNL     1     -40.235  52.747 -52.188  1.00  0.00     0.016 A 
ENDBRANCH  19  21
ENDBRANCH   2  16
TORSDOF 5
ENDMDL
MODEL 2
REMARK VINA RESULT:      -8.1      3.379      5.774
REMARK  5 active torsions:
REMARK  status: ('A' for Active; 'I' for Inactive)
REMARK    1  A    between atoms: C_2  and  N_3 
REMARK    2  A    between atoms: C_2  and  C_16 
REMARK    3  A    between atoms: N_3  and  C_6 
REMARK    4  A    between atoms: C_6  and  C_7 
REMARK    5  A    between atoms: C_19  and  C_20 
ROOT
HETATM    1  C   UNL     1     -44.226  56.838 -54.513  1.00  0.00     0.049 C 
HETATM    2  C   UNL     1     -43.017  56.328 -55.292  1.00  0.00     0.260 C 
ENDROOT
BRANCH   2   3
HETATM    3  N   UNL     1     -43.490  55.583 -56.516  1.00  0.00    -0.060 N 
HETATM    4  H   UNL     1     -43.213  54.594 -56.399  1.00  0.00     0.278 HD
HETATM    5  H   UNL     1     -44.517  55.546 -56.524  1.00  0.00     0.278 HD
BRANCH   3   6
HETATM    6  C   UNL     1     -42.972  56.029 -57.835  1.00  0.00     0.274 C 
BRANCH   6   7
HETATM    7  C   UNL     1     -44.024  55.969 -58.896  1.00  0.00     0.004 A 
HETATM    8  C   UNL     1     -45.118  56.821 -58.867  1.00  0.00     0.113 A 
HETATM    9  C   UNL     1     -46.112  56.773 -59.816  1.00  0.00     0.105 A 
HETATM   10  O   UNL     1     -45.332  57.798 -57.941  1.00  0.00    -0.322 OA
HETATM   11  O   UNL     1     -47.083  57.695 -59.596  1.00  0.00    -0.323 OA
HETATM   12  C   UNL     1     -46.074  55.874 -60.858  1.00  0.00     0.040 A 
HETATM   13  C   UNL     1     -46.626  58.302 -58.375  1.00  0.00     0.352 A 
HETATM   14  C   UNL     1     -44.988  54.999 -60.921  1.00  0.00     0.003 A 
HETATM   15  C   UNL     1     -43.971  55.042 -59.948  1.00  0.00     0.012 A 
ENDBRANCH   6   7
ENDBRANCH   3   6
ENDBRANCH   2   3
BRANCH   2  16
HETATM   16  C   UNL     1     -42.181  55.436 -54.436  1.00  0.00     0.203 A 
HETATM   17  O   UNL     1     -41.673  55.958 -53.291  1.00  0.00    -0.194 OA
HETATM   18  N   UNL     1     -40.964  54.934 -52.678  1.00  0.00    -0.106 NA
HETATM   19  C   UNL     1     -41.101  53.889 -53.511  1.00  0.00     0.189 A 
HETATM   20  N   UNL     1     -41.852  54.180 -54.640  1.00  0.00    -0.202 NA
BRANCH  19  21
HETATM   21  C   UNL     1     -40.531  52.568 -53.267  1.00  0.00     0.017 A 
HETATM   22  C   UNL     1     -40.482  51.620 -54.297  1.00  0.00     0.057 A 
HETATM   23  C   UNL     1     -39.942  50.360 -54.057  1.00  0.00     0.117 A 
HETATM   24  F   UNL     1     -39.902  49.467 -55.054  1.00  0.00    -0.206 F 
HETATM   25  C   UNL     1     -39.448  50.014 -52.806  1.00  0.00     0.042 A 
HETATM   26  C   UNL     1     -39.491  50.947 -51.773  1.00  0.00     0.004 A 
HETATM   27  C   UNL     1     -40.029  52.218 -52.003  1.00  0.00     0.016 A 
ENDBRANCH  19  21
ENDBRANCH   2  16
TORSDOF 5
ENDMDL
MODEL 3
REMARK VINA RESULT:      -8.0      2.755      5.407
REMARK  5 active torsions:
REMARK  status: ('A' for Active; 'I' for Inactive)
REMARK    1  A    between atoms: C_2  and  N_3 
REMARK    2  A    between atoms: C_2  and  C_16 
REMARK    3  A    between atoms: N_3  and  C_6 
REMARK    4  A    between atoms: C_6  and  C_7 
REMARK    5  A    between atoms: C_19  and  C_20 
ROOT
HETATM    1  C   UNL     1     -42.131  57.812 -53.419  1.00  0.00     0.049 C 
HETATM    2  C   UNL     1     -41.291  56.843 -54.246  1.00  0.00     0.260 C 
ENDROOT
BRANCH   2   3
HETATM    3  N   UNL     1     -42.010  56.537 -55.538  1.00  0.00    -0.060 N 
HETATM    4  H   UNL     1     -41.288  56.393 -56.264  1.00  0.00     0.278 HD
HETATM    5  H   UNL     1     -42.468  55.619 -55.470  1.00  0.00     0.278 HD
BRANCH   3   6
HETATM    6  C   UNL     1     -42.956  57.557 -56.056  1.00  0.00     0.274 C 
BRANCH   6   7
HETATM    7  C   UNL     1     -42.715  57.858 -57.501  1.00  0.00     0.004 A 
HETATM    8  C   UNL     1     -43.039  56.938 -58.487  1.00  0.00     0.113 A 
HETATM    9  C   UNL     1     -42.809  57.177 -59.820  1.00  0.00     0.105 A 
HETATM   10  O   UNL     1     -43.630  55.728 -58.271  1.00  0.00    -0.322 OA
HETATM   11  O   UNL     1     -43.204  56.145 -60.609  1.00  0.00    -0.323 OA
HETATM   12  C   UNL     1     -42.244  58.354 -60.257  1.00  0.00     0.040 A 
HETATM   13  C   UNL     1     -43.664  55.200 -59.627  1.00  0.00     0.352 A 
HETATM   14  C   UNL     1     -41.903  59.306 -59.294  1.00  0.00     0.003 A 
HETATM   15  C   UNL     1     -42.133  59.062 -57.926  1.00  0.00     0.012 A 
ENDBRANCH   6   7
ENDBRANCH   3   6
ENDBRANCH   2   3
BRANCH   2  16
HETATM   16  C   UNL     1     -41.042  55.584 -53.484  1.00  0.00     0.203 A 
HETATM   17  O   UNL     1     -41.291  55.596 -52.151  1.00  0.00    -0.194 OA
HETATM   18  N   UNL     1     -41.004  54.318 -51.690  1.00  0.00    -0.106 NA
HETATM   19  C   UNL     1     -40.598  53.653 -52.785  1.00  0.00     0.189 A 
HETATM   20  N   UNL     1     -40.596  54.431 -53.932  1.00  0.00    -0.202 NA
BRANCH  19  21
HETATM   21  C   UNL     1     -40.203  52.248 -52.788  1.00  0.00     0.017 A 
HETATM   22  C   UNL     1     -40.203  51.519 -53.984  1.00  0.00     0.057 A 
HETATM   23  C   UNL     1     -39.831  50.178 -53.980  1.00  0.00     0.117 A 
HETATM   24  F   UNL     1     -39.834  49.497 -55.133  1.00  0.00    -0.206 F 
HETATM   25  C   UNL     1     -39.458  49.537 -52.806  1.00  0.00     0.042 A 
HETATM   26  C   UNL     1     -39.455  50.250 -51.610  1.00  0.00     0.004 A 
HETATM   27  C   UNL     1     -39.824  51.599 -51.601  1.00  0.00     0.016 A 
ENDBRANCH  19  21
ENDBRANCH   2  16
TORSDOF 5
ENDMDL
MODEL 4
REMARK VINA RESULT:      -7.9      2.688      4.905
REMARK  5 active torsions:
REMARK  status: ('A' for Active; 'I' for Inactive)
REMARK    1  A    between atoms: C_2  and  N_3 
REMARK    2  A    between atoms: C_2  and  C_16 
REMARK    3  A    between atoms: N_3  and  C_6 
REMARK    4  A    between atoms: C_6  and  C_7 
REMARK    5  A    between atoms: C_19  and  C_20 
ROOT
HETATM    1  C   UNL     1     -43.632  56.951 -53.043  1.00  0.00     0.049 C 
HETATM    2  C   UNL     1     -42.149  56.907 -53.398  1.00  0.00     0.260 C 
ENDROOT
BRANCH   2   3
HETATM    3  N   UNL     1     -41.994  56.964 -54.899  1.00  0.00    -0.060 N 
HETATM    4  H   UNL     1     -41.750  57.938 -55.146  1.00  0.00     0.278 HD
HETATM    5  H   UNL     1     -41.162  56.429 -55.182  1.00  0.00     0.278 HD
BRANCH   3   6
HETATM    6  C   UNL     1     -43.167  56.583 -55.726  1.00  0.00     0.274 C 
BRANCH   6   7
HETATM    7  C   UNL     1     -42.894  56.741 -57.188  1.00  0.00     0.004 A 
HETATM    8  C   UNL     1     -42.431  57.943 -57.703  1.00  0.00     0.113 A 
HETATM    9  C   UNL     1     -42.193  58.124 -59.044  1.00  0.00     0.105 A 
HETATM   10  O   UNL     1     -42.139  59.054 -56.969  1.00  0.00    -0.322 OA
HETATM   11  O   UNL     1     -41.743  59.373 -59.327  1.00  0.00    -0.323 OA
HETATM   12  C   UNL     1     -42.397  57.115 -59.958  1.00  0.00     0.040 A 
HETATM   13  C   UNL     1     -41.770  59.984 -58.025  1.00  0.00     0.352 A 
HETATM   14  C   UNL     1     -42.864  55.890 -59.478  1.00  0.00     0.003 A 
HETATM   15  C   UNL     1     -43.114  55.702 -58.105  1.00  0.00     0.012 A 
ENDBRANCH   6   7
ENDBRANCH   3   6
ENDBRANCH   2   3
BRANCH   2  16
HETATM   16  C   UNL     1     -41.518  55.666 -52.862  1.00  0.00     0.203 A 
HETATM   17  O   UNL     1     -41.126  55.670 -51.563  1.00  0.00    -0.194 OA
HETATM   18  N   UNL     1     -40.600  54.410 -51.311  1.00  0.00    -0.106 NA
HETATM   19  C   UNL     1     -40.713  53.762 -52.483  1.00  0.00     0.189 A 
HETATM   20  N   UNL     1     -41.275  54.535 -53.487  1.00  0.00    -0.202 NA
BRANCH  19  21
HETATM   21  C   UNL     1     -40.299  52.379 -52.695  1.00  0.00     0.017 A 
HETATM   22  C   UNL     1     -39.862  51.601 -51.616  1.00  0.00     0.057 A 
HETATM   23  C   UNL     1     -39.462  50.284 -51.826  1.00  0.00     0.117 A 
HETATM   24  F   UNL     1     -39.049  49.554 -50.782  1.00  0.00    -0.206 F 
HETATM   25  C   UNL     1     -39.484  49.717 -53.093  1.00  0.00     0.042 A 
HETATM   26  C   UNL     1     -39.916  50.480 -54.175  1.00  0.00     0.004 A 
HETATM   27  C   UNL     1     -40.322  51.804 -53.977  1.00  0.00     0.016 A 
ENDBRANCH  19  21
ENDBRANCH   2  16
TORSDOF 5
ENDMDL
MODEL 5
REMARK VINA RESULT:      -7.8      2.949      5.552
REMARK  5 active torsions:
REMARK  status: ('A' for Active; 'I' for Inactive)
REMARK    1  A    between atoms: C_2  and  N_3 
REMARK    2  A    between atoms: C_2  and  C_16 
REMARK    3  A    between atoms: N_3  and  C_6 
REMARK    4  A    between atoms: C_6  and  C_7 
REMARK    5  A    between atoms: C_19  and  C_20 
ROOT
HETATM    1  C   UNL     1     -44.599  57.384 -53.460  1.00  0.00     0.049 C 
HETATM    2  C   UNL     1     -43.859  57.300 -54.792  1.00  0.00     0.260 C 
ENDROOT
BRANCH   2   3
HETATM    3  N   UNL     1     -44.863  57.186 -55.914  1.00  0.00    -0.060 N 
HETATM    4  H   UNL     1     -44.670  56.300 -56.409  1.00  0.00     0.278 HD
HETATM    5  H   UNL     1     -45.804  57.044 -55.523  1.00  0.00     0.278 HD
BRANCH   3   6
HETATM    6  C   UNL     1     -44.878  58.265 -56.935  1.00  0.00     0.274 C 
BRANCH   6   7
HETATM    7  C   UNL     1     -43.949  57.971 -58.069  1.00  0.00     0.004 A 
HETATM    8  C   UNL     1     -44.309  57.091 -59.079  1.00  0.00     0.113 A 
HETATM    9  C   UNL     1     -43.468  56.784 -60.122  1.00  0.00     0.105 A 
HETATM   10  O   UNL     1     -45.512  56.456 -59.179  1.00  0.00    -0.322 OA
HETATM   11  O   UNL     1     -44.023  55.906 -60.995  1.00  0.00    -0.323 OA
HETATM   12  C   UNL     1     -42.213  57.342 -60.226  1.00  0.00     0.040 A 
HETATM   13  C   UNL     1     -45.290  55.647 -60.367  1.00  0.00     0.352 A 
HETATM   14  C   UNL     1     -41.813  58.232 -59.228  1.00  0.00     0.003 A 
HETATM   15  C   UNL     1     -42.670  58.544 -58.155  1.00  0.00     0.012 A 
ENDBRANCH   6   7
ENDBRANCH   3   6
ENDBRANCH   2   3
BRANCH   2  16
HETATM   16  C   UNL     1     -42.936  56.129 -54.805  1.00  0.00     0.203 A 
HETATM   17  O   UNL     1     -42.466  55.711 -56.007  1.00  0.00    -0.194 OA
HETATM   18  N   UNL     1     -41.624  54.638 -55.745  1.00  0.00    -0.106 NA
HETATM   19  C   UNL     1     -41.669  54.499 -54.409  1.00  0.00     0.189 A 
HETATM   20  N   UNL     1     -42.502  55.416 -53.788  1.00  0.00    -0.202 NA
BRANCH  19  21
HETATM   21  C   UNL     1     -40.917  53.493 -53.667  1.00  0.00     0.017 A 
HETATM   22  C   UNL     1     -40.377  52.385 -54.331  1.00  0.00     0.057 A 
HETATM   23  C   UNL     1     -39.665  51.425 -53.616  1.00  0.00     0.117 A 
HETATM   24  F   UNL     1     -39.154  50.373 -54.267  1.00  0.00    -0.206 F 
HETATM   25  C   UNL     1     -39.476  51.541 -52.245  1.00  0.00     0.042 A 
HETATM   26  C   UNL     1     -40.009  52.638 -51.572  1.00  0.00     0.004 A 
HETATM   27  C   UNL     1     -40.724  53.610 -52.280  1.00  0.00     0.016 A 
ENDBRANCH  19  21
ENDBRANCH   2  16
TORSDOF 5
ENDMDL
MODEL 6
REMARK VINA RESULT:      -7.8      3.029      5.575
REMARK  5 active torsions:
REMARK  status: ('A' for Active; 'I' for Inactive)
REMARK    1  A    between atoms: C_2  and  N_3 
REMARK    2  A    between atoms: C_2  and  C_16 
REMARK    3  A    between atoms: N_3  and  C_6 
REMARK    4  A    between atoms: C_6  and  C_7 
REMARK    5  A    between atoms: C_19  and  C_20 
ROOT
HETATM    1  C   UNL     1     -44.158  57.802 -53.360  1.00  0.00     0.049 C 
HETATM    2  C   UNL     1     -43.728  57.343 -54.750  1.00  0.00     0.260 C 
ENDROOT
BRANCH   2   3
HETATM    3  N   UNL     1     -44.938  57.274 -55.649  1.00  0.00    -0.060 N 
HETATM    4  H   UNL     1     -44.941  56.339 -56.089  1.00  0.00     0.278 HD
HETATM    5  H   UNL     1     -45.794  57.275 -55.079  1.00  0.00     0.278 HD
BRANCH   3   6
HETATM    6  C   UNL     1     -45.038  58.273 -56.744  1.00  0.00     0.274 C 
BRANCH   6   7
HETATM    7  C   UNL     1     -45.397  57.636 -58.049  1.00  0.00     0.004 A 
HETATM    8  C   UNL     1     -44.438  56.999 -58.821  1.00  0.00     0.113 A 
HETATM    9  C   UNL     1     -44.733  56.424 -60.034  1.00  0.00     0.105 A 
HETATM   10  O   UNL     1     -43.127  56.843 -58.479  1.00  0.00    -0.322 OA
HETATM   11  O   UNL     1     -43.648  55.855 -60.617  1.00  0.00    -0.323 OA
HETATM   12  C   UNL     1     -46.009  56.444 -60.552  1.00  0.00     0.040 A 
HETATM   13  C   UNL     1     -42.617  56.175 -59.667  1.00  0.00     0.352 A 
HETATM   14  C   UNL     1     -47.003  57.078 -59.804  1.00  0.00     0.003 A 
HETATM   15  C   UNL     1     -46.702  57.672 -58.563  1.00  0.00     0.012 A 
ENDBRANCH   6   7
ENDBRANCH   3   6
ENDBRANCH   2   3
BRANCH   2  16
HETATM   16  C   UNL     1     -43.063  56.010 -54.678  1.00  0.00     0.203 A 
HETATM   17  O   UNL     1     -43.261  55.151 -55.709  1.00  0.00    -0.194 OA
HETATM   18  N   UNL     1     -42.527  54.010 -55.413  1.00  0.00    -0.106 NA
HETATM   19  C   UNL     1     -41.960  54.279 -54.224  1.00  0.00     0.189 A 
HETATM   20  N   UNL     1     -42.292  55.529 -53.727  1.00  0.00    -0.202 NA
BRANCH  19  21
HETATM   21  C   UNL     1     -41.072  53.363 -53.517  1.00  0.00     0.017 A 
HETATM   22  C   UNL     1     -40.518  52.263 -54.183  1.00  0.00     0.057 A 
HETATM   23  C   UNL     1     -39.676  51.389 -53.502  1.00  0.00     0.117 A 
HETATM   24  F   UNL     1     -39.153  50.344 -54.155  1.00  0.00    -0.206 F 
HETATM   25  C   UNL     1     -39.371  51.581 -52.161  1.00  0.00     0.042 A 
HETATM   26  C   UNL     1     -39.916  52.671 -51.485  1.00  0.00     0.004 A 
HETATM   27  C   UNL     1     -40.761  53.557 -52.161  1.00  0.00     0.016 A 
ENDBRANCH  19  21
ENDBRANCH   2  16
TORSDOF 5
ENDMDL
MODEL 7
REMARK VINA RESULT:      -7.6      3.072      5.435
REMARK  5 active torsions:
REMARK  status: ('A' for Active; 'I' for Inactive)
REMARK    1  A    between atoms: C_2  and  N_3 
REMARK    2  A    between atoms: C_2  and  C_16 
REMARK    3  A    between atoms: N_3  and  C_6 
REMARK    4  A    between atoms: C_6  and  C_7 
REMARK    5  A    between atoms: C_19  and  C_20 
ROOT
HETATM    1  C   UNL     1     -41.509  58.091 -53.721  1.00  0.00     0.049 C 
HETATM    2  C   UNL     1     -41.263  56.911 -54.657  1.00  0.00     0.260 C 
ENDROOT
BRANCH   2   3
HETATM    3  N   UNL     1     -42.460  56.734 -55.559  1.00  0.00    -0.060 N 
HETATM    4  H   UNL     1     -42.426  55.768 -55.927  1.00  0.00     0.278 HD
HETATM    5  H   UNL     1     -43.322  56.748 -54.998  1.00  0.00     0.278 HD
BRANCH   3   6
HETATM    6  C   UNL     1     -42.581  57.643 -56.727  1.00  0.00     0.274 C 
BRANCH   6   7
HETATM    7  C   UNL     1     -43.361  57.020 -57.841  1.00  0.00     0.004 A 
HETATM    8  C   UNL     1     -44.642  57.453 -58.147  1.00  0.00     0.113 A 
HETATM    9  C   UNL     1     -45.391  56.884 -59.150  1.00  0.00     0.105 A 
HETATM   10  O   UNL     1     -45.294  58.480 -57.532  1.00  0.00    -0.322 OA
HETATM   11  O   UNL     1     -46.611  57.464 -59.279  1.00  0.00    -0.323 OA
HETATM   12  C   UNL     1     -44.905  55.848 -59.915  1.00  0.00     0.040 A 
HETATM   13  C   UNL     1     -46.578  58.430 -58.214  1.00  0.00     0.352 A 
HETATM   14  C   UNL     1     -43.619  55.382 -59.636  1.00  0.00     0.003 A 
HETATM   15  C   UNL     1     -42.851  55.959 -58.607  1.00  0.00     0.012 A 
ENDBRANCH   6   7
ENDBRANCH   3   6
ENDBRANCH   2   3
BRANCH   2  16
HETATM   16  C   UNL     1     -41.017  55.665 -53.875  1.00  0.00     0.203 A 
HETATM   17  O   UNL     1     -41.195  55.719 -52.531  1.00  0.00    -0.194 OA
HETATM   18  N   UNL     1     -40.928  54.444 -52.051  1.00  0.00    -0.106 NA
HETATM   19  C   UNL     1     -40.604  53.737 -53.147  1.00  0.00     0.189 A 
HETATM   20  N   UNL     1     -40.636  54.485 -54.313  1.00  0.00    -0.202 NA
BRANCH  19  21
HETATM   21  C   UNL     1     -40.259  52.320 -53.132  1.00  0.00     0.017 A 
HETATM   22  C   UNL     1     -39.774  51.724 -51.961  1.00  0.00     0.057 A 
HETATM   23  C   UNL     1     -39.441  50.373 -51.954  1.00  0.00     0.117 A 
HETATM   24  F   UNL     1     -38.982  49.820 -50.825  1.00  0.00    -0.206 F 
HETATM   25  C   UNL     1     -39.576  49.592 -53.095  1.00  0.00     0.042 A 
HETATM   26  C   UNL     1     -40.055  50.172 -54.267  1.00  0.00     0.004 A 
HETATM   27  C   UNL     1     -40.396  51.528 -54.285  1.00  0.00     0.016 A 
ENDBRANCH  19  21
ENDBRANCH   2  16
TORSDOF 5
ENDMDL
MODEL 8
REMARK VINA RESULT:      -7.5      3.002      6.427
REMARK  5 active torsions:
REMARK  status: ('A' for Active; 'I' for Inactive)
REMARK    1  A    between atoms: C_2  and  N_3 
REMARK    2  A    between atoms: C_2  and  C_16 
REMARK    3  A    between atoms: N_3  and  C_6 
REMARK    4  A    between atoms: C_6  and  C_7 
REMARK    5  A    between atoms: C_19  and  C_20 
ROOT
HETATM    1  C   UNL     1     -41.073  56.738 -50.416  1.00  0.00     0.049 C 
HETATM    2  C   UNL     1     -42.334  55.962 -50.787  1.00  0.00     0.260 C 
ENDROOT
BRANCH   2   3
HETATM    3  N   UNL     1     -42.020  54.486 -50.820  1.00  0.00    -0.060 N 
HETATM    4  H   UNL     1     -42.376  54.077 -49.940  1.00  0.00     0.278 HD
HETATM    5  H   UNL     1     -42.587  54.028 -51.546  1.00  0.00     0.278 HD
BRANCH   3   6
HETATM    6  C   UNL     1     -40.593  54.090 -50.942  1.00  0.00     0.274 C 
BRANCH   6   7
HETATM    7  C   UNL     1     -40.379  53.115 -52.056  1.00  0.00     0.004 A 
HETATM    8  C   UNL     1     -40.054  51.793 -51.796  1.00  0.00     0.113 A 
HETATM    9  C   UNL     1     -39.829  50.880 -52.798  1.00  0.00     0.105 A 
HETATM   10  O   UNL     1     -39.941  51.238 -50.555  1.00  0.00    -0.322 OA
HETATM   11  O   UNL     1     -39.528  49.646 -52.319  1.00  0.00    -0.323 OA
HETATM   12  C   UNL     1     -39.921  51.229 -54.127  1.00  0.00     0.040 A 
HETATM   13  C   UNL     1     -39.534  49.885 -50.901  1.00  0.00     0.352 A 
HETATM   14  C   UNL     1     -40.246  52.552 -54.430  1.00  0.00     0.003 A 
HETATM   15  C   UNL     1     -40.471  53.491 -53.405  1.00  0.00     0.012 A 
ENDBRANCH   6   7
ENDBRANCH   3   6
ENDBRANCH   2   3
BRANCH   2  16
HETATM   16  C   UNL     1     -42.853  56.409 -52.112  1.00  0.00     0.203 A 
HETATM   17  O   UNL     1     -44.149  56.805 -52.180  1.00  0.00    -0.194 OA
HETATM   18  N   UNL     1     -44.372  57.186 -53.496  1.00  0.00    -0.106 NA
HETATM   19  C   UNL     1     -43.193  56.977 -54.107  1.00  0.00     0.189 A 
HETATM   20  N   UNL     1     -42.218  56.471 -53.262  1.00  0.00    -0.202 NA
BRANCH  19  21
HETATM   21  C   UNL     1     -42.942  57.257 -55.517  1.00  0.00     0.017 A 
HETATM   22  C   UNL     1     -43.084  56.243 -56.472  1.00  0.00     0.057 A 
HETATM   23  C   UNL     1     -42.838  56.514 -57.815  1.00  0.00     0.117 A 
HETATM   24  F   UNL     1     -42.981  55.534 -58.715  1.00  0.00    -0.206 F 
HETATM   25  C   UNL     1     -42.447  57.779 -58.235  1.00  0.00     0.042 A 
HETATM   26  C   UNL     1     -42.301  58.796 -57.295  1.00  0.00     0.004 A 
HETATM   27  C   UNL     1     -42.549  58.537 -55.943  1.00  0.00     0.016 A 
ENDBRANCH  19  21
ENDBRANCH   2  16
TORSDOF 5
ENDMDL
MODEL 9
REMARK VINA RESULT:      -7.4      3.677      6.564
REMARK  5 active torsions:
REMARK  status: ('A' for Active; 'I' for Inactive)
REMARK    1  A    between atoms: C_2  and  N_3 
REMARK    2  A    between atoms: C_2  and  C_16 
REMARK    3  A    between atoms: N_3  and  C_6 
REMARK    4  A    between atoms: C_6  and  C_7 
REMARK    5  A    between atoms: C_19  and  C_20 
ROOT
HETATM    1  C   UNL     1     -41.122  57.564 -53.825  1.00  0.00     0.049 C 
HETATM    2  C   UNL     1     -41.826  56.382 -54.483  1.00  0.00     0.260 C 
ENDROOT
BRANCH   2   3
HETATM    3  N   UNL     1     -40.828  55.272 -54.714  1.00  0.00    -0.060 N 
HETATM    4  H   UNL     1     -40.325  55.489 -55.590  1.00  0.00     0.278 HD
HETATM    5  H   UNL     1     -40.091  55.315 -53.997  1.00  0.00     0.278 HD
BRANCH   3   6
HETATM    6  C   UNL     1     -41.355  53.890 -54.841  1.00  0.00     0.274 C 
BRANCH   6   7
HETATM    7  C   UNL     1     -40.715  52.957 -53.863  1.00  0.00     0.004 A 
HETATM    8  C   UNL     1     -40.578  53.304 -52.527  1.00  0.00     0.113 A 
HETATM    9  C   UNL     1     -39.975  52.478 -51.610  1.00  0.00     0.105 A 
HETATM   10  O   UNL     1     -41.031  54.460 -51.964  1.00  0.00    -0.322 OA
HETATM   11  O   UNL     1     -39.952  53.014 -50.364  1.00  0.00    -0.323 OA
HETATM   12  C   UNL     1     -39.472  51.247 -51.968  1.00  0.00     0.040 A 
HETATM   13  C   UNL     1     -40.561  54.295 -50.597  1.00  0.00     0.352 A 
HETATM   14  C   UNL     1     -39.589  50.861 -53.305  1.00  0.00     0.003 A 
HETATM   15  C   UNL     1     -40.202  51.708 -54.248  1.00  0.00     0.012 A 
ENDBRANCH   6   7
ENDBRANCH   3   6
ENDBRANCH   2   3
BRANCH   2  16
HETATM   16  C   UNL     1     -42.445  56.794 -55.776  1.00  0.00     0.203 A 
HETATM   17  O   UNL     1     -41.990  57.933 -56.357  1.00  0.00    -0.194 OA
HETATM   18  N   UNL     1     -42.703  58.078 -57.539  1.00  0.00    -0.106 NA
HETATM   19  C   UNL     1     -43.530  57.020 -57.562  1.00  0.00     0.189 A 
HETATM   20  N   UNL     1     -43.402  56.198 -56.453  1.00  0.00    -0.202 NA
BRANCH  19  21
HETATM   21  C   UNL     1     -44.472  56.741 -58.641  1.00  0.00     0.017 A 
HETATM   22  C   UNL     1     -44.197  55.731 -59.571  1.00  0.00     0.057 A 
HETATM   23  C   UNL     1     -45.096  55.472 -60.602  1.00  0.00     0.117 A 
HETATM   24  F   UNL     1     -44.819  54.501 -61.481  1.00  0.00    -0.206 F 
HETATM   25  C   UNL     1     -46.270  56.202 -60.734  1.00  0.00     0.042 A 
HETATM   26  C   UNL     1     -46.555  57.210 -59.817  1.00  0.00     0.004 A 
HETATM   27  C   UNL     1     -45.661  57.477 -58.775  1.00  0.00     0.016 A 
ENDBRANCH  19  21
ENDBRANCH   2  16
TORSDOF 5
ENDMDL
MODEL 10
REMARK VINA RESULT:      -7.3      2.786      5.321
REMARK  5 active torsions:
REMARK  status: ('A' for Active; 'I' for Inactive)
REMARK    1  A    between atoms: C_2  and  N_3 
REMARK    2  A    between atoms: C_2  and  C_16 
REMARK    3  A    between atoms: N_3  and  C_6 
REMARK    4  A    between atoms: C_6  and  C_7 
REMARK    5  A    between atoms: C_19  and  C_20 
ROOT
HETATM    1  C   UNL     1     -42.623  58.187 -53.652  1.00  0.00     0.049 C 
HETATM    2  C   UNL     1     -41.928  57.168 -54.551  1.00  0.00     0.260 C 
ENDROOT
BRANCH   2   3
HETATM    3  N   UNL     1     -42.723  57.002 -55.823  1.00  0.00    -0.060 N 
HETATM    4  H   UNL     1     -42.046  56.865 -56.592  1.00  0.00     0.278 HD
HETATM    5  H   UNL     1     -43.238  56.112 -55.796  1.00  0.00     0.278 HD
BRANCH   3   6
HETATM    6  C   UNL     1     -43.621  58.115 -56.223  1.00  0.00     0.274 C 
BRANCH   6   7
HETATM    7  C   UNL     1     -44.449  57.762 -57.417  1.00  0.00     0.004 A 
HETATM    8  C   UNL     1     -43.888  57.129 -58.515  1.00  0.00     0.113 A 
HETATM    9  C   UNL     1     -44.619  56.813 -59.635  1.00  0.00     0.105 A 
HETATM   10  O   UNL     1     -42.587  56.731 -58.615  1.00  0.00    -0.322 OA
HETATM   11  O   UNL     1     -43.871  56.197 -60.586  1.00  0.00    -0.323 OA
HETATM   12  C   UNL     1     -45.961  57.104 -59.728  1.00  0.00     0.040 A 
HETATM   13  C   UNL     1     -42.572  56.202 -59.971  1.00  0.00     0.352 A 
HETATM   14  C   UNL     1     -46.564  57.741 -58.642  1.00  0.00     0.003 A 
HETATM   15  C   UNL     1     -45.816  58.072 -57.495  1.00  0.00     0.012 A 
ENDBRANCH   6   7
ENDBRANCH   3   6
ENDBRANCH   2   3
BRANCH   2  16
HETATM   16  C   UNL     1     -41.796  55.857 -53.850  1.00  0.00     0.203 A 
HETATM   17  O   UNL     1     -42.663  55.592 -52.841  1.00  0.00    -0.194 OA
HETATM   18  N   UNL     1     -42.346  54.322 -52.379  1.00  0.00    -0.106 NA
HETATM   19  C   UNL     1     -41.311  53.937 -53.145  1.00  0.00     0.189 A 
HETATM   20  N   UNL     1     -40.930  54.893 -54.074  1.00  0.00    -0.202 NA
BRANCH  19  21
HETATM   21  C   UNL     1     -40.646  52.643 -53.032  1.00  0.00     0.017 A 
HETATM   22  C   UNL     1     -40.552  51.800 -54.146  1.00  0.00     0.057 A 
HETATM   23  C   UNL     1     -39.922  50.565 -54.031  1.00  0.00     0.117 A 
HETATM   24  F   UNL     1     -39.838  49.772 -55.107  1.00  0.00    -0.206 F 
HETATM   25  C   UNL     1     -39.381  50.141 -52.824  1.00  0.00     0.042 A 
HETATM   26  C   UNL     1     -39.469  50.969 -51.708  1.00  0.00     0.004 A 
HETATM   27  C   UNL     1     -40.097  52.215 -51.812  1.00  0.00     0.016 A 
ENDBRANCH  19  21
ENDBRANCH   2  16
TORSDOF 5
ENDMDL
