MODEL 1
REMARK VINA RESULT:      -8.1      0.000      0.000
REMARK  7 active torsions:
REMARK  status: ('A' for Active; 'I' for Inactive)
REMARK    1  A    between atoms: O_2  and  C_3 
REMARK    2  A    between atoms: C_5  and  C_6 
REMARK    3  A    between atoms: C_8  and  C_9 
REMARK    4  A    between atoms: C_9  and  N_10 
REMARK    5  A    between atoms: N_10  and  C_13 
REMARK    6  A    between atoms: C_13  and  C_14 
REMARK    7  A    between atoms: C_24  and  O_25 
ROOT
HETATM    1  C   UNL     1     -40.783  53.792 -53.968  1.00  0.00    -0.007 A 
HETATM    2  C   UNL     1     -40.650  53.847 -52.566  1.00  0.00     0.025 A 
HETATM    3  C   UNL     1     -40.147  52.766 -51.819  1.00  0.00     0.001 A 
HETATM    4  C   UNL     1     -39.755  51.614 -52.500  1.00  0.00     0.073 A 
HETATM    5  C   UNL     1     -39.851  51.533 -53.884  1.00  0.00     0.038 A 
HETATM    6  C   UNL     1     -40.366  52.614 -54.609  1.00  0.00     0.016 A 
ENDROOT
BRANCH   3   7
HETATM    7  C   UNL     1     -40.095  52.853 -50.323  1.00  0.00     0.274 C 
BRANCH   7   8
HETATM    8  N   UNL     1     -39.757  54.221 -49.840  1.00  0.00    -0.067 N 
HETATM    9  H   UNL     1     -38.887  54.188 -49.297  1.00  0.00     0.277 HD
HETATM   10  H   UNL     1     -39.560  54.827 -50.646  1.00  0.00     0.277 HD
BRANCH   8  11
HETATM   11  C   UNL     1     -40.804  54.880 -49.006  1.00  0.00     0.272 C 
BRANCH  11  12
HETATM   12  C   UNL     1     -41.847  55.509 -49.893  1.00  0.00    -0.022 A 
HETATM   13  C   UNL     1     -41.672  56.806 -50.462  1.00  0.00    -0.018 A 
HETATM   14  C   UNL     1     -42.743  57.366 -51.205  1.00  0.00    -0.025 A 
HETATM   15  C   UNL     1     -40.493  57.583 -50.333  1.00  0.00     0.013 A 
HETATM   16  C   UNL     1     -42.619  58.644 -51.771  1.00  0.00     0.012 A 
HETATM   17  C   UNL     1     -43.931  56.643 -51.378  1.00  0.00     0.012 A 
HETATM   18  C   UNL     1     -41.448  59.385 -51.621  1.00  0.00     0.001 A 
HETATM   19  C   UNL     1     -40.385  58.852 -50.907  1.00  0.00     0.001 A 
HETATM   20  C   UNL     1     -44.086  55.374 -50.827  1.00  0.00     0.002 A 
HETATM   21  C   UNL     1     -43.055  54.812 -50.085  1.00  0.00     0.010 A 
ENDBRANCH  11  12
ENDBRANCH   8  11
ENDBRANCH   7   8
ENDBRANCH   3   7
BRANCH   4  22
HETATM   22  O   UNL     1     -39.309  50.550 -51.772  1.00  0.00    -0.360 OA
HETATM   23  H   UNL     1     -40.034  49.899 -51.689  1.00  0.00     0.217 HD
ENDBRANCH   4  22
BRANCH   1  24
HETATM   24  C   UNL     1     -41.375  54.931 -54.700  1.00  0.00     0.070 A 
HETATM   25  N   UNL     1     -42.039  54.594 -55.839  1.00  0.00    -0.224 NA
HETATM   26  C   UNL     1     -42.592  55.599 -56.558  1.00  0.00     0.164 A 
HETATM   27  C   UNL     1     -42.522  56.934 -56.199  1.00  0.00     0.058 A 
HETATM   28  C   UNL     1     -41.851  57.265 -55.031  1.00  0.00     0.007 A 
HETATM   29  C   UNL     1     -41.270  56.253 -54.270  1.00  0.00     0.032 A 
BRANCH  26  30
HETATM   30  O   UNL     1     -43.277  55.322 -57.723  1.00  0.00    -0.339 OA
HETATM   31  C   UNL     1     -43.243  56.381 -58.670  1.00  0.00     0.211 C 
ENDBRANCH  26  30
ENDBRANCH   1  24
TORSDOF 7
ENDMDL
MODEL 2
REMARK VINA RESULT:      -8.0      2.257      4.652
REMARK  7 active torsions:
REMARK  status: ('A' for Active; 'I' for Inactive)
REMARK    1  A    between atoms: O_2  and  C_3 
REMARK    2  A    between atoms: C_5  and  C_6 
REMARK    3  A    between atoms: C_8  and  C_9 
REMARK    4  A    between atoms: C_9  and  N_10 
REMARK    5  A    between atoms: N_10  and  C_13 
REMARK    6  A    between atoms: C_13  and  C_14 
REMARK    7  A    between atoms: C_24  and  O_25 
ROOT
HETATM    1  C   UNL     1     -43.113  56.097 -56.191  1.00  0.00    -0.007 A 
HETATM    2  C   UNL     1     -43.307  56.876 -55.034  1.00  0.00     0.025 A 
HETATM    3  C   UNL     1     -43.608  56.300 -53.786  1.00  0.00     0.001 A 
HETATM    4  C   UNL     1     -43.697  54.911 -53.700  1.00  0.00     0.073 A 
HETATM    5  C   UNL     1     -43.487  54.110 -54.816  1.00  0.00     0.038 A 
HETATM    6  C   UNL     1     -43.203  54.702 -56.052  1.00  0.00     0.016 A 
ENDROOT
BRANCH   3   7
HETATM    7  C   UNL     1     -43.877  57.182 -52.603  1.00  0.00     0.274 C 
BRANCH   7   8
HETATM    8  N   UNL     1     -42.805  57.099 -51.572  1.00  0.00    -0.067 N 
HETATM    9  H   UNL     1     -42.665  58.022 -51.147  1.00  0.00     0.277 HD
HETATM   10  H   UNL     1     -43.114  56.486 -50.808  1.00  0.00     0.277 HD
BRANCH   8  11
HETATM   11  C   UNL     1     -41.485  56.606 -52.063  1.00  0.00     0.272 C 
BRANCH  11  12
HETATM   12  C   UNL     1     -41.019  55.453 -51.211  1.00  0.00    -0.022 A 
HETATM   13  C   UNL     1     -40.594  54.216 -51.782  1.00  0.00    -0.018 A 
HETATM   14  C   UNL     1     -40.264  53.148 -50.908  1.00  0.00    -0.025 A 
HETATM   15  C   UNL     1     -40.479  53.975 -53.175  1.00  0.00     0.013 A 
HETATM   16  C   UNL     1     -39.854  51.911 -51.427  1.00  0.00     0.012 A 
HETATM   17  C   UNL     1     -40.345  53.326 -49.520  1.00  0.00     0.012 A 
HETATM   18  C   UNL     1     -39.758  51.705 -52.802  1.00  0.00     0.001 A 
HETATM   19  C   UNL     1     -40.066  52.739 -53.674  1.00  0.00     0.001 A 
HETATM   20  C   UNL     1     -40.751  54.541 -48.975  1.00  0.00     0.002 A 
HETATM   21  C   UNL     1     -41.091  55.595 -49.812  1.00  0.00     0.010 A 
ENDBRANCH  11  12
ENDBRANCH   8  11
ENDBRANCH   7   8
ENDBRANCH   3   7
BRANCH   4  22
HETATM   22  O   UNL     1     -44.031  54.355 -52.500  1.00  0.00    -0.360 OA
HETATM   23  H   UNL     1     -44.834  53.809 -52.619  1.00  0.00     0.217 HD
ENDBRANCH   4  22
BRANCH   1  24
HETATM   24  C   UNL     1     -42.860  56.753 -57.492  1.00  0.00     0.070 A 
HETATM   25  N   UNL     1     -43.369  56.097 -58.570  1.00  0.00    -0.224 NA
HETATM   26  C   UNL     1     -43.158  56.646 -59.789  1.00  0.00     0.164 A 
HETATM   27  C   UNL     1     -42.464  57.826 -59.994  1.00  0.00     0.058 A 
HETATM   28  C   UNL     1     -41.959  58.491 -58.887  1.00  0.00     0.007 A 
HETATM   29  C   UNL     1     -42.158  57.951 -57.619  1.00  0.00     0.032 A 
BRANCH  26  30
HETATM   30  O   UNL     1     -43.647  56.028 -60.921  1.00  0.00    -0.339 OA
HETATM   31  C   UNL     1     -44.819  55.258 -60.688  1.00  0.00     0.211 C 
ENDBRANCH  26  30
ENDBRANCH   1  24
TORSDOF 7
ENDMDL
MODEL 3
REMARK VINA RESULT:      -8.0      2.370      4.868
REMARK  7 active torsions:
REMARK  status: ('A' for Active; 'I' for Inactive)
REMARK    1  A    between atoms: O_2  and  C_3 
REMARK    2  A    between atoms: C_5  and  C_6 
REMARK    3  A    between atoms: C_8  and  C_9 
REMARK    4  A    between atoms: C_9  and  N_10 
REMARK    5  A    between atoms: N_10  and  C_13 
REMARK    6  A    between atoms: C_13  and  C_14 
REMARK    7  A    between atoms: C_24  and  O_25 
ROOT
HETATM    1  C   UNL     1     -42.816  57.140 -55.140  1.00  0.00    -0.007 A 
HETATM    2  C   UNL     1     -43.725  57.176 -54.064  1.00  0.00     0.025 A 
HETATM    3  C   UNL     1     -43.310  57.415 -52.741  1.00  0.00     0.001 A 
HETATM    4  C   UNL     1     -41.955  57.640 -52.501  1.00  0.00     0.073 A 
HETATM    5  C   UNL     1     -41.033  57.635 -53.542  1.00  0.00     0.038 A 
HETATM    6  C   UNL     1     -41.464  57.382 -54.850  1.00  0.00     0.016 A 
ENDROOT
BRANCH   3   7
HETATM    7  C   UNL     1     -44.311  57.370 -51.625  1.00  0.00     0.274 C 
BRANCH   7   8
HETATM    8  N   UNL     1     -43.888  56.473 -50.514  1.00  0.00    -0.067 N 
HETATM    9  H   UNL     1     -42.943  56.728 -50.207  1.00  0.00     0.277 HD
HETATM   10  H   UNL     1     -44.496  56.629 -49.701  1.00  0.00     0.277 HD
BRANCH   8  11
HETATM   11  C   UNL     1     -43.898  55.015 -50.832  1.00  0.00     0.272 C 
BRANCH  11  12
HETATM   12  C   UNL     1     -42.488  54.484 -50.850  1.00  0.00    -0.022 A 
HETATM   13  C   UNL     1     -41.902  53.939 -52.032  1.00  0.00    -0.018 A 
HETATM   14  C   UNL     1     -40.605  53.371 -51.940  1.00  0.00    -0.025 A 
HETATM   15  C   UNL     1     -42.531  53.922 -53.302  1.00  0.00     0.013 A 
HETATM   16  C   UNL     1     -39.997  52.812 -53.075  1.00  0.00     0.012 A 
HETATM   17  C   UNL     1     -39.925  53.367 -50.715  1.00  0.00     0.012 A 
HETATM   18  C   UNL     1     -40.645  52.806 -54.308  1.00  0.00     0.001 A 
HETATM   19  C   UNL     1     -41.910  53.365 -54.422  1.00  0.00     0.001 A 
HETATM   20  C   UNL     1     -40.503  53.911 -49.572  1.00  0.00     0.002 A 
HETATM   21  C   UNL     1     -41.776  54.461 -49.635  1.00  0.00     0.010 A 
ENDBRANCH  11  12
ENDBRANCH   8  11
ENDBRANCH   7   8
ENDBRANCH   3   7
BRANCH   4  22
HETATM   22  O   UNL     1     -41.546  57.828 -51.214  1.00  0.00    -0.360 OA
HETATM   23  H   UNL     1     -42.321  58.072 -50.670  1.00  0.00     0.217 HD
ENDBRANCH   4  22
BRANCH   1  24
HETATM   24  C   UNL     1     -43.294  56.824 -56.503  1.00  0.00     0.070 A 
HETATM   25  N   UNL     1     -44.160  57.732 -57.029  1.00  0.00    -0.224 NA
HETATM   26  C   UNL     1     -44.640  57.487 -58.271  1.00  0.00     0.164 A 
HETATM   27  C   UNL     1     -44.299  56.378 -59.026  1.00  0.00     0.058 A 
HETATM   28  C   UNL     1     -43.408  55.464 -58.483  1.00  0.00     0.007 A 
HETATM   29  C   UNL     1     -42.897  55.687 -57.207  1.00  0.00     0.032 A 
BRANCH  26  30
HETATM   30  O   UNL     1     -45.523  58.369 -58.858  1.00  0.00    -0.339 OA
HETATM   31  C   UNL     1     -46.886  57.989 -58.719  1.00  0.00     0.211 C 
ENDBRANCH  26  30
ENDBRANCH   1  24
TORSDOF 7
ENDMDL
MODEL 4
REMARK VINA RESULT:      -7.9      2.906      5.413
REMARK  7 active torsions:
REMARK  status: ('A' for Active; 'I' for Inactive)
REMARK    1  A    between atoms: O_2  and  C_3 
REMARK    2  A    between atoms: C_5  and  C_6 
REMARK    3  A    between atoms: C_8  and  C_9 
REMARK    4  A    between atoms: C_9  and  N_10 
REMARK    5  A    between atoms: N_10  and  C_13 
REMARK    6  A    between atoms: C_13  and  C_14 
REMARK    7  A    between atoms: C_24  and  O_25 
ROOT
HETATM    1  C   UNL     1     -41.971  58.992 -53.786  1.00  0.00    -0.007 A 
HETATM    2  C   UNL     1     -41.642  57.873 -52.996  1.00  0.00     0.025 A 
HETATM    3  C   UNL     1     -41.486  57.960 -51.601  1.00  0.00     0.001 A 
HETATM    4  C   UNL     1     -41.682  59.197 -50.988  1.00  0.00     0.073 A 
HETATM    5  C   UNL     1     -42.031  60.318 -51.732  1.00  0.00     0.038 A 
HETATM    6  C   UNL     1     -42.168  60.214 -53.121  1.00  0.00     0.016 A 
ENDROOT
BRANCH   3   7
HETATM    7  C   UNL     1     -41.063  56.752 -50.819  1.00  0.00     0.274 C 
BRANCH   7   8
HETATM    8  N   UNL     1     -42.192  56.127 -50.076  1.00  0.00    -0.067 N 
HETATM    9  H   UNL     1     -42.108  56.345 -49.078  1.00  0.00     0.277 HD
HETATM   10  H   UNL     1     -43.076  56.552 -50.381  1.00  0.00     0.277 HD
BRANCH   8  11
HETATM   11  C   UNL     1     -42.311  54.647 -50.223  1.00  0.00     0.272 C 
BRANCH  11  12
HETATM   12  C   UNL     1     -42.331  54.276 -51.684  1.00  0.00    -0.022 A 
HETATM   13  C   UNL     1     -41.358  53.401 -52.254  1.00  0.00    -0.018 A 
HETATM   14  C   UNL     1     -41.389  53.180 -53.655  1.00  0.00    -0.025 A 
HETATM   15  C   UNL     1     -40.351  52.733 -51.512  1.00  0.00     0.013 A 
HETATM   16  C   UNL     1     -40.443  52.338 -54.259  1.00  0.00     0.012 A 
HETATM   17  C   UNL     1     -42.367  53.803 -54.443  1.00  0.00     0.012 A 
HETATM   18  C   UNL     1     -39.462  51.701 -53.502  1.00  0.00     0.001 A 
HETATM   19  C   UNL     1     -39.420  51.895 -52.129  1.00  0.00     0.001 A 
HETATM   20  C   UNL     1     -43.317  54.645 -53.874  1.00  0.00     0.002 A 
HETATM   21  C   UNL     1     -43.297  54.886 -52.506  1.00  0.00     0.010 A 
ENDBRANCH  11  12
ENDBRANCH   8  11
ENDBRANCH   7   8
ENDBRANCH   3   7
BRANCH   4  22
HETATM   22  O   UNL     1     -41.488  59.293 -49.641  1.00  0.00    -0.360 OA
HETATM   23  H   UNL     1     -42.340  59.136 -49.188  1.00  0.00     0.217 HD
ENDBRANCH   4  22
BRANCH   1  24
HETATM   24  C   UNL     1     -42.064  58.860 -55.255  1.00  0.00     0.070 A 
HETATM   25  N   UNL     1     -41.765  59.992 -55.949  1.00  0.00    -0.224 NA
HETATM   26  C   UNL     1     -41.845  59.933 -57.299  1.00  0.00     0.164 A 
HETATM   27  C   UNL     1     -42.205  58.797 -58.003  1.00  0.00     0.058 A 
HETATM   28  C   UNL     1     -42.497  57.647 -57.285  1.00  0.00     0.007 A 
HETATM   29  C   UNL     1     -42.426  57.675 -55.894  1.00  0.00     0.032 A 
BRANCH  26  30
HETATM   30  O   UNL     1     -41.556  61.048 -58.059  1.00  0.00    -0.339 OA
HETATM   31  C   UNL     1     -41.817  60.875 -59.446  1.00  0.00     0.211 C 
ENDBRANCH  26  30
ENDBRANCH   1  24
TORSDOF 7
ENDMDL
MODEL 5
REMARK VINA RESULT:      -7.8      2.295      5.463
REMARK  7 active torsions:
REMARK  status: ('A' for Active; 'I' for Inactive)
REMARK    1  A    between atoms: O_2  and  C_3 
REMARK    2  A    between atoms: C_5  and  C_6 
REMARK    3  A    between atoms: C_8  and  C_9 
REMARK    4  A    between atoms: C_9  and  N_10 
REMARK    5  A    between atoms: N_10  and  C_13 
REMARK    6  A    between atoms: C_13  and  C_14 
REMARK    7  A    between atoms: C_24  and  O_25 
ROOT
HETATM    1  C   UNL     1     -42.435  57.397 -54.146  1.00  0.00    -0.007 A 
HETATM    2  C   UNL     1     -42.855  56.598 -53.064  1.00  0.00     0.025 A 
HETATM    3  C   UNL     1     -42.440  56.847 -51.743  1.00  0.00     0.001 A 
HETATM    4  C   UNL     1     -41.597  57.932 -51.506  1.00  0.00     0.073 A 
HETATM    5  C   UNL     1     -41.180  58.756 -52.546  1.00  0.00     0.038 A 
HETATM    6  C   UNL     1     -41.594  58.484 -53.855  1.00  0.00     0.016 A 
ENDROOT
BRANCH   3   7
HETATM    7  C   UNL     1     -42.860  55.921 -50.641  1.00  0.00     0.274 C 
BRANCH   7   8
HETATM    8  N   UNL     1     -42.341  54.537 -50.826  1.00  0.00    -0.067 N 
HETATM    9  H   UNL     1     -42.586  53.966 -50.011  1.00  0.00     0.277 HD
HETATM   10  H   UNL     1     -42.815  54.100 -51.625  1.00  0.00     0.277 HD
BRANCH   8  11
HETATM   11  C   UNL     1     -40.868  54.433 -51.044  1.00  0.00     0.272 C 
BRANCH  11  12
HETATM   12  C   UNL     1     -40.585  53.518 -52.209  1.00  0.00    -0.022 A 
HETATM   13  C   UNL     1     -40.234  52.148 -52.024  1.00  0.00    -0.018 A 
HETATM   14  C   UNL     1     -39.888  51.381 -53.167  1.00  0.00    -0.025 A 
HETATM   15  C   UNL     1     -40.204  51.492 -50.768  1.00  0.00     0.013 A 
HETATM   16  C   UNL     1     -39.524  50.033 -53.030  1.00  0.00     0.012 A 
HETATM   17  C   UNL     1     -39.910  51.969 -54.440  1.00  0.00     0.012 A 
HETATM   18  C   UNL     1     -39.498  49.420 -51.780  1.00  0.00     0.001 A 
HETATM   19  C   UNL     1     -39.843  50.148 -50.650  1.00  0.00     0.001 A 
HETATM   20  C   UNL     1     -40.265  53.304 -54.608  1.00  0.00     0.002 A 
HETATM   21  C   UNL     1     -40.594  54.076 -53.502  1.00  0.00     0.010 A 
ENDBRANCH  11  12
ENDBRANCH   8  11
ENDBRANCH   7   8
ENDBRANCH   3   7
BRANCH   4  22
HETATM   22  O   UNL     1     -41.158  58.148 -50.233  1.00  0.00    -0.360 OA
HETATM   23  H   UNL     1     -41.345  57.352 -49.697  1.00  0.00     0.217 HD
ENDBRANCH   4  22
BRANCH   1  24
HETATM   24  C   UNL     1     -42.850  57.057 -55.523  1.00  0.00     0.070 A 
HETATM   25  N   UNL     1     -43.583  58.016 -56.151  1.00  0.00    -0.224 NA
HETATM   26  C   UNL     1     -44.001  57.754 -57.411  1.00  0.00     0.164 A 
HETATM   27  C   UNL     1     -43.724  56.579 -58.088  1.00  0.00     0.058 A 
HETATM   28  C   UNL     1     -42.968  55.612 -57.441  1.00  0.00     0.007 A 
HETATM   29  C   UNL     1     -42.524  55.851 -56.143  1.00  0.00     0.032 A 
BRANCH  26  30
HETATM   30  O   UNL     1     -44.749  58.685 -58.100  1.00  0.00    -0.339 OA
HETATM   31  C   UNL     1     -45.176  58.240 -59.381  1.00  0.00     0.211 C 
ENDBRANCH  26  30
ENDBRANCH   1  24
TORSDOF 7
ENDMDL
MODEL 6
REMARK VINA RESULT:      -7.8      2.599      6.730
REMARK  7 active torsions:
REMARK  status: ('A' for Active; 'I' for Inactive)
REMARK    1  A    between atoms: O_2  and  C_3 
REMARK    2  A    between atoms: C_5  and  C_6 
REMARK    3  A    between atoms: C_8  and  C_9 
REMARK    4  A    between atoms: C_9  and  N_10 
REMARK    5  A    between atoms: N_10  and  C_13 
REMARK    6  A    between atoms: C_13  and  C_14 
REMARK    7  A    between atoms: C_24  and  O_25 
ROOT
HETATM    1  C   UNL     1     -42.972  58.273 -53.657  1.00  0.00    -0.007 A 
HETATM    2  C   UNL     1     -43.087  56.876 -53.515  1.00  0.00     0.025 A 
HETATM    3  C   UNL     1     -43.275  56.025 -54.619  1.00  0.00     0.001 A 
HETATM    4  C   UNL     1     -43.331  56.591 -55.892  1.00  0.00     0.073 A 
HETATM    5  C   UNL     1     -43.198  57.964 -56.072  1.00  0.00     0.038 A 
HETATM    6  C   UNL     1     -43.025  58.795 -54.959  1.00  0.00     0.016 A 
ENDROOT
BRANCH   3   7
HETATM    7  C   UNL     1     -43.464  54.553 -54.404  1.00  0.00     0.274 C 
BRANCH   7   8
HETATM    8  N   UNL     1     -42.421  53.736 -55.083  1.00  0.00    -0.067 N 
HETATM    9  H   UNL     1     -42.549  52.747 -54.844  1.00  0.00     0.277 HD
HETATM   10  H   UNL     1     -42.551  53.795 -56.100  1.00  0.00     0.277 HD
BRANCH   8  11
HETATM   11  C   UNL     1     -41.012  54.114 -54.770  1.00  0.00     0.272 C 
BRANCH  11  12
HETATM   12  C   UNL     1     -40.605  53.528 -53.442  1.00  0.00    -0.022 A 
HETATM   13  C   UNL     1     -40.231  52.159 -53.303  1.00  0.00    -0.018 A 
HETATM   14  C   UNL     1     -39.957  51.664 -52.002  1.00  0.00    -0.025 A 
HETATM   15  C   UNL     1     -40.114  51.248 -54.383  1.00  0.00     0.013 A 
HETATM   16  C   UNL     1     -39.598  50.320 -51.818  1.00  0.00     0.012 A 
HETATM   17  C   UNL     1     -40.043  52.517 -50.894  1.00  0.00     0.012 A 
HETATM   18  C   UNL     1     -39.498  49.448 -52.901  1.00  0.00     0.001 A 
HETATM   19  C   UNL     1     -39.751  49.914 -54.183  1.00  0.00     0.001 A 
HETATM   20  C   UNL     1     -40.399  53.854 -51.043  1.00  0.00     0.002 A 
HETATM   21  C   UNL     1     -40.684  54.357 -52.306  1.00  0.00     0.010 A 
ENDBRANCH  11  12
ENDBRANCH   8  11
ENDBRANCH   7   8
ENDBRANCH   3   7
BRANCH   4  22
HETATM   22  O   UNL     1     -43.558  55.772 -56.959  1.00  0.00    -0.360 OA
HETATM   23  H   UNL     1     -42.758  55.230 -57.114  1.00  0.00     0.217 HD
ENDBRANCH   4  22
BRANCH   1  24
HETATM   24  C   UNL     1     -42.837  59.130 -52.460  1.00  0.00     0.070 A 
HETATM   25  N   UNL     1     -41.597  59.136 -51.900  1.00  0.00    -0.224 NA
HETATM   26  C   UNL     1     -41.418  59.895 -50.793  1.00  0.00     0.164 A 
HETATM   27  C   UNL     1     -42.416  60.657 -50.210  1.00  0.00     0.058 A 
HETATM   28  C   UNL     1     -43.673  60.650 -50.795  1.00  0.00     0.007 A 
HETATM   29  C   UNL     1     -43.889  59.879 -51.935  1.00  0.00     0.032 A 
BRANCH  26  30
HETATM   30  O   UNL     1     -40.185  59.942 -50.178  1.00  0.00    -0.339 OA
HETATM   31  C   UNL     1     -39.155  59.295 -50.915  1.00  0.00     0.211 C 
ENDBRANCH  26  30
ENDBRANCH   1  24
TORSDOF 7
ENDMDL
MODEL 7
REMARK VINA RESULT:      -7.8      2.697      6.404
REMARK  7 active torsions:
REMARK  status: ('A' for Active; 'I' for Inactive)
REMARK    1  A    between atoms: O_2  and  C_3 
REMARK    2  A    between atoms: C_5  and  C_6 
REMARK    3  A    between atoms: C_8  and  C_9 
REMARK    4  A    between atoms: C_9  and  N_10 
REMARK    5  A    between atoms: N_10  and  C_13 
REMARK    6  A    between atoms: C_13  and  C_14 
REMARK    7  A    between atoms: C_24  and  O_25 
ROOT
HETATM    1  C   UNL     1     -41.739  58.884 -54.251  1.00  0.00    -0.007 A 
HETATM    2  C   UNL     1     -41.865  57.561 -54.718  1.00  0.00     0.025 A 
HETATM    3  C   UNL     1     -42.295  57.266 -56.025  1.00  0.00     0.001 A 
HETATM    4  C   UNL     1     -42.586  58.326 -56.883  1.00  0.00     0.073 A 
HETATM    5  C   UNL     1     -42.451  59.645 -56.463  1.00  0.00     0.038 A 
HETATM    6  C   UNL     1     -42.035  59.917 -55.155  1.00  0.00     0.016 A 
ENDROOT
BRANCH   3   7
HETATM    7  C   UNL     1     -42.481  55.839 -56.446  1.00  0.00     0.274 C 
BRANCH   7   8
HETATM    8  N   UNL     1     -41.624  54.898 -55.673  1.00  0.00    -0.067 N 
HETATM    9  H   UNL     1     -41.023  54.372 -56.317  1.00  0.00     0.277 HD
HETATM   10  H   UNL     1     -40.986  55.433 -55.072  1.00  0.00     0.277 HD
BRANCH   8  11
HETATM   11  C   UNL     1     -42.360  53.921 -54.818  1.00  0.00     0.272 C 
BRANCH  11  12
HETATM   12  C   UNL     1     -41.421  53.312 -53.809  1.00  0.00    -0.022 A 
HETATM   13  C   UNL     1     -41.177  53.920 -52.541  1.00  0.00    -0.018 A 
HETATM   14  C   UNL     1     -40.205  53.335 -51.689  1.00  0.00    -0.025 A 
HETATM   15  C   UNL     1     -41.842  55.080 -52.069  1.00  0.00     0.013 A 
HETATM   16  C   UNL     1     -39.924  53.907 -50.439  1.00  0.00     0.012 A 
HETATM   17  C   UNL     1     -39.521  52.180 -52.092  1.00  0.00     0.012 A 
HETATM   18  C   UNL     1     -40.592  55.052 -50.007  1.00  0.00     0.001 A 
HETATM   19  C   UNL     1     -41.553  55.634 -50.820  1.00  0.00     0.001 A 
HETATM   20  C   UNL     1     -39.776  51.590 -53.327  1.00  0.00     0.002 A 
HETATM   21  C   UNL     1     -40.713  52.153 -54.182  1.00  0.00     0.010 A 
ENDBRANCH  11  12
ENDBRANCH   8  11
ENDBRANCH   7   8
ENDBRANCH   3   7
BRANCH   4  22
HETATM   22  O   UNL     1     -43.045  58.042 -58.135  1.00  0.00    -0.360 OA
HETATM   23  H   UNL     1     -43.217  57.081 -58.196  1.00  0.00     0.217 HD
ENDBRANCH   4  22
BRANCH   1  24
HETATM   24  C   UNL     1     -41.344  59.139 -52.850  1.00  0.00     0.070 A 
HETATM   25  N   UNL     1     -42.272  59.800 -52.106  1.00  0.00    -0.224 NA
HETATM   26  C   UNL     1     -41.959  60.072 -50.817  1.00  0.00     0.164 A 
HETATM   27  C   UNL     1     -40.761  59.715 -50.223  1.00  0.00     0.058 A 
HETATM   28  C   UNL     1     -39.826  59.034 -50.988  1.00  0.00     0.007 A 
HETATM   29  C   UNL     1     -40.118  58.740 -52.317  1.00  0.00     0.032 A 
BRANCH  26  30
HETATM   30  O   UNL     1     -42.858  60.740 -50.013  1.00  0.00    -0.339 OA
HETATM   31  C   UNL     1     -44.128  60.938 -50.620  1.00  0.00     0.211 C 
ENDBRANCH  26  30
ENDBRANCH   1  24
TORSDOF 7
ENDMDL
MODEL 8
REMARK VINA RESULT:      -7.8      2.426      5.153
REMARK  7 active torsions:
REMARK  status: ('A' for Active; 'I' for Inactive)
REMARK    1  A    between atoms: O_2  and  C_3 
REMARK    2  A    between atoms: C_5  and  C_6 
REMARK    3  A    between atoms: C_8  and  C_9 
REMARK    4  A    between atoms: C_9  and  N_10 
REMARK    5  A    between atoms: N_10  and  C_13 
REMARK    6  A    between atoms: C_13  and  C_14 
REMARK    7  A    between atoms: C_24  and  O_25 
ROOT
HETATM    1  C   UNL     1     -43.894  58.198 -54.265  1.00  0.00    -0.007 A 
HETATM    2  C   UNL     1     -43.650  57.108 -53.407  1.00  0.00     0.025 A 
HETATM    3  C   UNL     1     -44.112  57.081 -52.079  1.00  0.00     0.001 A 
HETATM    4  C   UNL     1     -44.850  58.169 -51.611  1.00  0.00     0.073 A 
HETATM    5  C   UNL     1     -45.130  59.252 -52.437  1.00  0.00     0.038 A 
HETATM    6  C   UNL     1     -44.649  59.265 -53.751  1.00  0.00     0.016 A 
ENDROOT
BRANCH   3   7
HETATM    7  C   UNL     1     -43.761  55.927 -51.188  1.00  0.00     0.274 C 
BRANCH   7   8
HETATM    8  N   UNL     1     -42.681  56.259 -50.220  1.00  0.00    -0.067 N 
HETATM    9  H   UNL     1     -42.878  57.166 -49.782  1.00  0.00     0.277 HD
HETATM   10  H   UNL     1     -42.686  55.574 -49.455  1.00  0.00     0.277 HD
BRANCH   8  11
HETATM   11  C   UNL     1     -41.303  56.308 -50.792  1.00  0.00     0.272 C 
BRANCH  11  12
HETATM   12  C   UNL     1     -40.860  54.921 -51.182  1.00  0.00    -0.022 A 
HETATM   13  C   UNL     1     -40.687  54.539 -52.546  1.00  0.00    -0.018 A 
HETATM   14  C   UNL     1     -40.363  53.188 -52.832  1.00  0.00    -0.025 A 
HETATM   15  C   UNL     1     -40.821  55.423 -53.647  1.00  0.00     0.013 A 
HETATM   16  C   UNL     1     -40.197  52.766 -54.160  1.00  0.00     0.012 A 
HETATM   17  C   UNL     1     -40.206  52.267 -51.787  1.00  0.00     0.012 A 
HETATM   18  C   UNL     1     -40.341  53.659 -55.220  1.00  0.00     0.001 A 
HETATM   19  C   UNL     1     -40.648  54.987 -54.963  1.00  0.00     0.001 A 
HETATM   20  C   UNL     1     -40.366  52.654 -50.460  1.00  0.00     0.002 A 
HETATM   21  C   UNL     1     -40.697  53.969 -50.158  1.00  0.00     0.010 A 
ENDBRANCH  11  12
ENDBRANCH   8  11
ENDBRANCH   7   8
ENDBRANCH   3   7
BRANCH   4  22
HETATM   22  O   UNL     1     -45.261  58.164 -50.311  1.00  0.00    -0.360 OA
HETATM   23  H   UNL     1     -44.613  58.662 -49.774  1.00  0.00     0.217 HD
ENDBRANCH   4  22
BRANCH   1  24
HETATM   24  C   UNL     1     -43.333  58.205 -55.632  1.00  0.00     0.070 A 
HETATM   25  N   UNL     1     -43.582  57.079 -56.356  1.00  0.00    -0.224 NA
HETATM   26  C   UNL     1     -43.082  57.024 -57.613  1.00  0.00     0.164 A 
HETATM   27  C   UNL     1     -42.344  58.040 -58.195  1.00  0.00     0.058 A 
HETATM   28  C   UNL     1     -42.105  59.187 -57.451  1.00  0.00     0.007 A 
HETATM   29  C   UNL     1     -42.606  59.273 -56.155  1.00  0.00     0.032 A 
BRANCH  26  30
HETATM   30  O   UNL     1     -43.298  55.910 -58.396  1.00  0.00    -0.339 OA
HETATM   31  C   UNL     1     -42.707  55.996 -59.686  1.00  0.00     0.211 C 
ENDBRANCH  26  30
ENDBRANCH   1  24
TORSDOF 7
ENDMDL
MODEL 9
REMARK VINA RESULT:      -7.8      2.834      5.817
REMARK  7 active torsions:
REMARK  status: ('A' for Active; 'I' for Inactive)
REMARK    1  A    between atoms: O_2  and  C_3 
REMARK    2  A    between atoms: C_5  and  C_6 
REMARK    3  A    between atoms: C_8  and  C_9 
REMARK    4  A    between atoms: C_9  and  N_10 
REMARK    5  A    between atoms: N_10  and  C_13 
REMARK    6  A    between atoms: C_13  and  C_14 
REMARK    7  A    between atoms: C_24  and  O_25 
ROOT
HETATM    1  C   UNL     1     -43.139  57.708 -56.974  1.00  0.00    -0.007 A 
HETATM    2  C   UNL     1     -42.746  57.064 -55.784  1.00  0.00     0.025 A 
HETATM    3  C   UNL     1     -42.074  57.743 -54.752  1.00  0.00     0.001 A 
HETATM    4  C   UNL     1     -41.807  59.102 -54.915  1.00  0.00     0.073 A 
HETATM    5  C   UNL     1     -42.200  59.775 -56.066  1.00  0.00     0.038 A 
HETATM    6  C   UNL     1     -42.856  59.079 -57.088  1.00  0.00     0.016 A 
ENDROOT
BRANCH   3   7
HETATM    7  C   UNL     1     -41.615  56.991 -53.538  1.00  0.00     0.274 C 
BRANCH   7   8
HETATM    8  N   UNL     1     -42.740  56.612 -52.640  1.00  0.00    -0.067 N 
HETATM    9  H   UNL     1     -42.537  56.923 -51.684  1.00  0.00     0.277 HD
HETATM   10  H   UNL     1     -43.587  57.120 -52.923  1.00  0.00     0.277 HD
BRANCH   8  11
HETATM   11  C   UNL     1     -43.062  55.156 -52.600  1.00  0.00     0.272 C 
BRANCH  11  12
HETATM   12  C   UNL     1     -42.009  54.419 -51.812  1.00  0.00    -0.022 A 
HETATM   13  C   UNL     1     -41.183  53.419 -52.406  1.00  0.00    -0.018 A 
HETATM   14  C   UNL     1     -40.284  52.705 -51.573  1.00  0.00    -0.025 A 
HETATM   15  C   UNL     1     -41.198  53.084 -53.784  1.00  0.00     0.013 A 
HETATM   16  C   UNL     1     -39.462  51.704 -52.114  1.00  0.00     0.012 A 
HETATM   17  C   UNL     1     -40.213  52.996 -50.204  1.00  0.00     0.012 A 
HETATM   18  C   UNL     1     -39.506  51.395 -53.472  1.00  0.00     0.001 A 
HETATM   19  C   UNL     1     -40.370  52.089 -54.307  1.00  0.00     0.001 A 
HETATM   20  C   UNL     1     -41.017  53.981 -49.638  1.00  0.00     0.002 A 
HETATM   21  C   UNL     1     -41.913  54.684 -50.432  1.00  0.00     0.010 A 
ENDBRANCH  11  12
ENDBRANCH   8  11
ENDBRANCH   7   8
ENDBRANCH   3   7
BRANCH   4  22
HETATM   22  O   UNL     1     -41.116  59.751 -53.935  1.00  0.00    -0.360 OA
HETATM   23  H   UNL     1     -40.358  59.196 -53.664  1.00  0.00     0.217 HD
ENDBRANCH   4  22
BRANCH   1  24
HETATM   24  C   UNL     1     -43.788  56.936 -58.055  1.00  0.00     0.070 A 
HETATM   25  N   UNL     1     -44.977  57.442 -58.482  1.00  0.00    -0.224 NA
HETATM   26  C   UNL     1     -45.623  56.768 -59.463  1.00  0.00     0.164 A 
HETATM   27  C   UNL     1     -45.143  55.610 -60.049  1.00  0.00     0.058 A 
HETATM   28  C   UNL     1     -43.925  55.109 -59.612  1.00  0.00     0.007 A 
HETATM   29  C   UNL     1     -43.237  55.779 -58.603  1.00  0.00     0.032 A 
BRANCH  26  30
HETATM   30  O   UNL     1     -46.832  57.230 -59.938  1.00  0.00    -0.339 OA
HETATM   31  C   UNL     1     -47.366  56.444 -60.997  1.00  0.00     0.211 C 
ENDBRANCH  26  30
ENDBRANCH   1  24
TORSDOF 7
ENDMDL
MODEL 10
REMARK VINA RESULT:      -7.6      3.539      7.118
REMARK  7 active torsions:
REMARK  status: ('A' for Active; 'I' for Inactive)
REMARK    1  A    between atoms: O_2  and  C_3 
REMARK    2  A    between atoms: C_5  and  C_6 
REMARK    3  A    between atoms: C_8  and  C_9 
REMARK    4  A    between atoms: C_9  and  N_10 
REMARK    5  A    between atoms: N_10  and  C_13 
REMARK    6  A    between atoms: C_13  and  C_14 
REMARK    7  A    between atoms: C_24  and  O_25 
ROOT
HETATM    1  C   UNL     1     -42.445  58.404 -59.540  1.00  0.00    -0.007 A 
HETATM    2  C   UNL     1     -42.294  58.027 -58.191  1.00  0.00     0.025 A 
HETATM    3  C   UNL     1     -42.772  56.799 -57.699  1.00  0.00     0.001 A 
HETATM    4  C   UNL     1     -43.399  55.927 -58.588  1.00  0.00     0.073 A 
HETATM    5  C   UNL     1     -43.544  56.255 -59.931  1.00  0.00     0.038 A 
HETATM    6  C   UNL     1     -43.074  57.488 -60.399  1.00  0.00     0.016 A 
ENDROOT
BRANCH   3   7
HETATM    7  C   UNL     1     -42.649  56.482 -56.238  1.00  0.00     0.274 C 
BRANCH   7   8
HETATM    8  N   UNL     1     -41.821  55.271 -55.983  1.00  0.00    -0.067 N 
HETATM    9  H   UNL     1     -41.564  54.836 -56.876  1.00  0.00     0.277 HD
HETATM   10  H   UNL     1     -40.935  55.550 -55.545  1.00  0.00     0.277 HD
BRANCH   8  11
HETATM   11  C   UNL     1     -42.459  54.231 -55.124  1.00  0.00     0.272 C 
BRANCH  11  12
HETATM   12  C   UNL     1     -41.672  54.065 -53.849  1.00  0.00    -0.022 A 
HETATM   13  C   UNL     1     -40.921  52.883 -53.575  1.00  0.00    -0.018 A 
HETATM   14  C   UNL     1     -40.288  52.765 -52.310  1.00  0.00    -0.025 A 
HETATM   15  C   UNL     1     -40.763  51.806 -54.483  1.00  0.00     0.013 A 
HETATM   16  C   UNL     1     -39.550  51.615 -51.993  1.00  0.00     0.012 A 
HETATM   17  C   UNL     1     -40.396  53.801 -51.372  1.00  0.00     0.012 A 
HETATM   18  C   UNL     1     -39.420  50.571 -52.907  1.00  0.00     0.001 A 
HETATM   19  C   UNL     1     -40.022  50.669 -54.153  1.00  0.00     0.001 A 
HETATM   20  C   UNL     1     -41.123  54.953 -51.656  1.00  0.00     0.002 A 
HETATM   21  C   UNL     1     -41.761  55.084 -52.882  1.00  0.00     0.010 A 
ENDBRANCH  11  12
ENDBRANCH   8  11
ENDBRANCH   7   8
ENDBRANCH   3   7
BRANCH   4  22
HETATM   22  O   UNL     1     -43.901  54.755 -58.103  1.00  0.00    -0.360 OA
HETATM   23  H   UNL     1     -44.799  54.920 -57.750  1.00  0.00     0.217 HD
ENDBRANCH   4  22
BRANCH   1  24
HETATM   24  C   UNL     1     -41.980  59.732 -59.994  1.00  0.00     0.070 A 
HETATM   25  N   UNL     1     -41.584  60.569 -58.998  1.00  0.00    -0.224 NA
HETATM   26  C   UNL     1     -41.160  61.804 -59.354  1.00  0.00     0.164 A 
HETATM   27  C   UNL     1     -41.103  62.253 -60.662  1.00  0.00     0.058 A 
HETATM   28  C   UNL     1     -41.500  61.387 -61.671  1.00  0.00     0.007 A 
HETATM   29  C   UNL     1     -41.943  60.110 -61.336  1.00  0.00     0.032 A 
BRANCH  26  30
HETATM   30  O   UNL     1     -40.747  62.700 -58.390  1.00  0.00    -0.339 OA
HETATM   31  C   UNL     1     -39.815  63.662 -58.866  1.00  0.00     0.211 C 
ENDBRANCH  26  30
ENDBRANCH   1  24
TORSDOF 7
ENDMDL
