MODEL 1
REMARK VINA RESULT:      -9.2      0.000      0.000
REMARK  4 active torsions:
REMARK  status: ('A' for Active; 'I' for Inactive)
REMARK    1  A    between atoms: C_6  and  C_7 
REMARK       I    between atoms: C_7  and  N_8 
REMARK    2  A    between atoms: N_8  and  N_9 
REMARK    3  A    between atoms: N_9  and  C_10 
REMARK    4  A    between atoms: C_21  and  C_22 
ROOT
HETATM    1  C   UNL     1     -41.716  60.216 -57.118  1.00  0.00     0.124 A 
HETATM    2  N   UNL     1     -41.346  61.356 -57.729  1.00  0.00    -0.223 NA
HETATM    3  C   UNL     1     -41.361  61.379 -59.076  1.00  0.00     0.129 A 
HETATM    4 CL   UNL     1     -40.869  62.868 -59.769  1.00  0.00    -0.062 Cl
HETATM    5  C   UNL     1     -41.738  60.321 -59.874  1.00  0.00     0.067 A 
HETATM    6  C   UNL     1     -42.134  59.155 -59.232  1.00  0.00     0.051 A 
HETATM    7  C   UNL     1     -42.549  58.018 -59.996  1.00  0.00     0.099 C 
HETATM    8  N   UNL     1     -42.885  57.099 -60.620  1.00  0.00    -0.191 NA
HETATM    9  C   UNL     1     -42.130  59.099 -57.838  1.00  0.00     0.068 A 
ENDROOT
BRANCH   1  10
HETATM   10  N   UNL     1     -41.733  60.226 -55.709  1.00  0.00    -0.186 NA
HETATM   11  H   UNL     1     -40.787  60.516 -55.422  1.00  0.00     0.154 HD
BRANCH  10  12
HETATM   12  N   UNL     1     -42.074  58.978 -55.148  1.00  0.00    -0.281 N 
HETATM   13  C   UNL     1     -41.400  58.575 -54.013  1.00  0.00     0.271 C 
HETATM   14  O   UNL     1     -40.404  59.160 -53.590  1.00  0.00    -0.266 OA
HETATM   15  H   UNL     1     -42.997  58.596 -55.372  1.00  0.00     0.184 HD
BRANCH  13  16
HETATM   16  C   UNL     1     -41.981  57.387 -53.324  1.00  0.00     0.102 A 
HETATM   17  C   UNL     1     -43.266  57.424 -52.575  1.00  0.00     0.261 A 
HETATM   18  N   UNL     1     -43.673  56.248 -51.998  1.00  0.00    -0.326 N 
HETATM   19  O   UNL     1     -43.930  58.453 -52.472  1.00  0.00    -0.267 OA
HETATM   20  C   UNL     1     -42.977  55.055 -52.052  1.00  0.00     0.019 A 
HETATM   21  H   UNL     1     -44.551  56.292 -51.494  1.00  0.00     0.169 HD
HETATM   22  C   UNL     1     -43.636  53.911 -51.329  1.00  0.00     0.069 C 
HETATM   23  C   UNL     1     -41.801  55.007 -52.721  1.00  0.00    -0.003 A 
HETATM   24  C   UNL     1     -41.312  56.221 -53.369  1.00  0.00     0.037 A 
BRANCH  23  25
HETATM   25  C   UNL     1     -41.027  53.754 -52.803  1.00  0.00    -0.024 A 
HETATM   26  C   UNL     1     -41.026  53.002 -53.985  1.00  0.00     0.012 A 
HETATM   27  C   UNL     1     -40.291  51.818 -54.063  1.00  0.00     0.001 A 
HETATM   28  C   UNL     1     -39.549  51.384 -52.965  1.00  0.00     0.000 A 
HETATM   29  C   UNL     1     -39.538  52.132 -51.788  1.00  0.00     0.001 A 
HETATM   30  C   UNL     1     -40.272  53.317 -51.707  1.00  0.00     0.012 A 
ENDBRANCH  23  25
ENDBRANCH  13  16
ENDBRANCH  10  12
ENDBRANCH   1  10
TORSDOF 4
ENDMDL
MODEL 2
REMARK VINA RESULT:      -8.9      1.402      2.114
REMARK  4 active torsions:
REMARK  status: ('A' for Active; 'I' for Inactive)
REMARK    1  A    between atoms: C_6  and  C_7 
REMARK       I    between atoms: C_7  and  N_8 
REMARK    2  A    between atoms: N_8  and  N_9 
REMARK    3  A    between atoms: N_9  and  C_10 
REMARK    4  A    between atoms: C_21  and  C_22 
ROOT
HETATM    1  C   UNL     1     -41.802  60.285 -57.133  1.00  0.00     0.124 A 
HETATM    2  N   UNL     1     -42.119  59.134 -57.753  1.00  0.00    -0.223 NA
HETATM    3  C   UNL     1     -42.135  59.131 -59.100  1.00  0.00     0.129 A 
HETATM    4 CL   UNL     1     -42.555  57.625 -59.805  1.00  0.00    -0.062 Cl
HETATM    5  C   UNL     1     -41.841  60.220 -59.891  1.00  0.00     0.067 A 
HETATM    6  C   UNL     1     -41.499  61.399 -59.240  1.00  0.00     0.051 A 
HETATM    7  C   UNL     1     -41.170  62.569 -59.995  1.00  0.00     0.099 C 
HETATM    8  N   UNL     1     -40.904  63.515 -60.612  1.00  0.00    -0.191 NA
HETATM    9  C   UNL     1     -41.472  61.435 -57.845  1.00  0.00     0.068 A 
ENDROOT
BRANCH   1  10
HETATM   10  N   UNL     1     -41.750  60.256 -55.725  1.00  0.00    -0.186 NA
HETATM   11  H   UNL     1     -40.785  60.523 -55.477  1.00  0.00     0.154 HD
BRANCH  10  12
HETATM   12  N   UNL     1     -42.086  58.999 -55.182  1.00  0.00    -0.281 N 
HETATM   13  C   UNL     1     -41.437  58.601 -54.030  1.00  0.00     0.271 C 
HETATM   14  O   UNL     1     -40.462  59.199 -53.576  1.00  0.00    -0.266 OA
HETATM   15  H   UNL     1     -42.996  58.604 -55.433  1.00  0.00     0.184 HD
BRANCH  13  16
HETATM   16  C   UNL     1     -42.016  57.399 -53.365  1.00  0.00     0.102 A 
HETATM   17  C   UNL     1     -43.317  57.412 -52.644  1.00  0.00     0.261 A 
HETATM   18  N   UNL     1     -43.721  56.225 -52.087  1.00  0.00    -0.326 N 
HETATM   19  O   UNL     1     -43.998  58.431 -52.546  1.00  0.00    -0.267 OA
HETATM   20  C   UNL     1     -43.009  55.042 -52.136  1.00  0.00     0.019 A 
HETATM   21  H   UNL     1     -44.611  56.252 -51.602  1.00  0.00     0.169 HD
HETATM   22  C   UNL     1     -43.668  53.882 -51.438  1.00  0.00     0.069 C 
HETATM   23  C   UNL     1     -41.818  55.016 -52.780  1.00  0.00    -0.003 A 
HETATM   24  C   UNL     1     -41.331  56.242 -53.406  1.00  0.00     0.037 A 
BRANCH  23  25
HETATM   25  C   UNL     1     -41.025  53.774 -52.856  1.00  0.00    -0.024 A 
HETATM   26  C   UNL     1     -41.023  53.010 -54.030  1.00  0.00     0.012 A 
HETATM   27  C   UNL     1     -40.270  51.837 -54.103  1.00  0.00     0.001 A 
HETATM   28  C   UNL     1     -39.513  51.425 -53.006  1.00  0.00     0.000 A 
HETATM   29  C   UNL     1     -39.503  52.185 -51.838  1.00  0.00     0.001 A 
HETATM   30  C   UNL     1     -40.255  53.360 -51.762  1.00  0.00     0.012 A 
ENDBRANCH  23  25
ENDBRANCH  13  16
ENDBRANCH  10  12
ENDBRANCH   1  10
TORSDOF 4
ENDMDL
MODEL 3
REMARK VINA RESULT:      -8.6      2.408      2.824
REMARK  4 active torsions:
REMARK  status: ('A' for Active; 'I' for Inactive)
REMARK    1  A    between atoms: C_6  and  C_7 
REMARK       I    between atoms: C_7  and  N_8 
REMARK    2  A    between atoms: N_8  and  N_9 
REMARK    3  A    between atoms: N_9  and  C_10 
REMARK    4  A    between atoms: C_21  and  C_22 
ROOT
HETATM    1  C   UNL     1     -43.278  57.550 -58.726  1.00  0.00     0.124 A 
HETATM    2  N   UNL     1     -44.233  58.472 -58.507  1.00  0.00    -0.223 NA
HETATM    3  C   UNL     1     -45.373  58.375 -59.217  1.00  0.00     0.129 A 
HETATM    4 CL   UNL     1     -46.531  59.594 -58.878  1.00  0.00    -0.062 Cl
HETATM    5  C   UNL     1     -45.638  57.392 -60.146  1.00  0.00     0.067 A 
HETATM    6  C   UNL     1     -44.651  56.436 -60.352  1.00  0.00     0.051 A 
HETATM    7  C   UNL     1     -44.859  55.378 -61.293  1.00  0.00     0.099 C 
HETATM    8  N   UNL     1     -45.033  54.523 -62.058  1.00  0.00    -0.191 NA
HETATM    9  C   UNL     1     -43.458  56.508 -59.632  1.00  0.00     0.068 A 
ENDROOT
BRANCH   1  10
HETATM   10  N   UNL     1     -42.110  57.645 -57.944  1.00  0.00    -0.186 NA
HETATM   11  H   UNL     1     -41.334  57.381 -58.570  1.00  0.00     0.154 HD
BRANCH  10  12
HETATM   12  N   UNL     1     -42.140  56.825 -56.798  1.00  0.00    -0.281 N 
HETATM   13  C   UNL     1     -42.227  57.442 -55.566  1.00  0.00     0.271 C 
HETATM   14  O   UNL     1     -42.089  58.656 -55.420  1.00  0.00    -0.266 OA
HETATM   15  H   UNL     1     -42.441  55.855 -56.919  1.00  0.00     0.184 HD
BRANCH  13  16
HETATM   16  C   UNL     1     -42.519  56.530 -54.423  1.00  0.00     0.102 A 
HETATM   17  C   UNL     1     -43.613  56.771 -53.444  1.00  0.00     0.261 A 
HETATM   18  N   UNL     1     -43.761  55.838 -52.450  1.00  0.00    -0.326 N 
HETATM   19  O   UNL     1     -44.345  57.755 -53.515  1.00  0.00    -0.267 OA
HETATM   20  C   UNL     1     -42.971  54.715 -52.289  1.00  0.00     0.019 A 
HETATM   21  H   UNL     1     -44.513  56.017 -51.793  1.00  0.00     0.169 HD
HETATM   22  C   UNL     1     -43.337  53.853 -51.111  1.00  0.00     0.069 C 
HETATM   23  C   UNL     1     -41.965  54.487 -53.166  1.00  0.00    -0.003 A 
HETATM   24  C   UNL     1     -41.755  55.434 -54.257  1.00  0.00     0.037 A 
BRANCH  23  25
HETATM   25  C   UNL     1     -41.097  53.301 -53.031  1.00  0.00    -0.024 A 
HETATM   26  C   UNL     1     -40.982  52.389 -54.087  1.00  0.00     0.012 A 
HETATM   27  C   UNL     1     -40.158  51.269 -53.961  1.00  0.00     0.001 A 
HETATM   28  C   UNL     1     -39.443  51.059 -52.782  1.00  0.00     0.000 A 
HETATM   29  C   UNL     1     -39.547  51.967 -51.729  1.00  0.00     0.001 A 
HETATM   30  C   UNL     1     -40.370  53.089 -51.853  1.00  0.00     0.012 A 
ENDBRANCH  23  25
ENDBRANCH  13  16
ENDBRANCH  10  12
ENDBRANCH   1  10
TORSDOF 4
ENDMDL
MODEL 4
REMARK VINA RESULT:      -8.4      4.538      6.052
REMARK  4 active torsions:
REMARK  status: ('A' for Active; 'I' for Inactive)
REMARK    1  A    between atoms: C_6  and  C_7 
REMARK       I    between atoms: C_7  and  N_8 
REMARK    2  A    between atoms: N_8  and  N_9 
REMARK    3  A    between atoms: N_9  and  C_10 
REMARK    4  A    between atoms: C_21  and  C_22 
ROOT
HETATM    1  C   UNL     1     -45.441  59.222 -50.528  1.00  0.00     0.124 A 
HETATM    2  N   UNL     1     -45.660  60.011 -49.460  1.00  0.00    -0.223 NA
HETATM    3  C   UNL     1     -46.072  61.273 -49.687  1.00  0.00     0.129 A 
HETATM    4 CL   UNL     1     -46.320  62.208 -48.271  1.00  0.00    -0.062 Cl
HETATM    5  C   UNL     1     -46.296  61.813 -50.935  1.00  0.00     0.067 A 
HETATM    6  C   UNL     1     -46.083  60.984 -52.029  1.00  0.00     0.051 A 
HETATM    7  C   UNL     1     -46.305  61.471 -53.356  1.00  0.00     0.099 C 
HETATM    8  N   UNL     1     -46.487  61.872 -54.430  1.00  0.00    -0.191 NA
HETATM    9  C   UNL     1     -45.656  59.671 -51.828  1.00  0.00     0.068 A 
ENDROOT
BRANCH   1  10
HETATM   10  N   UNL     1     -45.050  57.893 -50.268  1.00  0.00    -0.186 NA
HETATM   11  H   UNL     1     -44.824  57.862 -49.262  1.00  0.00     0.154 HD
BRANCH  10  12
HETATM   12  N   UNL     1     -43.954  57.473 -51.048  1.00  0.00    -0.281 N 
HETATM   13  C   UNL     1     -43.727  56.116 -51.163  1.00  0.00     0.271 C 
HETATM   14  O   UNL     1     -44.312  55.284 -50.471  1.00  0.00    -0.266 OA
HETATM   15  H   UNL     1     -43.600  58.124 -51.754  1.00  0.00     0.184 HD
BRANCH  13  16
HETATM   16  C   UNL     1     -42.729  55.730 -52.201  1.00  0.00     0.102 A 
HETATM   17  C   UNL     1     -42.304  56.635 -53.302  1.00  0.00     0.261 A 
HETATM   18  N   UNL     1     -41.373  56.139 -54.179  1.00  0.00    -0.326 N 
HETATM   19  O   UNL     1     -42.764  57.769 -53.428  1.00  0.00    -0.267 OA
HETATM   20  C   UNL     1     -40.821  54.874 -54.118  1.00  0.00     0.019 A 
HETATM   21  H   UNL     1     -41.094  56.771 -54.921  1.00  0.00     0.169 HD
HETATM   22  C   UNL     1     -39.825  54.570 -55.206  1.00  0.00     0.069 C 
HETATM   23  C   UNL     1     -41.204  54.034 -53.128  1.00  0.00    -0.003 A 
HETATM   24  C   UNL     1     -42.185  54.500 -52.152  1.00  0.00     0.037 A 
BRANCH  23  25
HETATM   25  C   UNL     1     -40.640  52.675 -53.027  1.00  0.00    -0.024 A 
HETATM   26  C   UNL     1     -40.702  51.803 -54.121  1.00  0.00     0.012 A 
HETATM   27  C   UNL     1     -40.166  50.518 -54.026  1.00  0.00     0.001 A 
HETATM   28  C   UNL     1     -39.561  50.100 -52.841  1.00  0.00     0.000 A 
HETATM   29  C   UNL     1     -39.488  50.966 -51.750  1.00  0.00     0.001 A 
HETATM   30  C   UNL     1     -40.023  52.252 -51.842  1.00  0.00     0.012 A 
ENDBRANCH  23  25
ENDBRANCH  13  16
ENDBRANCH  10  12
ENDBRANCH   1  10
TORSDOF 4
ENDMDL
MODEL 5
REMARK VINA RESULT:      -8.4      2.988      3.658
REMARK  4 active torsions:
REMARK  status: ('A' for Active; 'I' for Inactive)
REMARK    1  A    between atoms: C_6  and  C_7 
REMARK       I    between atoms: C_7  and  N_8 
REMARK    2  A    between atoms: N_8  and  N_9 
REMARK    3  A    between atoms: N_9  and  C_10 
REMARK    4  A    between atoms: C_21  and  C_22 
ROOT
HETATM    1  C   UNL     1     -43.772  57.344 -58.254  1.00  0.00     0.124 A 
HETATM    2  N   UNL     1     -44.149  58.354 -57.450  1.00  0.00    -0.223 NA
HETATM    3  C   UNL     1     -45.409  58.814 -57.569  1.00  0.00     0.129 A 
HETATM    4 CL   UNL     1     -45.801  60.105 -56.511  1.00  0.00    -0.062 Cl
HETATM    5  C   UNL     1     -46.345  58.318 -58.451  1.00  0.00     0.067 A 
HETATM    6  C   UNL     1     -45.950  57.264 -59.265  1.00  0.00     0.051 A 
HETATM    7  C   UNL     1     -46.871  56.689 -60.197  1.00  0.00     0.099 C 
HETATM    8  N   UNL     1     -47.622  56.228 -60.951  1.00  0.00    -0.191 NA
HETATM    9  C   UNL     1     -44.651  56.764 -59.164  1.00  0.00     0.068 A 
ENDROOT
BRANCH   1  10
HETATM   10  N   UNL     1     -42.463  56.849 -58.085  1.00  0.00    -0.186 NA
HETATM   11  H   UNL     1     -42.415  55.990 -58.652  1.00  0.00     0.154 HD
BRANCH  10  12
HETATM   12  N   UNL     1     -42.138  56.588 -56.738  1.00  0.00    -0.281 N 
HETATM   13  C   UNL     1     -42.508  55.367 -56.211  1.00  0.00     0.271 C 
HETATM   14  O   UNL     1     -43.263  54.592 -56.797  1.00  0.00    -0.266 OA
HETATM   15  H   UNL     1     -41.371  57.125 -56.325  1.00  0.00     0.184 HD
BRANCH  13  16
HETATM   16  C   UNL     1     -41.912  55.047 -54.882  1.00  0.00     0.102 A 
HETATM   17  C   UNL     1     -41.795  56.039 -53.779  1.00  0.00     0.261 A 
HETATM   18  N   UNL     1     -41.228  55.594 -52.613  1.00  0.00    -0.326 N 
HETATM   19  O   UNL     1     -42.182  57.199 -53.903  1.00  0.00    -0.267 OA
HETATM   20  C   UNL     1     -40.752  54.314 -52.399  1.00  0.00     0.019 A 
HETATM   21  H   UNL     1     -41.159  56.282 -51.872  1.00  0.00     0.169 HD
HETATM   22  C   UNL     1     -40.167  54.081 -51.031  1.00  0.00     0.069 C 
HETATM   23  C   UNL     1     -40.842  53.402 -53.396  1.00  0.00    -0.003 A 
HETATM   24  C   UNL     1     -41.445  53.805 -54.663  1.00  0.00     0.037 A 
BRANCH  23  25
HETATM   25  C   UNL     1     -40.346  52.025 -53.210  1.00  0.00    -0.024 A 
HETATM   26  C   UNL     1     -40.287  51.145 -54.298  1.00  0.00     0.012 A 
HETATM   27  C   UNL     1     -39.815  49.843 -54.123  1.00  0.00     0.001 A 
HETATM   28  C   UNL     1     -39.396  49.417 -52.863  1.00  0.00     0.000 A 
HETATM   29  C   UNL     1     -39.445  50.290 -51.777  1.00  0.00     0.001 A 
HETATM   30  C   UNL     1     -39.916  51.593 -51.949  1.00  0.00     0.012 A 
ENDBRANCH  23  25
ENDBRANCH  13  16
ENDBRANCH  10  12
ENDBRANCH   1  10
TORSDOF 4
ENDMDL
MODEL 6
REMARK VINA RESULT:      -8.3      1.966      2.394
REMARK  4 active torsions:
REMARK  status: ('A' for Active; 'I' for Inactive)
REMARK    1  A    between atoms: C_6  and  C_7 
REMARK       I    between atoms: C_7  and  N_8 
REMARK    2  A    between atoms: N_8  and  N_9 
REMARK    3  A    between atoms: N_9  and  C_10 
REMARK    4  A    between atoms: C_21  and  C_22 
ROOT
HETATM    1  C   UNL     1     -42.711  57.759 -57.344  1.00  0.00     0.124 A 
HETATM    2  N   UNL     1     -42.279  58.552 -58.341  1.00  0.00    -0.223 NA
HETATM    3  C   UNL     1     -42.452  58.120 -59.605  1.00  0.00     0.129 A 
HETATM    4 CL   UNL     1     -41.866  59.188 -60.811  1.00  0.00    -0.062 Cl
HETATM    5  C   UNL     1     -43.051  56.927 -59.951  1.00  0.00     0.067 A 
HETATM    6  C   UNL     1     -43.508  56.126 -58.913  1.00  0.00     0.051 A 
HETATM    7  C   UNL     1     -44.150  54.878 -59.196  1.00  0.00     0.099 C 
HETATM    8  N   UNL     1     -44.670  53.868 -59.432  1.00  0.00    -0.191 NA
HETATM    9  C   UNL     1     -43.344  56.545 -57.593  1.00  0.00     0.068 A 
ENDROOT
BRANCH   1  10
HETATM   10  N   UNL     1     -42.557  58.248 -56.031  1.00  0.00    -0.186 NA
HETATM   11  H   UNL     1     -41.817  58.964 -56.085  1.00  0.00     0.154 HD
BRANCH  10  12
HETATM   12  N   UNL     1     -42.225  57.244 -55.099  1.00  0.00    -0.281 N 
HETATM   13  C   UNL     1     -41.474  57.608 -53.999  1.00  0.00     0.271 C 
HETATM   14  O   UNL     1     -40.932  58.709 -53.899  1.00  0.00    -0.266 OA
HETATM   15  H   UNL     1     -42.814  56.407 -55.076  1.00  0.00     0.184 HD
BRANCH  13  16
HETATM   16  C   UNL     1     -41.381  56.574 -52.929  1.00  0.00     0.102 A 
HETATM   17  C   UNL     1     -41.665  56.853 -51.496  1.00  0.00     0.261 A 
HETATM   18  N   UNL     1     -41.542  55.797 -50.630  1.00  0.00    -0.326 N 
HETATM   19  O   UNL     1     -41.990  57.972 -51.103  1.00  0.00    -0.267 OA
HETATM   20  C   UNL     1     -41.165  54.516 -50.987  1.00  0.00     0.019 A 
HETATM   21  H   UNL     1     -41.742  56.006 -49.658  1.00  0.00     0.169 HD
HETATM   22  C   UNL     1     -41.097  53.539 -49.844  1.00  0.00     0.069 C 
HETATM   23  C   UNL     1     -40.893  54.248 -52.286  1.00  0.00    -0.003 A 
HETATM   24  C   UNL     1     -41.014  55.324 -53.266  1.00  0.00     0.037 A 
BRANCH  23  25
HETATM   25  C   UNL     1     -40.487  52.895 -52.711  1.00  0.00    -0.024 A 
HETATM   26  C   UNL     1     -40.770  52.450 -54.009  1.00  0.00     0.012 A 
HETATM   27  C   UNL     1     -40.383  51.170 -54.412  1.00  0.00     0.001 A 
HETATM   28  C   UNL     1     -39.708  50.334 -53.523  1.00  0.00     0.000 A 
HETATM   29  C   UNL     1     -39.416  50.774 -52.233  1.00  0.00     0.001 A 
HETATM   30  C   UNL     1     -39.801  52.053 -51.827  1.00  0.00     0.012 A 
ENDBRANCH  23  25
ENDBRANCH  13  16
ENDBRANCH  10  12
ENDBRANCH   1  10
TORSDOF 4
ENDMDL
MODEL 7
REMARK VINA RESULT:      -8.3      3.795      8.087
REMARK  4 active torsions:
REMARK  status: ('A' for Active; 'I' for Inactive)
REMARK    1  A    between atoms: C_6  and  C_7 
REMARK       I    between atoms: C_7  and  N_8 
REMARK    2  A    between atoms: N_8  and  N_9 
REMARK    3  A    between atoms: N_9  and  C_10 
REMARK    4  A    between atoms: C_21  and  C_22 
ROOT
HETATM    1  C   UNL     1     -41.200  55.375 -51.648  1.00  0.00     0.124 A 
HETATM    2  N   UNL     1     -40.985  55.119 -50.344  1.00  0.00    -0.223 NA
HETATM    3  C   UNL     1     -40.479  53.915 -50.016  1.00  0.00     0.129 A 
HETATM    4 CL   UNL     1     -40.245  53.673 -48.335  1.00  0.00    -0.062 Cl
HETATM    5  C   UNL     1     -40.154  52.928 -50.922  1.00  0.00     0.067 A 
HETATM    6  C   UNL     1     -40.364  53.209 -52.266  1.00  0.00     0.051 A 
HETATM    7  C   UNL     1     -40.040  52.237 -53.264  1.00  0.00     0.099 C 
HETATM    8  N   UNL     1     -39.775  51.444 -54.069  1.00  0.00    -0.191 NA
HETATM    9  C   UNL     1     -40.887  54.448 -52.638  1.00  0.00     0.068 A 
ENDROOT
BRANCH   1  10
HETATM   10  N   UNL     1     -41.691  56.655 -51.973  1.00  0.00    -0.186 NA
HETATM   11  H   UNL     1     -42.641  56.697 -51.575  1.00  0.00     0.154 HD
BRANCH  10  12
HETATM   12  N   UNL     1     -41.709  56.908 -53.359  1.00  0.00    -0.281 N 
HETATM   13  C   UNL     1     -42.921  57.223 -53.941  1.00  0.00     0.271 C 
HETATM   14  O   UNL     1     -43.993  57.107 -53.348  1.00  0.00    -0.266 OA
HETATM   15  H   UNL     1     -40.829  57.188 -53.800  1.00  0.00     0.184 HD
BRANCH  13  16
HETATM   16  C   UNL     1     -42.835  57.733 -55.339  1.00  0.00     0.102 A 
HETATM   17  C   UNL     1     -42.045  58.934 -55.723  1.00  0.00     0.261 A 
HETATM   18  N   UNL     1     -42.058  59.277 -57.052  1.00  0.00    -0.326 N 
HETATM   19  O   UNL     1     -41.415  59.591 -54.897  1.00  0.00    -0.267 OA
HETATM   20  C   UNL     1     -42.753  58.604 -58.039  1.00  0.00     0.019 A 
HETATM   21  H   UNL     1     -41.513  60.096 -57.295  1.00  0.00     0.169 HD
HETATM   22  C   UNL     1     -42.610  59.189 -59.418  1.00  0.00     0.069 C 
HETATM   23  C   UNL     1     -43.485  57.515 -57.704  1.00  0.00    -0.003 A 
HETATM   24  C   UNL     1     -43.508  57.086 -56.308  1.00  0.00     0.037 A 
BRANCH  23  25
HETATM   25  C   UNL     1     -44.242  56.768 -58.726  1.00  0.00    -0.024 A 
HETATM   26  C   UNL     1     -43.709  55.599 -59.283  1.00  0.00     0.012 A 
HETATM   27  C   UNL     1     -44.427  54.890 -60.248  1.00  0.00     0.001 A 
HETATM   28  C   UNL     1     -45.682  55.343 -60.656  1.00  0.00     0.000 A 
HETATM   29  C   UNL     1     -46.222  56.501 -60.099  1.00  0.00     0.001 A 
HETATM   30  C   UNL     1     -45.506  57.212 -59.134  1.00  0.00     0.012 A 
ENDBRANCH  23  25
ENDBRANCH  13  16
ENDBRANCH  10  12
ENDBRANCH   1  10
TORSDOF 4
ENDMDL
MODEL 8
REMARK VINA RESULT:      -8.3      3.454      8.327
REMARK  4 active torsions:
REMARK  status: ('A' for Active; 'I' for Inactive)
REMARK    1  A    between atoms: C_6  and  C_7 
REMARK       I    between atoms: C_7  and  N_8 
REMARK    2  A    between atoms: N_8  and  N_9 
REMARK    3  A    between atoms: N_9  and  C_10 
REMARK    4  A    between atoms: C_21  and  C_22 
ROOT
HETATM    1  C   UNL     1     -41.409  55.843 -51.752  1.00  0.00     0.124 A 
HETATM    2  N   UNL     1     -41.082  54.983 -52.733  1.00  0.00    -0.223 NA
HETATM    3  C   UNL     1     -40.615  53.771 -52.374  1.00  0.00     0.129 A 
HETATM    4 CL   UNL     1     -40.217  52.742 -53.686  1.00  0.00    -0.062 Cl
HETATM    5  C   UNL     1     -40.459  53.345 -51.072  1.00  0.00     0.067 A 
HETATM    6  C   UNL     1     -40.817  54.236 -50.068  1.00  0.00     0.051 A 
HETATM    7  C   UNL     1     -40.693  53.859 -48.694  1.00  0.00     0.099 C 
HETATM    8  N   UNL     1     -40.590  53.548 -47.581  1.00  0.00    -0.191 NA
HETATM    9  C   UNL     1     -41.304  55.499 -50.408  1.00  0.00     0.068 A 
ENDROOT
BRANCH   1  10
HETATM   10  N   UNL     1     -41.934  57.090 -52.148  1.00  0.00    -0.186 NA
HETATM   11  H   UNL     1     -42.897  57.115 -51.783  1.00  0.00     0.154 HD
BRANCH  10  12
HETATM   12  N   UNL     1     -41.914  57.283 -53.545  1.00  0.00    -0.281 N 
HETATM   13  C   UNL     1     -43.118  57.512 -54.181  1.00  0.00     0.271 C 
HETATM   14  O   UNL     1     -44.204  57.367 -53.620  1.00  0.00    -0.266 OA
HETATM   15  H   UNL     1     -41.033  57.588 -53.967  1.00  0.00     0.184 HD
BRANCH  13  16
HETATM   16  C   UNL     1     -43.006  57.966 -55.596  1.00  0.00     0.102 A 
HETATM   17  C   UNL     1     -42.183  59.131 -56.018  1.00  0.00     0.261 A 
HETATM   18  N   UNL     1     -42.175  59.423 -57.358  1.00  0.00    -0.326 N 
HETATM   19  O   UNL     1     -41.543  59.802 -55.211  1.00  0.00    -0.267 OA
HETATM   20  C   UNL     1     -42.879  58.731 -58.326  1.00  0.00     0.019 A 
HETATM   21  H   UNL     1     -41.607  60.219 -57.627  1.00  0.00     0.169 HD
HETATM   22  C   UNL     1     -42.708  59.259 -59.725  1.00  0.00     0.069 C 
HETATM   23  C   UNL     1     -43.641  57.675 -57.957  1.00  0.00    -0.003 A 
HETATM   24  C   UNL     1     -43.687  57.300 -56.547  1.00  0.00     0.037 A 
BRANCH  23  25
HETATM   25  C   UNL     1     -44.408  56.908 -58.958  1.00  0.00    -0.024 A 
HETATM   26  C   UNL     1     -43.826  55.807 -59.599  1.00  0.00     0.012 A 
HETATM   27  C   UNL     1     -44.553  55.080 -60.543  1.00  0.00     0.001 A 
HETATM   28  C   UNL     1     -45.864  55.446 -60.847  1.00  0.00     0.000 A 
HETATM   29  C   UNL     1     -46.452  56.536 -60.206  1.00  0.00     0.001 A 
HETATM   30  C   UNL     1     -45.728  57.265 -59.261  1.00  0.00     0.012 A 
ENDBRANCH  23  25
ENDBRANCH  13  16
ENDBRANCH  10  12
ENDBRANCH   1  10
TORSDOF 4
ENDMDL
MODEL 9
REMARK VINA RESULT:      -7.9      4.629      8.320
REMARK  4 active torsions:
REMARK  status: ('A' for Active; 'I' for Inactive)
REMARK    1  A    between atoms: C_6  and  C_7 
REMARK       I    between atoms: C_7  and  N_8 
REMARK    2  A    between atoms: N_8  and  N_9 
REMARK    3  A    between atoms: N_9  and  C_10 
REMARK    4  A    between atoms: C_21  and  C_22 
ROOT
HETATM    1  C   UNL     1     -40.783  54.043 -53.794  1.00  0.00     0.124 A 
HETATM    2  N   UNL     1     -40.608  54.341 -52.494  1.00  0.00    -0.223 NA
HETATM    3  C   UNL     1     -40.162  53.363 -51.682  1.00  0.00     0.129 A 
HETATM    4 CL   UNL     1     -39.974  53.827 -50.042  1.00  0.00    -0.062 Cl
HETATM    5  C   UNL     1     -39.862  52.081 -52.089  1.00  0.00     0.067 A 
HETATM    6  C   UNL     1     -40.031  51.790 -53.437  1.00  0.00     0.051 A 
HETATM    7  C   UNL     1     -39.730  50.483 -53.935  1.00  0.00     0.099 C 
HETATM    8  N   UNL     1     -39.484  49.421 -54.333  1.00  0.00    -0.191 NA
HETATM    9  C   UNL     1     -40.491  52.782 -54.305  1.00  0.00     0.068 A 
ENDROOT
BRANCH   1  10
HETATM   10  N   UNL     1     -41.211  55.091 -54.635  1.00  0.00    -0.186 NA
HETATM   11  H   UNL     1     -40.453  55.223 -55.321  1.00  0.00     0.154 HD
BRANCH  10  12
HETATM   12  N   UNL     1     -41.481  56.287 -53.939  1.00  0.00    -0.281 N 
HETATM   13  C   UNL     1     -42.799  56.583 -53.653  1.00  0.00     0.271 C 
HETATM   14  O   UNL     1     -43.740  55.956 -54.136  1.00  0.00    -0.266 OA
HETATM   15  H   UNL     1     -40.721  56.693 -53.386  1.00  0.00     0.184 HD
BRANCH  13  16
HETATM   16  C   UNL     1     -42.998  57.710 -52.697  1.00  0.00     0.102 A 
HETATM   17  C   UNL     1     -42.248  57.839 -51.419  1.00  0.00     0.261 A 
HETATM   18  N   UNL     1     -42.538  58.935 -50.647  1.00  0.00    -0.326 N 
HETATM   19  O   UNL     1     -41.414  57.008 -51.066  1.00  0.00    -0.267 OA
HETATM   20  C   UNL     1     -43.472  59.904 -50.962  1.00  0.00     0.019 A 
HETATM   21  H   UNL     1     -42.016  59.008 -49.780  1.00  0.00     0.169 HD
HETATM   22  C   UNL     1     -43.607  61.002 -49.940  1.00  0.00     0.069 C 
HETATM   23  C   UNL     1     -44.170  59.795 -52.116  1.00  0.00    -0.003 A 
HETATM   24  C   UNL     1     -43.905  58.658 -52.993  1.00  0.00     0.037 A 
BRANCH  23  25
HETATM   25  C   UNL     1     -45.176  60.807 -52.491  1.00  0.00    -0.024 A 
HETATM   26  C   UNL     1     -44.807  61.915 -53.264  1.00  0.00     0.012 A 
HETATM   27  C   UNL     1     -45.760  62.871 -53.621  1.00  0.00     0.001 A 
HETATM   28  C   UNL     1     -47.085  62.721 -53.213  1.00  0.00     0.000 A 
HETATM   29  C   UNL     1     -47.461  61.616 -52.450  1.00  0.00     0.001 A 
HETATM   30  C   UNL     1     -46.510  60.658 -52.091  1.00  0.00     0.012 A 
ENDBRANCH  23  25
ENDBRANCH  13  16
ENDBRANCH  10  12
ENDBRANCH   1  10
TORSDOF 4
ENDMDL
MODEL 10
REMARK VINA RESULT:      -7.9      4.396      8.260
REMARK  4 active torsions:
REMARK  status: ('A' for Active; 'I' for Inactive)
REMARK    1  A    between atoms: C_6  and  C_7 
REMARK       I    between atoms: C_7  and  N_8 
REMARK    2  A    between atoms: N_8  and  N_9 
REMARK    3  A    between atoms: N_9  and  C_10 
REMARK    4  A    between atoms: C_21  and  C_22 
ROOT
HETATM    1  C   UNL     1     -40.108  52.428 -53.589  1.00  0.00     0.124 A 
HETATM    2  N   UNL     1     -39.866  51.121 -53.378  1.00  0.00    -0.223 NA
HETATM    3  C   UNL     1     -39.724  50.708 -52.104  1.00  0.00     0.129 A 
HETATM    4 CL   UNL     1     -39.412  49.031 -51.928  1.00  0.00    -0.062 Cl
HETATM    5  C   UNL     1     -39.818  51.526 -50.998  1.00  0.00     0.067 A 
HETATM    6  C   UNL     1     -40.084  52.870 -51.228  1.00  0.00     0.051 A 
HETATM    7  C   UNL     1     -40.207  53.777 -50.129  1.00  0.00     0.099 C 
HETATM    8  N   UNL     1     -40.305  54.509 -49.233  1.00  0.00    -0.191 NA
HETATM    9  C   UNL     1     -40.238  53.329 -52.537  1.00  0.00     0.068 A 
ENDROOT
BRANCH   1  10
HETATM   10  N   UNL     1     -40.295  52.832 -54.926  1.00  0.00    -0.186 NA
HETATM   11  H   UNL     1     -39.462  52.501 -55.435  1.00  0.00     0.154 HD
BRANCH  10  12
HETATM   12  N   UNL     1     -40.457  54.226 -55.068  1.00  0.00    -0.281 N 
HETATM   13  C   UNL     1     -41.729  54.706 -55.307  1.00  0.00     0.271 C 
HETATM   14  O   UNL     1     -42.675  53.970 -55.585  1.00  0.00    -0.266 OA
HETATM   15  H   UNL     1     -39.738  54.829 -54.659  1.00  0.00     0.184 HD
BRANCH  13  16
HETATM   16  C   UNL     1     -41.878  56.184 -55.185  1.00  0.00     0.102 A 
HETATM   17  C   UNL     1     -42.366  57.050 -56.291  1.00  0.00     0.261 A 
HETATM   18  N   UNL     1     -42.454  58.393 -56.025  1.00  0.00    -0.326 N 
HETATM   19  O   UNL     1     -42.671  56.592 -57.390  1.00  0.00    -0.267 OA
HETATM   20  C   UNL     1     -42.114  58.989 -54.825  1.00  0.00     0.019 A 
HETATM   21  H   UNL     1     -42.790  58.967 -56.790  1.00  0.00     0.169 HD
HETATM   22  C   UNL     1     -42.294  60.483 -54.792  1.00  0.00     0.069 C 
HETATM   23  C   UNL     1     -41.659  58.216 -53.812  1.00  0.00    -0.003 A 
HETATM   24  C   UNL     1     -41.549  56.775 -54.021  1.00  0.00     0.037 A 
BRANCH  23  25
HETATM   25  C   UNL     1     -41.284  58.811 -52.514  1.00  0.00    -0.024 A 
HETATM   26  C   UNL     1     -39.940  58.860 -52.124  1.00  0.00     0.012 A 
HETATM   27  C   UNL     1     -39.585  59.426 -50.898  1.00  0.00     0.001 A 
HETATM   28  C   UNL     1     -40.571  59.949 -50.060  1.00  0.00     0.000 A 
HETATM   29  C   UNL     1     -41.910  59.910 -50.447  1.00  0.00     0.001 A 
HETATM   30  C   UNL     1     -42.267  59.346 -51.673  1.00  0.00     0.012 A 
ENDBRANCH  23  25
ENDBRANCH  13  16
ENDBRANCH  10  12
ENDBRANCH   1  10
TORSDOF 4
ENDMDL
