MODEL 1
REMARK VINA RESULT:      -7.6      0.000      0.000
REMARK  9 active torsions:
REMARK  status: ('A' for Active; 'I' for Inactive)
REMARK    1  A    between atoms: O_2  and  C_3 
REMARK    2  A    between atoms: C_9  and  C_13 
REMARK       I    between atoms: C_13  and  N_15 
REMARK    3  A    between atoms: N_15  and  C_16 
REMARK    4  A    between atoms: C_19  and  C_27 
REMARK    5  A    between atoms: C_21  and  O_22 
REMARK    6  A    between atoms: O_22  and  C_23 
REMARK    7  A    between atoms: C_23  and  C_24 
REMARK    8  A    between atoms: C_24  and  C_25 
REMARK    9  A    between atoms: C_25  and  O_26 
ROOT
HETATM    1  C   UNL     1     -41.269  55.175 -55.175  1.00  0.00     0.068 A 
HETATM    2  C   UNL     1     -40.539  54.017 -55.451  1.00  0.00     0.033 A 
HETATM    3  C   UNL     1     -40.220  53.118 -54.429  1.00  0.00     0.015 A 
HETATM    4  C   UNL     1     -40.625  53.358 -53.113  1.00  0.00    -0.020 A 
HETATM    5  C   UNL     1     -41.348  54.525 -52.831  1.00  0.00     0.051 A 
HETATM    6  C   UNL     1     -41.671  55.435 -53.849  1.00  0.00     0.096 A 
ENDROOT
BRANCH   1   7
HETATM    7  N   UNL     1     -41.648  56.113 -56.166  1.00  0.00    -0.324 N 
HETATM    8  C   UNL     1     -42.690  56.017 -57.069  1.00  0.00     0.228 C 
HETATM    9  O   UNL     1     -43.445  55.057 -57.196  1.00  0.00    -0.273 OA
HETATM   10  H   UNL     1     -41.092  56.962 -56.152  1.00  0.00     0.169 HD
BRANCH   8  11
HETATM   11  C   UNL     1     -42.839  57.254 -57.939  1.00  0.00     0.107 C 
HETATM   12  C   UNL     1     -42.358  56.967 -59.357  1.00  0.00     0.190 C 
HETATM   13  O   UNL     1     -42.608  58.072 -60.231  1.00  0.00    -0.350 OA
HETATM   14  C   UNL     1     -42.151  59.272 -59.757  1.00  0.00     0.075 A 
HETATM   15  C   UNL     1     -42.005  60.286 -60.698  1.00  0.00     0.040 A 
HETATM   16  C   UNL     1     -41.871  59.512 -58.406  1.00  0.00    -0.021 A 
HETATM   17  C   UNL     1     -41.552  61.544 -60.301  1.00  0.00     0.039 A 
HETATM   18  C   UNL     1     -41.257  61.801 -58.961  1.00  0.00     0.068 A 
HETATM   19  C   UNL     1     -41.410  60.782 -58.018  1.00  0.00     0.046 A 
HETATM   20  C   UNL     1     -42.028  58.421 -57.381  1.00  0.00     0.058 C 
BRANCH  18  21
HETATM   21  O   UNL     1     -40.826  63.075 -58.710  1.00  0.00    -0.356 OA
HETATM   22  C   UNL     1     -41.719  63.931 -58.010  1.00  0.00     0.210 C 
ENDBRANCH  18  21
ENDBRANCH   8  11
ENDBRANCH   1   7
BRANCH   6  23
HETATM   23  O   UNL     1     -42.372  56.608 -53.659  1.00  0.00    -0.349 OA
BRANCH  23  24
HETATM   24  C   UNL     1     -43.182  56.696 -52.486  1.00  0.00     0.178 C 
BRANCH  24  25
HETATM   25  C   UNL     1     -44.468  57.442 -52.823  1.00  0.00     0.053 C 
BRANCH  25  26
HETATM   26  C   UNL     1     -44.849  57.284 -54.289  1.00  0.00     0.166 C 
BRANCH  26  27
HETATM   27  O   UNL     1     -45.050  55.908 -54.586  1.00  0.00    -0.401 OA
HETATM   28  H   UNL     1     -44.246  55.426 -54.328  1.00  0.00     0.209 HD
ENDBRANCH  26  27
ENDBRANCH  25  26
ENDBRANCH  24  25
ENDBRANCH  23  24
ENDBRANCH   6  23
BRANCH   4  29
HETATM   29  C   UNL     1     -40.285  52.407 -52.066  1.00  0.00     0.010 A 
HETATM   30  C   UNL     1     -39.597  51.172 -52.127  1.00  0.00     0.152 A 
HETATM   31  N   UNL     1     -39.502  50.574 -50.937  1.00  0.00    -0.187 NA
HETATM   32  N   UNL     1     -40.137  51.416 -50.110  1.00  0.00    -0.289 N 
HETATM   33  H   UNL     1     -40.207  51.165 -49.129  1.00  0.00     0.188 HD
HETATM   34  C   UNL     1     -40.623  52.529 -50.735  1.00  0.00     0.123 A 
ENDBRANCH   4  29
TORSDOF 9
ENDMDL
MODEL 2
REMARK VINA RESULT:      -7.6     16.174     18.424
REMARK  9 active torsions:
REMARK  status: ('A' for Active; 'I' for Inactive)
REMARK    1  A    between atoms: O_2  and  C_3 
REMARK    2  A    between atoms: C_9  and  C_13 
REMARK       I    between atoms: C_13  and  N_15 
REMARK    3  A    between atoms: N_15  and  C_16 
REMARK    4  A    between atoms: C_19  and  C_27 
REMARK    5  A    between atoms: C_21  and  O_22 
REMARK    6  A    between atoms: O_22  and  C_23 
REMARK    7  A    between atoms: C_23  and  C_24 
REMARK    8  A    between atoms: C_24  and  C_25 
REMARK    9  A    between atoms: C_25  and  O_26 
ROOT
HETATM    1  C   UNL     1     -33.332  40.448 -52.463  1.00  0.00     0.068 A 
HETATM    2  C   UNL     1     -32.022  40.568 -51.995  1.00  0.00     0.033 A 
HETATM    3  C   UNL     1     -31.689  40.153 -50.701  1.00  0.00     0.015 A 
HETATM    4  C   UNL     1     -32.657  39.610 -49.853  1.00  0.00    -0.020 A 
HETATM    5  C   UNL     1     -33.976  39.498 -50.317  1.00  0.00     0.051 A 
HETATM    6  C   UNL     1     -34.321  39.914 -51.611  1.00  0.00     0.096 A 
ENDROOT
BRANCH   1   7
HETATM    7  N   UNL     1     -33.731  40.823 -53.769  1.00  0.00    -0.324 N 
HETATM    8  C   UNL     1     -33.040  40.641 -54.951  1.00  0.00     0.228 C 
HETATM    9  O   UNL     1     -31.917  40.158 -55.060  1.00  0.00    -0.273 OA
HETATM   10  H   UNL     1     -34.660  41.232 -53.804  1.00  0.00     0.169 HD
BRANCH   8  11
HETATM   11  C   UNL     1     -33.816  41.110 -56.172  1.00  0.00     0.107 C 
HETATM   12  C   UNL     1     -34.896  42.107 -55.765  1.00  0.00     0.190 C 
HETATM   13  O   UNL     1     -35.553  42.664 -56.906  1.00  0.00    -0.350 OA
HETATM   14  C   UNL     1     -36.012  41.731 -57.796  1.00  0.00     0.075 A 
HETATM   15  C   UNL     1     -36.980  42.168 -58.695  1.00  0.00     0.040 A 
HETATM   16  C   UNL     1     -35.534  40.417 -57.851  1.00  0.00    -0.021 A 
HETATM   17  C   UNL     1     -37.499  41.285 -59.642  1.00  0.00     0.039 A 
HETATM   18  C   UNL     1     -37.043  39.967 -59.708  1.00  0.00     0.068 A 
HETATM   19  C   UNL     1     -36.066  39.534 -58.807  1.00  0.00     0.046 A 
HETATM   20  C   UNL     1     -34.485  39.937 -56.884  1.00  0.00     0.058 C 
BRANCH  18  21
HETATM   21  O   UNL     1     -37.632  39.211 -60.683  1.00  0.00    -0.356 OA
HETATM   22  C   UNL     1     -36.787  38.718 -61.715  1.00  0.00     0.210 C 
ENDBRANCH  18  21
ENDBRANCH   8  11
ENDBRANCH   1   7
BRANCH   6  23
HETATM   23  O   UNL     1     -35.591  39.846 -52.144  1.00  0.00    -0.349 OA
BRANCH  23  24
HETATM   24  C   UNL     1     -36.682  40.083 -51.251  1.00  0.00     0.178 C 
BRANCH  24  25
HETATM   25  C   UNL     1     -37.936  40.378 -52.065  1.00  0.00     0.053 C 
BRANCH  25  26
HETATM   26  C   UNL     1     -37.624  41.180 -53.321  1.00  0.00     0.166 C 
BRANCH  26  27
HETATM   27  O   UNL     1     -36.921  42.366 -52.970  1.00  0.00    -0.401 OA
HETATM   28  H   UNL     1     -36.225  42.506 -53.634  1.00  0.00     0.209 HD
ENDBRANCH  26  27
ENDBRANCH  25  26
ENDBRANCH  24  25
ENDBRANCH  23  24
ENDBRANCH   6  23
BRANCH   4  29
HETATM   29  C   UNL     1     -32.288  39.181 -48.513  1.00  0.00     0.010 A 
HETATM   30  C   UNL     1     -32.881  38.229 -47.651  1.00  0.00     0.152 A 
HETATM   31  N   UNL     1     -32.253  38.132 -46.476  1.00  0.00    -0.187 NA
HETATM   32  N   UNL     1     -31.262  39.029 -46.576  1.00  0.00    -0.289 N 
HETATM   33  H   UNL     1     -30.640  39.148 -45.782  1.00  0.00     0.188 HD
HETATM   34  C   UNL     1     -31.237  39.683 -47.775  1.00  0.00     0.123 A 
ENDBRANCH   4  29
TORSDOF 9
ENDMDL
MODEL 3
REMARK VINA RESULT:      -7.6      3.801      6.313
REMARK  9 active torsions:
REMARK  status: ('A' for Active; 'I' for Inactive)
REMARK    1  A    between atoms: O_2  and  C_3 
REMARK    2  A    between atoms: C_9  and  C_13 
REMARK       I    between atoms: C_13  and  N_15 
REMARK    3  A    between atoms: N_15  and  C_16 
REMARK    4  A    between atoms: C_19  and  C_27 
REMARK    5  A    between atoms: C_21  and  O_22 
REMARK    6  A    between atoms: O_22  and  C_23 
REMARK    7  A    between atoms: C_23  and  C_24 
REMARK    8  A    between atoms: C_24  and  C_25 
REMARK    9  A    between atoms: C_25  and  O_26 
ROOT
HETATM    1  C   UNL     1     -41.243  55.255 -52.339  1.00  0.00     0.068 A 
HETATM    2  C   UNL     1     -40.972  54.432 -51.244  1.00  0.00     0.033 A 
HETATM    3  C   UNL     1     -40.541  53.116 -51.434  1.00  0.00     0.015 A 
HETATM    4  C   UNL     1     -40.371  52.598 -52.721  1.00  0.00    -0.020 A 
HETATM    5  C   UNL     1     -40.653  53.418 -53.822  1.00  0.00     0.051 A 
HETATM    6  C   UNL     1     -41.089  54.739 -53.642  1.00  0.00     0.096 A 
ENDROOT
BRANCH   1   7
HETATM    7  N   UNL     1     -41.656  56.604 -52.218  1.00  0.00    -0.324 N 
HETATM    8  C   UNL     1     -42.900  57.079 -51.847  1.00  0.00     0.228 C 
HETATM    9  O   UNL     1     -43.888  56.394 -51.605  1.00  0.00    -0.273 OA
HETATM   10  H   UNL     1     -40.911  57.271 -52.390  1.00  0.00     0.169 HD
BRANCH   8  11
HETATM   11  C   UNL     1     -42.954  58.596 -51.758  1.00  0.00     0.107 C 
HETATM   12  C   UNL     1     -41.795  59.122 -50.919  1.00  0.00     0.190 C 
HETATM   13  O   UNL     1     -41.745  60.551 -50.928  1.00  0.00    -0.350 OA
HETATM   14  C   UNL     1     -42.933  61.152 -50.612  1.00  0.00     0.075 A 
HETATM   15  C   UNL     1     -42.860  62.485 -50.221  1.00  0.00     0.040 A 
HETATM   16  C   UNL     1     -44.172  60.506 -50.699  1.00  0.00    -0.021 A 
HETATM   17  C   UNL     1     -44.023  63.178 -49.888  1.00  0.00     0.039 A 
HETATM   18  C   UNL     1     -45.268  62.550 -49.957  1.00  0.00     0.068 A 
HETATM   19  C   UNL     1     -45.339  61.212 -50.356  1.00  0.00     0.046 A 
HETATM   20  C   UNL     1     -44.261  59.064 -51.123  1.00  0.00     0.058 C 
BRANCH  18  21
HETATM   21  O   UNL     1     -46.325  63.343 -49.607  1.00  0.00    -0.356 OA
HETATM   22  C   UNL     1     -47.153  62.884 -48.547  1.00  0.00     0.210 C 
ENDBRANCH  18  21
ENDBRANCH   8  11
ENDBRANCH   1   7
BRANCH   6  23
HETATM   23  O   UNL     1     -41.394  55.610 -54.667  1.00  0.00    -0.349 OA
BRANCH  23  24
HETATM   24  C   UNL     1     -42.011  55.053 -55.829  1.00  0.00     0.178 C 
BRANCH  24  25
HETATM   25  C   UNL     1     -43.030  56.046 -56.376  1.00  0.00     0.053 C 
BRANCH  25  26
HETATM   26  C   UNL     1     -43.879  56.657 -55.270  1.00  0.00     0.166 C 
BRANCH  26  27
HETATM   27  O   UNL     1     -44.479  55.623 -54.499  1.00  0.00    -0.401 OA
HETATM   28  H   UNL     1     -43.929  54.827 -54.589  1.00  0.00     0.209 HD
ENDBRANCH  26  27
ENDBRANCH  25  26
ENDBRANCH  24  25
ENDBRANCH  23  24
ENDBRANCH   6  23
BRANCH   4  29
HETATM   29  C   UNL     1     -39.918  51.227 -52.895  1.00  0.00     0.010 A 
HETATM   30  C   UNL     1     -39.764  50.446 -54.066  1.00  0.00     0.152 A 
HETATM   31  N   UNL     1     -39.338  49.207 -53.809  1.00  0.00    -0.187 NA
HETATM   32  N   UNL     1     -39.228  49.183 -52.473  1.00  0.00    -0.289 N 
HETATM   33  H   UNL     1     -38.924  48.321 -52.031  1.00  0.00     0.188 HD
HETATM   34  C   UNL     1     -39.562  50.366 -51.878  1.00  0.00     0.123 A 
ENDBRANCH   4  29
TORSDOF 9
ENDMDL
MODEL 4
REMARK VINA RESULT:      -7.5      3.610      5.394
REMARK  9 active torsions:
REMARK  status: ('A' for Active; 'I' for Inactive)
REMARK    1  A    between atoms: O_2  and  C_3 
REMARK    2  A    between atoms: C_9  and  C_13 
REMARK       I    between atoms: C_13  and  N_15 
REMARK    3  A    between atoms: N_15  and  C_16 
REMARK    4  A    between atoms: C_19  and  C_27 
REMARK    5  A    between atoms: C_21  and  O_22 
REMARK    6  A    between atoms: O_22  and  C_23 
REMARK    7  A    between atoms: C_23  and  C_24 
REMARK    8  A    between atoms: C_24  and  C_25 
REMARK    9  A    between atoms: C_25  and  O_26 
ROOT
HETATM    1  C   UNL     1     -41.218  55.386 -53.723  1.00  0.00     0.068 A 
HETATM    2  C   UNL     1     -40.650  54.692 -54.793  1.00  0.00     0.033 A 
HETATM    3  C   UNL     1     -40.227  53.368 -54.637  1.00  0.00     0.015 A 
HETATM    4  C   UNL     1     -40.366  52.714 -53.410  1.00  0.00    -0.020 A 
HETATM    5  C   UNL     1     -40.926  53.412 -52.331  1.00  0.00     0.051 A 
HETATM    6  C   UNL     1     -41.350  54.741 -52.477  1.00  0.00     0.096 A 
ENDROOT
BRANCH   1   7
HETATM    7  N   UNL     1     -41.691  56.717 -53.820  1.00  0.00    -0.324 N 
HETATM    8  C   UNL     1     -42.864  57.160 -54.402  1.00  0.00     0.228 C 
HETATM    9  O   UNL     1     -43.683  56.460 -54.989  1.00  0.00    -0.273 OA
HETATM   10  H   UNL     1     -41.091  57.393 -53.358  1.00  0.00     0.169 HD
BRANCH   8  11
HETATM   11  C   UNL     1     -43.073  58.659 -54.254  1.00  0.00     0.107 C 
HETATM   12  C   UNL     1     -41.840  59.309 -53.635  1.00  0.00     0.190 C 
HETATM   13  O   UNL     1     -41.956  60.734 -53.606  1.00  0.00    -0.350 OA
HETATM   14  C   UNL     1     -43.121  61.186 -53.048  1.00  0.00     0.075 A 
HETATM   15  C   UNL     1     -43.125  62.515 -52.634  1.00  0.00     0.040 A 
HETATM   16  C   UNL     1     -44.272  60.399 -52.918  1.00  0.00    -0.021 A 
HETATM   17  C   UNL     1     -44.274  63.062 -52.061  1.00  0.00     0.039 A 
HETATM   18  C   UNL     1     -45.428  62.291 -51.913  1.00  0.00     0.068 A 
HETATM   19  C   UNL     1     -45.422  60.959 -52.335  1.00  0.00     0.046 A 
HETATM   20  C   UNL     1     -44.276  58.962 -53.365  1.00  0.00     0.058 C 
BRANCH  18  21
HETATM   21  O   UNL     1     -46.481  62.950 -51.341  1.00  0.00    -0.356 OA
HETATM   22  C   UNL     1     -46.765  62.653 -49.980  1.00  0.00     0.210 C 
ENDBRANCH  18  21
ENDBRANCH   8  11
ENDBRANCH   1   7
BRANCH   6  23
HETATM   23  O   UNL     1     -41.905  55.502 -51.468  1.00  0.00    -0.349 OA
BRANCH  23  24
HETATM   24  C   UNL     1     -42.256  54.822 -50.262  1.00  0.00     0.178 C 
BRANCH  24  25
HETATM   25  C   UNL     1     -41.281  55.224 -49.161  1.00  0.00     0.053 C 
BRANCH  25  26
HETATM   26  C   UNL     1     -40.474  54.036 -48.655  1.00  0.00     0.166 C 
BRANCH  26  27
HETATM   27  O   UNL     1     -40.553  53.972 -47.236  1.00  0.00    -0.401 OA
HETATM   28  H   UNL     1     -41.404  54.359 -46.968  1.00  0.00     0.209 HD
ENDBRANCH  26  27
ENDBRANCH  25  26
ENDBRANCH  24  25
ENDBRANCH  23  24
ENDBRANCH   6  23
BRANCH   4  29
HETATM   29  C   UNL     1     -39.923  51.335 -53.271  1.00  0.00     0.010 A 
HETATM   30  C   UNL     1     -39.741  50.321 -54.241  1.00  0.00     0.152 A 
HETATM   31  N   UNL     1     -39.338  49.164 -53.710  1.00  0.00    -0.187 NA
HETATM   32  N   UNL     1     -39.269  49.428 -52.397  1.00  0.00    -0.289 N 
HETATM   33  H   UNL     1     -38.989  48.680 -51.770  1.00  0.00     0.188 HD
HETATM   34  C   UNL     1     -39.608  50.713 -52.081  1.00  0.00     0.123 A 
ENDBRANCH   4  29
TORSDOF 9
ENDMDL
MODEL 5
REMARK VINA RESULT:      -7.5      3.093      9.518
REMARK  9 active torsions:
REMARK  status: ('A' for Active; 'I' for Inactive)
REMARK    1  A    between atoms: O_2  and  C_3 
REMARK    2  A    between atoms: C_9  and  C_13 
REMARK       I    between atoms: C_13  and  N_15 
REMARK    3  A    between atoms: N_15  and  C_16 
REMARK    4  A    between atoms: C_19  and  C_27 
REMARK    5  A    between atoms: C_21  and  O_22 
REMARK    6  A    between atoms: O_22  and  C_23 
REMARK    7  A    between atoms: C_23  and  C_24 
REMARK    8  A    between atoms: C_24  and  C_25 
REMARK    9  A    between atoms: C_25  and  O_26 
ROOT
HETATM    1  C   UNL     1     -42.018  58.476 -58.158  1.00  0.00     0.068 A 
HETATM    2  C   UNL     1     -41.852  59.845 -57.938  1.00  0.00     0.033 A 
HETATM    3  C   UNL     1     -41.764  60.732 -59.015  1.00  0.00     0.015 A 
HETATM    4  C   UNL     1     -41.841  60.269 -60.331  1.00  0.00    -0.020 A 
HETATM    5  C   UNL     1     -41.997  58.893 -60.556  1.00  0.00     0.051 A 
HETATM    6  C   UNL     1     -42.084  57.995 -59.482  1.00  0.00     0.096 A 
ENDROOT
BRANCH   1   7
HETATM    7  N   UNL     1     -42.141  57.528 -57.114  1.00  0.00    -0.324 N 
HETATM    8  C   UNL     1     -43.280  57.184 -56.411  1.00  0.00     0.228 C 
HETATM    9  O   UNL     1     -44.388  57.694 -56.545  1.00  0.00    -0.273 OA
HETATM   10  H   UNL     1     -41.278  57.031 -56.917  1.00  0.00     0.169 HD
BRANCH   8  11
HETATM   11  C   UNL     1     -43.044  56.070 -55.404  1.00  0.00     0.107 C 
HETATM   12  C   UNL     1     -42.764  56.651 -54.023  1.00  0.00     0.190 C 
HETATM   13  O   UNL     1     -42.670  55.625 -53.030  1.00  0.00    -0.350 OA
HETATM   14  C   UNL     1     -41.808  54.614 -53.356  1.00  0.00     0.075 A 
HETATM   15  C   UNL     1     -41.376  53.816 -52.301  1.00  0.00     0.040 A 
HETATM   16  C   UNL     1     -41.393  54.344 -54.665  1.00  0.00    -0.021 A 
HETATM   17  C   UNL     1     -40.502  52.756 -52.543  1.00  0.00     0.039 A 
HETATM   18  C   UNL     1     -40.067  52.477 -53.839  1.00  0.00     0.068 A 
HETATM   19  C   UNL     1     -40.508  53.276 -54.897  1.00  0.00     0.046 A 
HETATM   20  C   UNL     1     -41.857  55.201 -55.812  1.00  0.00     0.058 C 
BRANCH  18  21
HETATM   21  O   UNL     1     -39.216  51.410 -53.935  1.00  0.00    -0.356 OA
HETATM   22  C   UNL     1     -39.668  50.174 -53.397  1.00  0.00     0.210 C 
ENDBRANCH  18  21
ENDBRANCH   8  11
ENDBRANCH   1   7
BRANCH   6  23
HETATM   23  O   UNL     1     -42.231  56.630 -59.612  1.00  0.00    -0.349 OA
BRANCH  23  24
HETATM   24  C   UNL     1     -43.460  56.160 -60.168  1.00  0.00     0.178 C 
BRANCH  24  25
HETATM   25  C   UNL     1     -44.017  55.053 -59.282  1.00  0.00     0.053 C 
BRANCH  25  26
HETATM   26  C   UNL     1     -45.065  54.218 -60.006  1.00  0.00     0.166 C 
BRANCH  26  27
HETATM   27  O   UNL     1     -45.277  53.000 -59.304  1.00  0.00    -0.401 OA
HETATM   28  H   UNL     1     -45.134  52.268 -59.928  1.00  0.00     0.209 HD
ENDBRANCH  26  27
ENDBRANCH  25  26
ENDBRANCH  24  25
ENDBRANCH  23  24
ENDBRANCH   6  23
BRANCH   4  29
HETATM   29  C   UNL     1     -41.751  61.210 -61.437  1.00  0.00     0.010 A 
HETATM   30  C   UNL     1     -41.042  62.428 -61.558  1.00  0.00     0.152 A 
HETATM   31  N   UNL     1     -41.232  63.023 -62.738  1.00  0.00    -0.187 NA
HETATM   32  N   UNL     1     -42.071  62.194 -63.376  1.00  0.00    -0.289 N 
HETATM   33  H   UNL     1     -42.377  62.445 -64.310  1.00  0.00     0.188 HD
HETATM   34  C   UNL     1     -42.412  61.094 -62.642  1.00  0.00     0.123 A 
ENDBRANCH   4  29
TORSDOF 9
ENDMDL
MODEL 6
REMARK VINA RESULT:      -7.4      3.524      4.618
REMARK  9 active torsions:
REMARK  status: ('A' for Active; 'I' for Inactive)
REMARK    1  A    between atoms: O_2  and  C_3 
REMARK    2  A    between atoms: C_9  and  C_13 
REMARK       I    between atoms: C_13  and  N_15 
REMARK    3  A    between atoms: N_15  and  C_16 
REMARK    4  A    between atoms: C_19  and  C_27 
REMARK    5  A    between atoms: C_21  and  O_22 
REMARK    6  A    between atoms: O_22  and  C_23 
REMARK    7  A    between atoms: C_23  and  C_24 
REMARK    8  A    between atoms: C_24  and  C_25 
REMARK    9  A    between atoms: C_25  and  O_26 
ROOT
HETATM    1  C   UNL     1     -41.043  55.276 -53.760  1.00  0.00     0.068 A 
HETATM    2  C   UNL     1     -40.637  54.440 -54.802  1.00  0.00     0.033 A 
HETATM    3  C   UNL     1     -40.247  53.122 -54.545  1.00  0.00     0.015 A 
HETATM    4  C   UNL     1     -40.256  52.615 -53.243  1.00  0.00    -0.020 A 
HETATM    5  C   UNL     1     -40.652  53.456 -52.193  1.00  0.00     0.051 A 
HETATM    6  C   UNL     1     -41.043  54.780 -52.440  1.00  0.00     0.096 A 
ENDROOT
BRANCH   1   7
HETATM    7  N   UNL     1     -41.475  56.611 -53.954  1.00  0.00    -0.324 N 
HETATM    8  C   UNL     1     -42.702  57.045 -54.419  1.00  0.00     0.228 C 
HETATM    9  O   UNL     1     -43.622  56.327 -54.798  1.00  0.00    -0.273 OA
HETATM   10  H   UNL     1     -40.790  57.302 -53.665  1.00  0.00     0.169 HD
BRANCH   8  11
HETATM   11  C   UNL     1     -42.832  58.560 -54.428  1.00  0.00     0.107 C 
HETATM   12  C   UNL     1     -41.861  59.183 -53.432  1.00  0.00     0.190 C 
HETATM   13  O   UNL     1     -41.867  60.611 -53.515  1.00  0.00    -0.350 OA
HETATM   14  C   UNL     1     -43.116  61.167 -53.445  1.00  0.00     0.075 A 
HETATM   15  C   UNL     1     -43.166  62.520 -53.124  1.00  0.00     0.040 A 
HETATM   16  C   UNL     1     -44.293  60.457 -53.709  1.00  0.00    -0.021 A 
HETATM   17  C   UNL     1     -44.397  63.170 -53.040  1.00  0.00     0.039 A 
HETATM   18  C   UNL     1     -45.583  62.479 -53.289  1.00  0.00     0.068 A 
HETATM   19  C   UNL     1     -45.529  61.121 -53.617  1.00  0.00     0.046 A 
HETATM   20  C   UNL     1     -44.248  58.994 -54.059  1.00  0.00     0.058 C 
BRANCH  18  21
HETATM   21  O   UNL     1     -46.716  63.235 -53.175  1.00  0.00    -0.356 OA
HETATM   22  C   UNL     1     -47.633  62.873 -52.150  1.00  0.00     0.210 C 
ENDBRANCH  18  21
ENDBRANCH   8  11
ENDBRANCH   1   7
BRANCH   6  23
HETATM   23  O   UNL     1     -41.440  55.675 -51.469  1.00  0.00    -0.349 OA
BRANCH  23  24
HETATM   24  C   UNL     1     -42.198  55.151 -50.377  1.00  0.00     0.178 C 
BRANCH  24  25
HETATM   25  C   UNL     1     -43.678  55.178 -50.740  1.00  0.00     0.053 C 
BRANCH  25  26
HETATM   26  C   UNL     1     -44.147  56.578 -51.110  1.00  0.00     0.166 C 
BRANCH  26  27
HETATM   27  O   UNL     1     -43.220  57.540 -50.621  1.00  0.00    -0.401 OA
HETATM   28  H   UNL     1     -42.533  57.064 -50.124  1.00  0.00     0.209 HD
ENDBRANCH  26  27
ENDBRANCH  25  26
ENDBRANCH  24  25
ENDBRANCH  23  24
ENDBRANCH   6  23
BRANCH   4  29
HETATM   29  C   UNL     1     -39.850  51.240 -52.999  1.00  0.00     0.010 A 
HETATM   30  C   UNL     1     -39.716  50.145 -53.885  1.00  0.00     0.152 A 
HETATM   31  N   UNL     1     -39.336  49.023 -53.268  1.00  0.00    -0.187 NA
HETATM   32  N   UNL     1     -39.234  49.391 -51.983  1.00  0.00    -0.289 N 
HETATM   33  H   UNL     1     -38.962  48.689 -51.302  1.00  0.00     0.188 HD
HETATM   34  C   UNL     1     -39.529  50.707 -51.768  1.00  0.00     0.123 A 
ENDBRANCH   4  29
TORSDOF 9
ENDMDL
MODEL 7
REMARK VINA RESULT:      -7.1      3.055      9.347
REMARK  9 active torsions:
REMARK  status: ('A' for Active; 'I' for Inactive)
REMARK    1  A    between atoms: O_2  and  C_3 
REMARK    2  A    between atoms: C_9  and  C_13 
REMARK       I    between atoms: C_13  and  N_15 
REMARK    3  A    between atoms: N_15  and  C_16 
REMARK    4  A    between atoms: C_19  and  C_27 
REMARK    5  A    between atoms: C_21  and  O_22 
REMARK    6  A    between atoms: O_22  and  C_23 
REMARK    7  A    between atoms: C_23  and  C_24 
REMARK    8  A    between atoms: C_24  and  C_25 
REMARK    9  A    between atoms: C_25  and  O_26 
ROOT
HETATM    1  C   UNL     1     -42.087  58.144 -57.865  1.00  0.00     0.068 A 
HETATM    2  C   UNL     1     -42.308  57.721 -59.176  1.00  0.00     0.033 A 
HETATM    3  C   UNL     1     -42.240  58.630 -60.237  1.00  0.00     0.015 A 
HETATM    4  C   UNL     1     -41.949  59.977 -60.007  1.00  0.00    -0.020 A 
HETATM    5  C   UNL     1     -41.737  60.407 -58.689  1.00  0.00     0.051 A 
HETATM    6  C   UNL     1     -41.806  59.504 -57.619  1.00  0.00     0.096 A 
ENDROOT
BRANCH   1   7
HETATM    7  N   UNL     1     -42.115  57.273 -56.749  1.00  0.00    -0.324 N 
HETATM    8  C   UNL     1     -42.652  56.002 -56.679  1.00  0.00     0.228 C 
HETATM    9  O   UNL     1     -43.253  55.425 -57.580  1.00  0.00    -0.273 OA
HETATM   10  H   UNL     1     -41.635  57.645 -55.935  1.00  0.00     0.169 HD
BRANCH   8  11
HETATM   11  C   UNL     1     -42.432  55.336 -55.330  1.00  0.00     0.107 C 
HETATM   12  C   UNL     1     -41.787  56.314 -54.354  1.00  0.00     0.190 C 
HETATM   13  O   UNL     1     -41.690  55.757 -53.039  1.00  0.00    -0.350 OA
HETATM   14  C   UNL     1     -41.108  54.520 -53.001  1.00  0.00     0.075 A 
HETATM   15  C   UNL     1     -40.632  54.106 -51.760  1.00  0.00     0.040 A 
HETATM   16  C   UNL     1     -41.012  53.676 -54.114  1.00  0.00    -0.021 A 
HETATM   17  C   UNL     1     -40.030  52.855 -51.627  1.00  0.00     0.039 A 
HETATM   18  C   UNL     1     -39.915  52.003 -52.727  1.00  0.00     0.068 A 
HETATM   19  C   UNL     1     -40.400  52.419 -53.970  1.00  0.00     0.046 A 
HETATM   20  C   UNL     1     -41.527  54.114 -55.459  1.00  0.00     0.058 C 
BRANCH  18  21
HETATM   21  O   UNL     1     -39.309  50.807 -52.458  1.00  0.00    -0.356 OA
HETATM   22  C   UNL     1     -39.521  50.253 -51.165  1.00  0.00     0.210 C 
ENDBRANCH  18  21
ENDBRANCH   8  11
ENDBRANCH   1   7
BRANCH   6  23
HETATM   23  O   UNL     1     -41.618  59.842 -56.294  1.00  0.00    -0.349 OA
BRANCH  23  24
HETATM   24  C   UNL     1     -42.641  60.625 -55.675  1.00  0.00     0.178 C 
BRANCH  24  25
HETATM   25  C   UNL     1     -43.097  59.928 -54.399  1.00  0.00     0.053 C 
BRANCH  25  26
HETATM   26  C   UNL     1     -42.090  60.093 -53.269  1.00  0.00     0.166 C 
BRANCH  26  27
HETATM   27  O   UNL     1     -40.825  59.587 -53.677  1.00  0.00    -0.401 OA
HETATM   28  H   UNL     1     -40.172  60.300 -53.575  1.00  0.00     0.209 HD
ENDBRANCH  26  27
ENDBRANCH  25  26
ENDBRANCH  24  25
ENDBRANCH  23  24
ENDBRANCH   6  23
BRANCH   4  29
HETATM   29  C   UNL     1     -41.879  60.904 -61.126  1.00  0.00     0.010 A 
HETATM   30  C   UNL     1     -42.478  60.853 -62.407  1.00  0.00     0.152 A 
HETATM   31  N   UNL     1     -42.151  61.897 -63.173  1.00  0.00    -0.187 NA
HETATM   32  N   UNL     1     -41.334  62.617 -62.390  1.00  0.00    -0.289 N 
HETATM   33  H   UNL     1     -40.938  63.473 -62.767  1.00  0.00     0.188 HD
HETATM   34  C   UNL     1     -41.139  62.067 -61.155  1.00  0.00     0.123 A 
ENDBRANCH   4  29
TORSDOF 9
ENDMDL
MODEL 8
REMARK VINA RESULT:      -7.1      3.358      5.015
REMARK  9 active torsions:
REMARK  status: ('A' for Active; 'I' for Inactive)
REMARK    1  A    between atoms: O_2  and  C_3 
REMARK    2  A    between atoms: C_9  and  C_13 
REMARK       I    between atoms: C_13  and  N_15 
REMARK    3  A    between atoms: N_15  and  C_16 
REMARK    4  A    between atoms: C_19  and  C_27 
REMARK    5  A    between atoms: C_21  and  O_22 
REMARK    6  A    between atoms: O_22  and  C_23 
REMARK    7  A    between atoms: C_23  and  C_24 
REMARK    8  A    between atoms: C_24  and  C_25 
REMARK    9  A    between atoms: C_25  and  O_26 
ROOT
HETATM    1  C   UNL     1     -41.180  55.218 -52.030  1.00  0.00     0.068 A 
HETATM    2  C   UNL     1     -40.919  54.415 -50.918  1.00  0.00     0.033 A 
HETATM    3  C   UNL     1     -40.496  53.092 -51.080  1.00  0.00     0.015 A 
HETATM    4  C   UNL     1     -40.326  52.547 -52.355  1.00  0.00    -0.020 A 
HETATM    5  C   UNL     1     -40.599  53.348 -53.474  1.00  0.00     0.051 A 
HETATM    6  C   UNL     1     -41.025  54.675 -53.322  1.00  0.00     0.096 A 
ENDROOT
BRANCH   1   7
HETATM    7  N   UNL     1     -41.584  56.572 -51.937  1.00  0.00    -0.324 N 
HETATM    8  C   UNL     1     -42.850  57.063 -51.681  1.00  0.00     0.228 C 
HETATM    9  O   UNL     1     -43.867  56.390 -51.539  1.00  0.00    -0.273 OA
HETATM   10  H   UNL     1     -40.816  57.229 -52.032  1.00  0.00     0.169 HD
BRANCH   8  11
HETATM   11  C   UNL     1     -42.892  58.580 -51.585  1.00  0.00     0.107 C 
HETATM   12  C   UNL     1     -44.185  59.035 -50.918  1.00  0.00     0.190 C 
HETATM   13  O   UNL     1     -44.192  60.448 -50.695  1.00  0.00    -0.350 OA
HETATM   14  C   UNL     1     -43.888  61.188 -51.805  1.00  0.00     0.075 A 
HETATM   15  C   UNL     1     -44.257  62.529 -51.765  1.00  0.00     0.040 A 
HETATM   16  C   UNL     1     -43.214  60.671 -52.917  1.00  0.00    -0.021 A 
HETATM   17  C   UNL     1     -43.978  63.360 -52.850  1.00  0.00     0.039 A 
HETATM   18  C   UNL     1     -43.317  62.862 -53.974  1.00  0.00     0.068 A 
HETATM   19  C   UNL     1     -42.943  61.516 -54.008  1.00  0.00     0.046 A 
HETATM   20  C   UNL     1     -42.809  59.222 -52.967  1.00  0.00     0.058 C 
BRANCH  18  21
HETATM   21  O   UNL     1     -43.105  63.782 -54.963  1.00  0.00    -0.356 OA
HETATM   22  C   UNL     1     -44.250  64.442 -55.486  1.00  0.00     0.210 C 
ENDBRANCH  18  21
ENDBRANCH   8  11
ENDBRANCH   1   7
BRANCH   6  23
HETATM   23  O   UNL     1     -41.321  55.528 -54.365  1.00  0.00    -0.349 OA
BRANCH  23  24
HETATM   24  C   UNL     1     -41.525  54.935 -55.649  1.00  0.00     0.178 C 
BRANCH  24  25
HETATM   25  C   UNL     1     -42.897  55.343 -56.173  1.00  0.00     0.053 C 
BRANCH  25  26
HETATM   26  C   UNL     1     -43.616  56.283 -55.214  1.00  0.00     0.166 C 
BRANCH  26  27
HETATM   27  O   UNL     1     -44.452  55.531 -54.342  1.00  0.00    -0.401 OA
HETATM   28  H   UNL     1     -44.374  55.913 -53.452  1.00  0.00     0.209 HD
ENDBRANCH  26  27
ENDBRANCH  25  26
ENDBRANCH  24  25
ENDBRANCH  23  24
ENDBRANCH   6  23
BRANCH   4  29
HETATM   29  C   UNL     1     -39.882  51.170 -52.501  1.00  0.00     0.010 A 
HETATM   30  C   UNL     1     -39.713  50.371 -53.657  1.00  0.00     0.152 A 
HETATM   31  N   UNL     1     -39.304  49.132 -53.374  1.00  0.00    -0.187 NA
HETATM   32  N   UNL     1     -39.219  49.127 -52.036  1.00  0.00    -0.289 N 
HETATM   33  H   UNL     1     -38.931  48.269 -51.576  1.00  0.00     0.188 HD
HETATM   34  C   UNL     1     -39.553  50.322 -51.465  1.00  0.00     0.123 A 
ENDBRANCH   4  29
TORSDOF 9
ENDMDL
MODEL 9
REMARK VINA RESULT:      -6.9      1.932      2.562
REMARK  9 active torsions:
REMARK  status: ('A' for Active; 'I' for Inactive)
REMARK    1  A    between atoms: O_2  and  C_3 
REMARK    2  A    between atoms: C_9  and  C_13 
REMARK       I    between atoms: C_13  and  N_15 
REMARK    3  A    between atoms: N_15  and  C_16 
REMARK    4  A    between atoms: C_19  and  C_27 
REMARK    5  A    between atoms: C_21  and  O_22 
REMARK    6  A    between atoms: O_22  and  C_23 
REMARK    7  A    between atoms: C_23  and  C_24 
REMARK    8  A    between atoms: C_24  and  C_25 
REMARK    9  A    between atoms: C_25  and  O_26 
ROOT
HETATM    1  C   UNL     1     -41.115  54.871 -54.803  1.00  0.00     0.068 A 
HETATM    2  C   UNL     1     -40.218  54.004 -55.430  1.00  0.00     0.033 A 
HETATM    3  C   UNL     1     -39.835  52.809 -54.812  1.00  0.00     0.015 A 
HETATM    4  C   UNL     1     -40.342  52.458 -53.558  1.00  0.00    -0.020 A 
HETATM    5  C   UNL     1     -41.234  53.332 -52.921  1.00  0.00     0.051 A 
HETATM    6  C   UNL     1     -41.622  54.534 -53.531  1.00  0.00     0.096 A 
ENDROOT
BRANCH   1   7
HETATM    7  N   UNL     1     -41.565  56.082 -55.383  1.00  0.00    -0.324 N 
HETATM    8  C   UNL     1     -42.462  56.242 -56.422  1.00  0.00     0.228 C 
HETATM    9  O   UNL     1     -42.990  55.337 -57.061  1.00  0.00    -0.273 OA
HETATM   10  H   UNL     1     -41.195  56.910 -54.927  1.00  0.00     0.169 HD
BRANCH   8  11
HETATM   11  C   UNL     1     -42.759  57.700 -56.731  1.00  0.00     0.107 C 
HETATM   12  C   UNL     1     -44.264  57.926 -56.834  1.00  0.00     0.190 C 
HETATM   13  O   UNL     1     -44.577  59.313 -56.992  1.00  0.00    -0.350 OA
HETATM   14  C   UNL     1     -43.887  59.927 -58.001  1.00  0.00     0.075 A 
HETATM   15  C   UNL     1     -44.416  61.130 -58.460  1.00  0.00     0.040 A 
HETATM   16  C   UNL     1     -42.697  59.425 -58.540  1.00  0.00    -0.021 A 
HETATM   17  C   UNL     1     -43.773  61.829 -59.481  1.00  0.00     0.039 A 
HETATM   18  C   UNL     1     -42.591  61.341 -60.039  1.00  0.00     0.068 A 
HETATM   19  C   UNL     1     -42.059  60.135 -59.573  1.00  0.00     0.046 A 
HETATM   20  C   UNL     1     -42.116  58.127 -58.049  1.00  0.00     0.058 C 
BRANCH  18  21
HETATM   21  O   UNL     1     -42.064  62.125 -61.028  1.00  0.00    -0.356 OA
HETATM   22  C   UNL     1     -42.467  63.488 -61.054  1.00  0.00     0.210 C 
ENDBRANCH  18  21
ENDBRANCH   8  11
ENDBRANCH   1   7
BRANCH   6  23
HETATM   23  O   UNL     1     -42.488  55.453 -52.973  1.00  0.00    -0.349 OA
BRANCH  23  24
HETATM   24  C   UNL     1     -43.221  55.035 -51.820  1.00  0.00     0.178 C 
BRANCH  24  25
HETATM   25  C   UNL     1     -42.726  55.814 -50.607  1.00  0.00     0.053 C 
BRANCH  25  26
HETATM   26  C   UNL     1     -41.772  54.990 -49.754  1.00  0.00     0.166 C 
BRANCH  26  27
HETATM   27  O   UNL     1     -41.249  55.795 -48.704  1.00  0.00    -0.401 OA
HETATM   28  H   UNL     1     -40.287  55.662 -48.678  1.00  0.00     0.209 HD
ENDBRANCH  26  27
ENDBRANCH  25  26
ENDBRANCH  24  25
ENDBRANCH  23  24
ENDBRANCH   6  23
BRANCH   4  29
HETATM   29  C   UNL     1     -39.933  51.209 -52.936  1.00  0.00     0.010 A 
HETATM   30  C   UNL     1     -39.781  49.911 -53.480  1.00  0.00     0.152 A 
HETATM   31  N   UNL     1     -39.405  49.009 -52.570  1.00  0.00    -0.187 NA
HETATM   32  N   UNL     1     -39.324  49.721 -51.437  1.00  0.00    -0.289 N 
HETATM   33  H   UNL     1     -39.060  49.238 -50.584  1.00  0.00     0.188 HD
HETATM   34  C   UNL     1     -39.629  51.042 -51.601  1.00  0.00     0.123 A 
ENDBRANCH   4  29
TORSDOF 9
ENDMDL
MODEL 10
REMARK VINA RESULT:      -6.8      3.545      5.996
REMARK  9 active torsions:
REMARK  status: ('A' for Active; 'I' for Inactive)
REMARK    1  A    between atoms: O_2  and  C_3 
REMARK    2  A    between atoms: C_9  and  C_13 
REMARK       I    between atoms: C_13  and  N_15 
REMARK    3  A    between atoms: N_15  and  C_16 
REMARK    4  A    between atoms: C_19  and  C_27 
REMARK    5  A    between atoms: C_21  and  O_22 
REMARK    6  A    between atoms: O_22  and  C_23 
REMARK    7  A    between atoms: C_23  and  C_24 
REMARK    8  A    between atoms: C_24  and  C_25 
REMARK    9  A    between atoms: C_25  and  O_26 
ROOT
HETATM    1  C   UNL     1     -41.398  55.219 -52.144  1.00  0.00     0.068 A 
HETATM    2  C   UNL     1     -40.799  54.582 -51.055  1.00  0.00     0.033 A 
HETATM    3  C   UNL     1     -40.330  53.270 -51.170  1.00  0.00     0.015 A 
HETATM    4  C   UNL     1     -40.449  52.571 -52.373  1.00  0.00    -0.020 A 
HETATM    5  C   UNL     1     -41.059  53.204 -53.465  1.00  0.00     0.051 A 
HETATM    6  C   UNL     1     -41.536  54.519 -53.360  1.00  0.00     0.096 A 
ENDROOT
BRANCH   1   7
HETATM    7  N   UNL     1     -41.870  56.554 -52.104  1.00  0.00    -0.324 N 
HETATM    8  C   UNL     1     -41.353  57.614 -51.385  1.00  0.00     0.228 C 
HETATM    9  O   UNL     1     -40.408  57.561 -50.604  1.00  0.00    -0.273 OA
HETATM   10  H   UNL     1     -42.657  56.722 -52.723  1.00  0.00     0.169 HD
BRANCH   8  11
HETATM   11  C   UNL     1     -42.084  58.922 -51.646  1.00  0.00     0.107 C 
HETATM   12  C   UNL     1     -41.884  59.884 -50.480  1.00  0.00     0.190 C 
HETATM   13  O   UNL     1     -42.449  61.169 -50.757  1.00  0.00    -0.350 OA
HETATM   14  C   UNL     1     -43.749  61.126 -51.181  1.00  0.00     0.075 A 
HETATM   15  C   UNL     1     -44.464  62.316 -51.086  1.00  0.00     0.040 A 
HETATM   16  C   UNL     1     -44.348  59.980 -51.720  1.00  0.00    -0.021 A 
HETATM   17  C   UNL     1     -45.794  62.364 -51.504  1.00  0.00     0.039 A 
HETATM   18  C   UNL     1     -46.413  61.231 -52.033  1.00  0.00     0.068 A 
HETATM   19  C   UNL     1     -45.690  60.039 -52.133  1.00  0.00     0.046 A 
HETATM   20  C   UNL     1     -43.581  58.690 -51.829  1.00  0.00     0.058 C 
BRANCH  18  21
HETATM   21  O   UNL     1     -47.716  61.417 -52.406  1.00  0.00    -0.356 OA
HETATM   22  C   UNL     1     -48.106  62.742 -52.743  1.00  0.00     0.210 C 
ENDBRANCH  18  21
ENDBRANCH   8  11
ENDBRANCH   1   7
BRANCH   6  23
HETATM   23  O   UNL     1     -42.154  55.213 -54.379  1.00  0.00    -0.349 OA
BRANCH  23  24
HETATM   24  C   UNL     1     -41.696  54.957 -55.708  1.00  0.00     0.178 C 
BRANCH  24  25
HETATM   25  C   UNL     1     -42.814  55.283 -56.692  1.00  0.00     0.053 C 
BRANCH  25  26
HETATM   26  C   UNL     1     -43.320  56.709 -56.525  1.00  0.00     0.166 C 
BRANCH  26  27
HETATM   27  O   UNL     1     -44.379  56.735 -55.576  1.00  0.00    -0.401 OA
HETATM   28  H   UNL     1     -45.007  57.424 -55.850  1.00  0.00     0.209 HD
ENDBRANCH  26  27
ENDBRANCH  25  26
ENDBRANCH  24  25
ENDBRANCH  23  24
ENDBRANCH   6  23
BRANCH   4  29
HETATM   29  C   UNL     1     -39.950  51.208 -52.472  1.00  0.00     0.010 A 
HETATM   30  C   UNL     1     -39.769  50.369 -53.597  1.00  0.00     0.152 A 
HETATM   31  N   UNL     1     -39.303  49.161 -53.271  1.00  0.00    -0.187 NA
HETATM   32  N   UNL     1     -39.191  49.216 -51.936  1.00  0.00    -0.289 N 
HETATM   33  H   UNL     1     -38.859  48.391 -51.447  1.00  0.00     0.188 HD
HETATM   34  C   UNL     1     -39.565  50.419 -51.408  1.00  0.00     0.123 A 
ENDBRANCH   4  29
TORSDOF 9
ENDMDL
