MODEL 1
REMARK VINA RESULT:      -8.3      0.000      0.000
REMARK  7 active torsions:
REMARK  status: ('A' for Active; 'I' for Inactive)
REMARK    1  A    between atoms: O_2  and  C_3 
REMARK    2  A    between atoms: N_7  and  C_9 
REMARK    3  A    between atoms: C_9  and  C_10 
REMARK    4  A    between atoms: C_11  and  O_12 
REMARK    5  A    between atoms: C_22  and  N_23 
REMARK       I    between atoms: N_23  and  C_24 
REMARK    6  A    between atoms: C_24  and  C_25 
REMARK    7  A    between atoms: C_25  and  C_26 
ROOT
HETATM    1  C   UNL     1     -43.283  57.721 -54.393  1.00  0.00     0.161 C 
HETATM    2  C   UNL     1     -42.382  57.338 -53.153  1.00  0.00     0.019 C 
HETATM    3  C   UNL     1     -40.955  56.959 -53.617  1.00  0.00     0.045 C 
HETATM    4  C   UNL     1     -40.891  55.573 -54.256  1.00  0.00     0.236 C 
HETATM    5  N   UNL     1     -41.495  54.536 -53.348  1.00  0.00    -0.067 N 
HETATM    6  H   UNL     1     -41.535  53.655 -53.888  1.00  0.00     0.280 HD
HETATM    7  C   UNL     1     -42.920  54.859 -52.989  1.00  0.00     0.236 C 
HETATM    8  C   UNL     1     -42.978  56.205 -52.286  1.00  0.00     0.045 C 
HETATM    9  C   UNL     1     -42.341  58.636 -52.374  1.00  0.00    -0.038 A 
HETATM   10  C   UNL     1     -42.888  59.696 -53.099  1.00  0.00    -0.026 A 
HETATM   11  C   UNL     1     -43.321  59.284 -54.476  1.00  0.00     0.148 C 
HETATM   12  C   UNL     1     -41.825  58.855 -51.099  1.00  0.00     0.009 A 
HETATM   13  C   UNL     1     -41.881  60.141 -50.555  1.00  0.00     0.001 A 
HETATM   14  C   UNL     1     -42.444  61.195 -51.283  1.00  0.00     0.001 A 
HETATM   15  C   UNL     1     -42.949  60.977 -52.563  1.00  0.00     0.010 A 
ENDROOT
BRANCH   1  16
HETATM   16  O   UNL     1     -44.598  57.157 -54.217  1.00  0.00    -0.387 OA
HETATM   17  C   UNL     1     -45.538  57.605 -55.193  1.00  0.00     0.202 C 
ENDBRANCH   1  16
BRANCH  11  18
HETATM   18  N   UNL     1     -42.422  59.859 -55.461  1.00  0.00    -0.350 N 
HETATM   19  C   UNL     1     -42.890  60.488 -56.594  1.00  0.00     0.223 C 
HETATM   20  O   UNL     1     -44.055  60.385 -56.973  1.00  0.00    -0.273 OA
HETATM   21  H   UNL     1     -41.477  60.068 -55.159  1.00  0.00     0.163 HD
BRANCH  19  22
HETATM   22  C   UNL     1     -41.848  61.305 -57.338  1.00  0.00     0.148 C 
BRANCH  22  23
HETATM   23  C   UNL     1     -41.803  60.922 -58.784  1.00  0.00    -0.009 A 
HETATM   24  S   UNL     1     -41.507  62.105 -59.991  1.00  0.00    -0.106 SA
HETATM   25  C   UNL     1     -41.696  60.961 -61.248  1.00  0.00     0.050 A 
HETATM   26  C   UNL     1     -41.974  59.702 -60.763  1.00  0.00     0.008 A 
HETATM   27  C   UNL     1     -42.032  59.680 -59.340  1.00  0.00     0.015 A 
ENDBRANCH  22  23
ENDBRANCH  19  22
ENDBRANCH  11  18
BRANCH   5  28
HETATM   28  C   UNL     1     -40.641  54.147 -52.159  1.00  0.00     0.276 C 
BRANCH  28  29
HETATM   29  C   UNL     1     -40.288  52.685 -52.128  1.00  0.00     0.002 A 
HETATM   30  C   UNL     1     -40.123  52.015 -50.909  1.00  0.00     0.073 A 
HETATM   31  C   UNL     1     -39.765  50.669 -50.865  1.00  0.00     0.039 A 
HETATM   32  C   UNL     1     -39.577  49.970 -52.058  1.00  0.00     0.026 A 
HETATM   33  C   UNL     1     -39.746  50.620 -53.278  1.00  0.00     0.034 A 
HETATM   34 CL   UNL     1     -39.531  49.756 -54.748  1.00  0.00    -0.084 Cl
HETATM   35  C   UNL     1     -40.095  51.971 -53.320  1.00  0.00     0.035 A 
BRANCH  30  36
HETATM   36  O   UNL     1     -40.352  52.714 -49.756  1.00  0.00    -0.360 OA
HETATM   37  H   UNL     1     -40.905  52.157 -49.170  1.00  0.00     0.217 HD
ENDBRANCH  30  36
ENDBRANCH  28  29
ENDBRANCH   5  28
TORSDOF 7
ENDMDL
MODEL 2
REMARK VINA RESULT:      -8.1      1.878      2.186
REMARK  7 active torsions:
REMARK  status: ('A' for Active; 'I' for Inactive)
REMARK    1  A    between atoms: O_2  and  C_3 
REMARK    2  A    between atoms: N_7  and  C_9 
REMARK    3  A    between atoms: C_9  and  C_10 
REMARK    4  A    between atoms: C_11  and  O_12 
REMARK    5  A    between atoms: C_22  and  N_23 
REMARK       I    between atoms: N_23  and  C_24 
REMARK    6  A    between atoms: C_24  and  C_25 
REMARK    7  A    between atoms: C_25  and  C_26 
ROOT
HETATM    1  C   UNL     1     -43.729  57.268 -52.380  1.00  0.00     0.161 C 
HETATM    2  C   UNL     1     -42.325  56.856 -51.782  1.00  0.00     0.019 C 
HETATM    3  C   UNL     1     -41.399  56.315 -52.899  1.00  0.00     0.045 C 
HETATM    4  C   UNL     1     -41.773  54.901 -53.340  1.00  0.00     0.236 C 
HETATM    5  N   UNL     1     -41.852  53.973 -52.159  1.00  0.00    -0.067 N 
HETATM    6  H   UNL     1     -42.229  53.076 -52.510  1.00  0.00     0.280 HD
HETATM    7  C   UNL     1     -42.836  54.452 -51.127  1.00  0.00     0.236 C 
HETATM    8  C   UNL     1     -42.426  55.829 -50.630  1.00  0.00     0.045 C 
HETATM    9  C   UNL     1     -41.794  58.177 -51.269  1.00  0.00    -0.038 A 
HETATM   10  C   UNL     1     -42.582  59.252 -51.686  1.00  0.00    -0.026 A 
HETATM   11  C   UNL     1     -43.712  58.822 -52.575  1.00  0.00     0.148 C 
HETATM   12  C   UNL     1     -40.660  58.403 -50.492  1.00  0.00     0.009 A 
HETATM   13  C   UNL     1     -40.338  59.711 -50.125  1.00  0.00     0.001 A 
HETATM   14  C   UNL     1     -41.140  60.782 -50.534  1.00  0.00     0.001 A 
HETATM   15  C   UNL     1     -42.268  60.557 -51.321  1.00  0.00     0.010 A 
ENDROOT
BRANCH   1  16
HETATM   16  O   UNL     1     -44.771  56.848 -51.478  1.00  0.00    -0.387 OA
HETATM   17  C   UNL     1     -45.572  57.928 -51.000  1.00  0.00     0.202 C 
ENDBRANCH   1  16
BRANCH  11  18
HETATM   18  N   UNL     1     -43.454  59.258 -53.935  1.00  0.00    -0.350 N 
HETATM   19  C   UNL     1     -44.379  59.984 -54.655  1.00  0.00     0.223 C 
HETATM   20  O   UNL     1     -45.552  60.090 -54.304  1.00  0.00    -0.273 OA
HETATM   21  H   UNL     1     -42.486  59.296 -54.234  1.00  0.00     0.163 HD
BRANCH  19  22
HETATM   22  C   UNL     1     -43.831  60.628 -55.916  1.00  0.00     0.148 C 
BRANCH  22  23
HETATM   23  C   UNL     1     -43.414  59.588 -56.908  1.00  0.00    -0.009 A 
HETATM   24  S   UNL     1     -44.499  58.343 -57.375  1.00  0.00    -0.106 SA
HETATM   25  C   UNL     1     -43.321  57.601 -58.367  1.00  0.00     0.050 A 
HETATM   26  C   UNL     1     -42.126  58.287 -58.351  1.00  0.00     0.008 A 
HETATM   27  C   UNL     1     -42.182  59.436 -57.512  1.00  0.00     0.015 A 
ENDBRANCH  22  23
ENDBRANCH  19  22
ENDBRANCH  11  18
BRANCH   5  28
HETATM   28  C   UNL     1     -40.516  53.556 -51.578  1.00  0.00     0.276 C 
BRANCH  28  29
HETATM   29  C   UNL     1     -40.197  52.102 -51.793  1.00  0.00     0.002 A 
HETATM   30  C   UNL     1     -40.087  51.225 -50.706  1.00  0.00     0.073 A 
HETATM   31  C   UNL     1     -39.761  49.883 -50.887  1.00  0.00     0.039 A 
HETATM   32  C   UNL     1     -39.551  49.397 -52.178  1.00  0.00     0.026 A 
HETATM   33  C   UNL     1     -39.666  50.254 -53.270  1.00  0.00     0.034 A 
HETATM   34 CL   UNL     1     -39.422  49.652 -54.862  1.00  0.00    -0.084 Cl
HETATM   35  C   UNL     1     -39.982  51.601 -53.086  1.00  0.00     0.035 A 
BRANCH  30  36
HETATM   36  O   UNL     1     -40.338  51.720 -49.455  1.00  0.00    -0.360 OA
HETATM   37  H   UNL     1     -40.663  52.638 -49.553  1.00  0.00     0.217 HD
ENDBRANCH  30  36
ENDBRANCH  28  29
ENDBRANCH   5  28
TORSDOF 7
ENDMDL
MODEL 3
REMARK VINA RESULT:      -8.1      2.608      3.742
REMARK  7 active torsions:
REMARK  status: ('A' for Active; 'I' for Inactive)
REMARK    1  A    between atoms: O_2  and  C_3 
REMARK    2  A    between atoms: N_7  and  C_9 
REMARK    3  A    between atoms: C_9  and  C_10 
REMARK    4  A    between atoms: C_11  and  O_12 
REMARK    5  A    between atoms: C_22  and  N_23 
REMARK       I    between atoms: N_23  and  C_24 
REMARK    6  A    between atoms: C_24  and  C_25 
REMARK    7  A    between atoms: C_25  and  C_26 
ROOT
HETATM    1  C   UNL     1     -44.932  57.703 -54.693  1.00  0.00     0.161 C 
HETATM    2  C   UNL     1     -43.392  57.460 -54.955  1.00  0.00     0.019 C 
HETATM    3  C   UNL     1     -43.172  56.100 -55.661  1.00  0.00     0.045 C 
HETATM    4  C   UNL     1     -43.331  54.912 -54.714  1.00  0.00     0.236 C 
HETATM    5  N   UNL     1     -42.463  55.076 -53.497  1.00  0.00    -0.067 N 
HETATM    6  H   UNL     1     -42.713  54.310 -52.847  1.00  0.00     0.280 HD
HETATM    7  C   UNL     1     -42.760  56.352 -52.756  1.00  0.00     0.236 C 
HETATM    8  C   UNL     1     -42.531  57.541 -53.674  1.00  0.00     0.045 C 
HETATM    9  C   UNL     1     -43.045  58.592 -55.899  1.00  0.00    -0.038 A 
HETATM   10  C   UNL     1     -44.184  59.262 -56.350  1.00  0.00    -0.026 A 
HETATM   11  C   UNL     1     -45.451  58.653 -55.825  1.00  0.00     0.148 C 
HETATM   12  C   UNL     1     -41.784  58.982 -56.343  1.00  0.00     0.009 A 
HETATM   13  C   UNL     1     -41.678  60.059 -57.226  1.00  0.00     0.001 A 
HETATM   14  C   UNL     1     -42.823  60.736 -57.662  1.00  0.00     0.001 A 
HETATM   15  C   UNL     1     -44.086  60.337 -57.226  1.00  0.00     0.010 A 
ENDROOT
BRANCH   1  16
HETATM   16  O   UNL     1     -45.106  58.278 -53.383  1.00  0.00    -0.387 OA
HETATM   17  C   UNL     1     -45.490  59.652 -53.418  1.00  0.00     0.202 C 
ENDBRANCH   1  16
BRANCH  11  18
HETATM   18  N   UNL     1     -46.151  57.981 -56.905  1.00  0.00    -0.350 N 
HETATM   19  C   UNL     1     -46.934  58.670 -57.806  1.00  0.00     0.223 C 
HETATM   20  O   UNL     1     -47.294  59.830 -57.615  1.00  0.00    -0.273 OA
HETATM   21  H   UNL     1     -45.815  57.063 -57.175  1.00  0.00     0.163 HD
BRANCH  19  22
HETATM   22  C   UNL     1     -47.321  57.876 -59.041  1.00  0.00     0.148 C 
BRANCH  22  23
HETATM   23  C   UNL     1     -46.112  57.283 -59.693  1.00  0.00    -0.009 A 
HETATM   24  S   UNL     1     -46.163  55.699 -60.352  1.00  0.00    -0.106 SA
HETATM   25  C   UNL     1     -44.508  55.753 -60.776  1.00  0.00     0.050 A 
HETATM   26  C   UNL     1     -43.925  56.953 -60.431  1.00  0.00     0.008 A 
HETATM   27  C   UNL     1     -44.853  57.837 -59.810  1.00  0.00     0.015 A 
ENDBRANCH  22  23
ENDBRANCH  19  22
ENDBRANCH  11  18
BRANCH   5  28
HETATM   28  C   UNL     1     -40.984  54.836 -53.725  1.00  0.00     0.276 C 
BRANCH  28  29
HETATM   29  C   UNL     1     -40.509  53.502 -53.215  1.00  0.00     0.002 A 
HETATM   30  C   UNL     1     -40.246  53.309 -51.854  1.00  0.00     0.073 A 
HETATM   31  C   UNL     1     -39.775  52.090 -51.372  1.00  0.00     0.039 A 
HETATM   32  C   UNL     1     -39.571  51.034 -52.262  1.00  0.00     0.026 A 
HETATM   33  C   UNL     1     -39.837  51.207 -53.618  1.00  0.00     0.034 A 
HETATM   34 CL   UNL     1     -39.601  49.902 -54.712  1.00  0.00    -0.084 Cl
HETATM   35  C   UNL     1     -40.299  52.433 -54.100  1.00  0.00     0.035 A 
BRANCH  30  36
HETATM   36  O   UNL     1     -40.492  54.348 -50.998  1.00  0.00    -0.360 OA
HETATM   37  H   UNL     1     -40.363  54.024 -50.084  1.00  0.00     0.217 HD
ENDBRANCH  30  36
ENDBRANCH  28  29
ENDBRANCH   5  28
TORSDOF 7
ENDMDL
MODEL 4
REMARK VINA RESULT:      -8.1      4.151      6.972
REMARK  7 active torsions:
REMARK  status: ('A' for Active; 'I' for Inactive)
REMARK    1  A    between atoms: O_2  and  C_3 
REMARK    2  A    between atoms: N_7  and  C_9 
REMARK    3  A    between atoms: C_9  and  C_10 
REMARK    4  A    between atoms: C_11  and  O_12 
REMARK    5  A    between atoms: C_22  and  N_23 
REMARK       I    between atoms: N_23  and  C_24 
REMARK    6  A    between atoms: C_24  and  C_25 
REMARK    7  A    between atoms: C_25  and  C_26 
ROOT
HETATM    1  C   UNL     1     -42.345  59.175 -51.075  1.00  0.00     0.161 C 
HETATM    2  C   UNL     1     -42.917  58.114 -52.098  1.00  0.00     0.019 C 
HETATM    3  C   UNL     1     -43.724  57.024 -51.352  1.00  0.00     0.045 C 
HETATM    4  C   UNL     1     -42.829  56.027 -50.618  1.00  0.00     0.236 C 
HETATM    5  N   UNL     1     -41.798  55.445 -51.547  1.00  0.00    -0.067 N 
HETATM    6  H   UNL     1     -41.154  54.883 -50.964  1.00  0.00     0.280 HD
HETATM    7  C   UNL     1     -40.946  56.508 -52.186  1.00  0.00     0.236 C 
HETATM    8  C   UNL     1     -41.827  57.460 -52.979  1.00  0.00     0.045 C 
HETATM    9  C   UNL     1     -43.848  58.954 -52.945  1.00  0.00    -0.038 A 
HETATM   10  C   UNL     1     -44.030  60.230 -52.409  1.00  0.00    -0.026 A 
HETATM   11  C   UNL     1     -43.300  60.415 -51.110  1.00  0.00     0.148 C 
HETATM   12  C   UNL     1     -44.509  58.588 -54.115  1.00  0.00     0.009 A 
HETATM   13  C   UNL     1     -45.337  59.519 -54.747  1.00  0.00     0.001 A 
HETATM   14  C   UNL     1     -45.503  60.801 -54.212  1.00  0.00     0.001 A 
HETATM   15  C   UNL     1     -44.850  61.163 -53.035  1.00  0.00     0.010 A 
ENDROOT
BRANCH   1  16
HETATM   16  O   UNL     1     -40.997  59.519 -51.452  1.00  0.00    -0.387 OA
HETATM   17  C   UNL     1     -40.120  59.662 -50.336  1.00  0.00     0.202 C 
ENDBRANCH   1  16
BRANCH  11  18
HETATM   18  N   UNL     1     -44.256  60.473 -50.019  1.00  0.00    -0.350 N 
HETATM   19  C   UNL     1     -44.520  61.646 -49.344  1.00  0.00     0.223 C 
HETATM   20  O   UNL     1     -43.801  62.638 -49.440  1.00  0.00    -0.273 OA
HETATM   21  H   UNL     1     -44.944  59.730 -49.966  1.00  0.00     0.163 HD
BRANCH  19  22
HETATM   22  C   UNL     1     -45.760  61.603 -48.468  1.00  0.00     0.148 C 
BRANCH  22  23
HETATM   23  C   UNL     1     -45.406  61.837 -47.033  1.00  0.00    -0.009 A 
HETATM   24  S   UNL     1     -45.638  63.379 -46.317  1.00  0.00    -0.106 SA
HETATM   25  C   UNL     1     -44.962  62.863 -44.834  1.00  0.00     0.050 A 
HETATM   26  C   UNL     1     -44.572  61.542 -44.876  1.00  0.00     0.008 A 
HETATM   27  C   UNL     1     -44.832  60.949 -46.144  1.00  0.00     0.015 A 
ENDBRANCH  22  23
ENDBRANCH  19  22
ENDBRANCH  11  18
BRANCH   5  28
HETATM   28  C   UNL     1     -42.325  54.417 -52.528  1.00  0.00     0.276 C 
BRANCH  28  29
HETATM   29  C   UNL     1     -41.309  53.372 -52.903  1.00  0.00     0.002 A 
HETATM   30  C   UNL     1     -40.869  53.245 -54.226  1.00  0.00     0.073 A 
HETATM   31  C   UNL     1     -39.953  52.262 -54.594  1.00  0.00     0.039 A 
HETATM   32  C   UNL     1     -39.453  51.392 -53.623  1.00  0.00     0.026 A 
HETATM   33  C   UNL     1     -39.874  51.512 -52.301  1.00  0.00     0.034 A 
HETATM   34 CL   UNL     1     -39.247  50.452 -51.102  1.00  0.00    -0.084 Cl
HETATM   35  C   UNL     1     -40.800  52.491 -51.936  1.00  0.00     0.035 A 
BRANCH  30  36
HETATM   36  O   UNL     1     -41.344  54.135 -55.149  1.00  0.00    -0.360 OA
HETATM   37  H   UNL     1     -41.731  54.894 -54.666  1.00  0.00     0.217 HD
ENDBRANCH  30  36
ENDBRANCH  28  29
ENDBRANCH   5  28
TORSDOF 7
ENDMDL
MODEL 5
REMARK VINA RESULT:      -8.0      4.496      8.046
REMARK  7 active torsions:
REMARK  status: ('A' for Active; 'I' for Inactive)
REMARK    1  A    between atoms: O_2  and  C_3 
REMARK    2  A    between atoms: N_7  and  C_9 
REMARK    3  A    between atoms: C_9  and  C_10 
REMARK    4  A    between atoms: C_11  and  O_12 
REMARK    5  A    between atoms: C_22  and  N_23 
REMARK       I    between atoms: N_23  and  C_24 
REMARK    6  A    between atoms: C_24  and  C_25 
REMARK    7  A    between atoms: C_25  and  C_26 
ROOT
HETATM    1  C   UNL     1     -43.934  57.324 -52.436  1.00  0.00     0.161 C 
HETATM    2  C   UNL     1     -42.788  57.483 -53.513  1.00  0.00     0.019 C 
HETATM    3  C   UNL     1     -43.248  58.418 -54.658  1.00  0.00     0.045 C 
HETATM    4  C   UNL     1     -44.230  57.740 -55.613  1.00  0.00     0.236 C 
HETATM    5  N   UNL     1     -43.673  56.439 -56.122  1.00  0.00    -0.067 N 
HETATM    6  H   UNL     1     -44.431  55.978 -56.654  1.00  0.00     0.280 HD
HETATM    7  C   UNL     1     -43.329  55.494 -55.002  1.00  0.00     0.236 C 
HETATM    8  C   UNL     1     -42.296  56.136 -54.091  1.00  0.00     0.045 C 
HETATM    9  C   UNL     1     -41.689  58.151 -52.715  1.00  0.00    -0.038 A 
HETATM   10  C   UNL     1     -42.136  58.566 -51.459  1.00  0.00    -0.026 A 
HETATM   11  C   UNL     1     -43.597  58.291 -51.252  1.00  0.00     0.148 C 
HETATM   12  C   UNL     1     -40.372  58.390 -53.102  1.00  0.00     0.009 A 
HETATM   13  C   UNL     1     -39.509  59.032 -52.210  1.00  0.00     0.001 A 
HETATM   14  C   UNL     1     -39.960  59.432 -50.947  1.00  0.00     0.001 A 
HETATM   15  C   UNL     1     -41.281  59.202 -50.566  1.00  0.00     0.010 A 
ENDROOT
BRANCH   1  16
HETATM   16  O   UNL     1     -43.997  55.949 -52.010  1.00  0.00    -0.387 OA
HETATM   17  C   UNL     1     -44.056  55.801 -50.591  1.00  0.00     0.202 C 
ENDBRANCH   1  16
BRANCH  11  18
HETATM   18  N   UNL     1     -44.333  59.542 -51.264  1.00  0.00    -0.350 N 
HETATM   19  C   UNL     1     -45.459  59.732 -50.491  1.00  0.00     0.223 C 
HETATM   20  O   UNL     1     -46.052  58.802 -49.950  1.00  0.00    -0.273 OA
HETATM   21  H   UNL     1     -43.844  60.365 -51.600  1.00  0.00     0.163 HD
BRANCH  19  22
HETATM   22  C   UNL     1     -45.907  61.179 -50.377  1.00  0.00     0.148 C 
BRANCH  22  23
HETATM   23  C   UNL     1     -45.822  61.652 -48.960  1.00  0.00    -0.009 A 
HETATM   24  S   UNL     1     -46.966  62.771 -48.342  1.00  0.00    -0.106 SA
HETATM   25  C   UNL     1     -46.171  62.848 -46.831  1.00  0.00     0.050 A 
HETATM   26  C   UNL     1     -45.060  62.035 -46.790  1.00  0.00     0.008 A 
HETATM   27  C   UNL     1     -44.861  61.342 -48.018  1.00  0.00     0.015 A 
ENDBRANCH  22  23
ENDBRANCH  19  22
ENDBRANCH  11  18
BRANCH   5  28
HETATM   28  C   UNL     1     -42.581  56.570 -57.164  1.00  0.00     0.276 C 
BRANCH  28  29
HETATM   29  C   UNL     1     -42.969  57.433 -58.333  1.00  0.00     0.002 A 
HETATM   30  C   UNL     1     -44.057  57.091 -59.145  1.00  0.00     0.073 A 
HETATM   31  C   UNL     1     -44.409  57.863 -60.250  1.00  0.00     0.039 A 
HETATM   32  C   UNL     1     -43.671  59.009 -60.548  1.00  0.00     0.026 A 
HETATM   33  C   UNL     1     -42.592  59.369 -59.744  1.00  0.00     0.034 A 
HETATM   34 CL   UNL     1     -41.692  60.789 -60.102  1.00  0.00    -0.084 Cl
HETATM   35  C   UNL     1     -42.234  58.587 -58.644  1.00  0.00     0.035 A 
BRANCH  30  36
HETATM   36  O   UNL     1     -44.788  55.985 -58.806  1.00  0.00    -0.360 OA
HETATM   37  H   UNL     1     -45.494  56.266 -58.189  1.00  0.00     0.217 HD
ENDBRANCH  30  36
ENDBRANCH  28  29
ENDBRANCH   5  28
TORSDOF 7
ENDMDL
MODEL 6
REMARK VINA RESULT:      -7.9      4.711      9.330
REMARK  7 active torsions:
REMARK  status: ('A' for Active; 'I' for Inactive)
REMARK    1  A    between atoms: O_2  and  C_3 
REMARK    2  A    between atoms: N_7  and  C_9 
REMARK    3  A    between atoms: C_9  and  C_10 
REMARK    4  A    between atoms: C_11  and  O_12 
REMARK    5  A    between atoms: C_22  and  N_23 
REMARK       I    between atoms: N_23  and  C_24 
REMARK    6  A    between atoms: C_24  and  C_25 
REMARK    7  A    between atoms: C_25  and  C_26 
ROOT
HETATM    1  C   UNL     1     -42.840  55.935 -51.552  1.00  0.00     0.161 C 
HETATM    2  C   UNL     1     -42.769  57.195 -52.504  1.00  0.00     0.019 C 
HETATM    3  C   UNL     1     -41.425  57.939 -52.318  1.00  0.00     0.045 C 
HETATM    4  C   UNL     1     -41.375  58.751 -51.025  1.00  0.00     0.236 C 
HETATM    5  N   UNL     1     -42.560  59.672 -50.922  1.00  0.00    -0.067 N 
HETATM    6  H   UNL     1     -42.531  60.091 -49.977  1.00  0.00     0.280 HD
HETATM    7  C   UNL     1     -43.865  58.925 -50.995  1.00  0.00     0.236 C 
HETATM    8  C   UNL     1     -43.951  58.175 -52.315  1.00  0.00     0.045 C 
HETATM    9  C   UNL     1     -42.821  56.562 -53.878  1.00  0.00    -0.038 A 
HETATM   10  C   UNL     1     -42.689  55.174 -53.817  1.00  0.00    -0.026 A 
HETATM   11  C   UNL     1     -42.477  54.680 -52.415  1.00  0.00     0.148 C 
HETATM   12  C   UNL     1     -42.957  57.197 -55.110  1.00  0.00     0.009 A 
HETATM   13  C   UNL     1     -42.977  56.424 -56.274  1.00  0.00     0.001 A 
HETATM   14  C   UNL     1     -42.859  55.031 -56.204  1.00  0.00     0.001 A 
HETATM   15  C   UNL     1     -42.712  54.398 -54.971  1.00  0.00     0.010 A 
ENDROOT
BRANCH   1  16
HETATM   16  O   UNL     1     -44.162  55.840 -50.988  1.00  0.00    -0.387 OA
HETATM   17  C   UNL     1     -44.360  54.658 -50.213  1.00  0.00     0.202 C 
ENDBRANCH   1  16
BRANCH  11  18
HETATM   18  N   UNL     1     -41.110  54.217 -52.264  1.00  0.00    -0.350 N 
HETATM   19  C   UNL     1     -40.710  53.468 -51.179  1.00  0.00     0.223 C 
HETATM   20  O   UNL     1     -41.395  53.360 -50.163  1.00  0.00    -0.273 OA
HETATM   21  H   UNL     1     -40.538  54.181 -53.101  1.00  0.00     0.163 HD
BRANCH  19  22
HETATM   22  C   UNL     1     -39.355  52.801 -51.338  1.00  0.00     0.148 C 
BRANCH  22  23
HETATM   23  C   UNL     1     -39.457  51.586 -52.205  1.00  0.00    -0.009 A 
HETATM   24  S   UNL     1     -39.485  50.017 -51.512  1.00  0.00    -0.106 SA
HETATM   25  C   UNL     1     -39.519  49.269 -53.048  1.00  0.00     0.050 A 
HETATM   26  C   UNL     1     -39.516  50.191 -54.072  1.00  0.00     0.008 A 
HETATM   27  C   UNL     1     -39.484  51.529 -53.585  1.00  0.00     0.015 A 
ENDBRANCH  22  23
ENDBRANCH  19  22
ENDBRANCH  11  18
BRANCH   5  28
HETATM   28  C   UNL     1     -42.507  60.892 -51.819  1.00  0.00     0.276 C 
BRANCH  28  29
HETATM   29  C   UNL     1     -43.469  61.974 -51.414  1.00  0.00     0.002 A 
HETATM   30  C   UNL     1     -44.548  62.317 -52.238  1.00  0.00     0.073 A 
HETATM   31  C   UNL     1     -45.429  63.339 -51.892  1.00  0.00     0.039 A 
HETATM   32  C   UNL     1     -45.241  64.030 -50.693  1.00  0.00     0.026 A 
HETATM   33  C   UNL     1     -44.178  63.694 -49.858  1.00  0.00     0.034 A 
HETATM   34 CL   UNL     1     -43.956  64.533 -48.374  1.00  0.00    -0.084 Cl
HETATM   35  C   UNL     1     -43.290  62.677 -50.212  1.00  0.00     0.035 A 
BRANCH  30  36
HETATM   36  O   UNL     1     -44.732  61.598 -53.387  1.00  0.00    -0.360 OA
HETATM   37  H   UNL     1     -45.016  62.218 -54.090  1.00  0.00     0.217 HD
ENDBRANCH  30  36
ENDBRANCH  28  29
ENDBRANCH   5  28
TORSDOF 7
ENDMDL
MODEL 7
REMARK VINA RESULT:      -7.8      3.040      4.622
REMARK  7 active torsions:
REMARK  status: ('A' for Active; 'I' for Inactive)
REMARK    1  A    between atoms: O_2  and  C_3 
REMARK    2  A    between atoms: N_7  and  C_9 
REMARK    3  A    between atoms: C_9  and  C_10 
REMARK    4  A    between atoms: C_11  and  O_12 
REMARK    5  A    between atoms: C_22  and  N_23 
REMARK       I    between atoms: N_23  and  C_24 
REMARK    6  A    between atoms: C_24  and  C_25 
REMARK    7  A    between atoms: C_25  and  C_26 
ROOT
HETATM    1  C   UNL     1     -43.004  58.861 -55.623  1.00  0.00     0.161 C 
HETATM    2  C   UNL     1     -43.085  57.285 -55.725  1.00  0.00     0.019 C 
HETATM    3  C   UNL     1     -44.426  56.774 -55.144  1.00  0.00     0.045 C 
HETATM    4  C   UNL     1     -44.457  56.807 -53.617  1.00  0.00     0.236 C 
HETATM    5  N   UNL     1     -43.268  56.088 -53.039  1.00  0.00    -0.067 N 
HETATM    6  H   UNL     1     -43.284  56.257 -52.019  1.00  0.00     0.280 HD
HETATM    7  C   UNL     1     -41.966  56.663 -53.528  1.00  0.00     0.236 C 
HETATM    8  C   UNL     1     -41.900  56.564 -55.043  1.00  0.00     0.045 C 
HETATM    9  C   UNL     1     -43.053  57.059 -57.221  1.00  0.00    -0.038 A 
HETATM   10  C   UNL     1     -43.187  58.253 -57.931  1.00  0.00    -0.026 A 
HETATM   11  C   UNL     1     -43.381  59.437 -57.029  1.00  0.00     0.148 C 
HETATM   12  C   UNL     1     -42.933  55.850 -57.903  1.00  0.00     0.009 A 
HETATM   13  C   UNL     1     -42.930  55.856 -59.300  1.00  0.00     0.001 A 
HETATM   14  C   UNL     1     -43.050  57.059 -60.005  1.00  0.00     0.001 A 
HETATM   15  C   UNL     1     -43.182  58.266 -59.322  1.00  0.00     0.010 A 
ENDROOT
BRANCH   1  16
HETATM   16  O   UNL     1     -41.674  59.243 -55.221  1.00  0.00    -0.387 OA
HETATM   17  C   UNL     1     -41.655  60.091 -54.073  1.00  0.00     0.202 C 
ENDBRANCH   1  16
BRANCH  11  18
HETATM   18  N   UNL     1     -44.747  59.915 -57.141  1.00  0.00    -0.350 N 
HETATM   19  C   UNL     1     -45.100  60.910 -58.027  1.00  0.00     0.223 C 
HETATM   20  O   UNL     1     -44.268  61.623 -58.585  1.00  0.00    -0.273 OA
HETATM   21  H   UNL     1     -45.481  59.307 -56.795  1.00  0.00     0.163 HD
BRANCH  19  22
HETATM   22  C   UNL     1     -46.595  61.058 -58.245  1.00  0.00     0.148 C 
BRANCH  22  23
HETATM   23  C   UNL     1     -47.047  60.238 -59.413  1.00  0.00    -0.009 A 
HETATM   24  S   UNL     1     -48.095  60.906 -60.596  1.00  0.00    -0.106 SA
HETATM   25  C   UNL     1     -48.184  59.425 -61.445  1.00  0.00     0.050 A 
HETATM   26  C   UNL     1     -47.428  58.441 -60.848  1.00  0.00     0.008 A 
HETATM   27  C   UNL     1     -46.768  58.912 -59.677  1.00  0.00     0.015 A 
ENDBRANCH  22  23
ENDBRANCH  19  22
ENDBRANCH  11  18
BRANCH   5  28
HETATM   28  C   UNL     1     -43.332  54.576 -53.117  1.00  0.00     0.276 C 
BRANCH  28  29
HETATM   29  C   UNL     1     -42.141  53.894 -52.500  1.00  0.00     0.002 A 
HETATM   30  C   UNL     1     -41.837  54.072 -51.145  1.00  0.00     0.073 A 
HETATM   31  C   UNL     1     -40.720  53.473 -50.568  1.00  0.00     0.039 A 
HETATM   32  C   UNL     1     -39.891  52.668 -51.352  1.00  0.00     0.026 A 
HETATM   33  C   UNL     1     -40.186  52.473 -52.699  1.00  0.00     0.034 A 
HETATM   34 CL   UNL     1     -39.175  51.469 -53.661  1.00  0.00    -0.084 Cl
HETATM   35  C   UNL     1     -41.300  53.084 -53.278  1.00  0.00     0.035 A 
BRANCH  30  36
HETATM   36  O   UNL     1     -42.688  54.834 -50.391  1.00  0.00    -0.360 OA
HETATM   37  H   UNL     1     -42.148  55.370 -49.776  1.00  0.00     0.217 HD
ENDBRANCH  30  36
ENDBRANCH  28  29
ENDBRANCH   5  28
TORSDOF 7
ENDMDL
MODEL 8
REMARK VINA RESULT:      -7.7      3.699      8.039
REMARK  7 active torsions:
REMARK  status: ('A' for Active; 'I' for Inactive)
REMARK    1  A    between atoms: O_2  and  C_3 
REMARK    2  A    between atoms: N_7  and  C_9 
REMARK    3  A    between atoms: C_9  and  C_10 
REMARK    4  A    between atoms: C_11  and  O_12 
REMARK    5  A    between atoms: C_22  and  N_23 
REMARK       I    between atoms: N_23  and  C_24 
REMARK    6  A    between atoms: C_24  and  C_25 
REMARK    7  A    between atoms: C_25  and  C_26 
ROOT
HETATM    1  C   UNL     1     -41.637  58.278 -53.874  1.00  0.00     0.161 C 
HETATM    2  C   UNL     1     -42.971  58.865 -54.487  1.00  0.00     0.019 C 
HETATM    3  C   UNL     1     -43.546  57.901 -55.553  1.00  0.00     0.045 C 
HETATM    4  C   UNL     1     -42.769  57.944 -56.867  1.00  0.00     0.236 C 
HETATM    5  N   UNL     1     -42.648  59.356 -57.374  1.00  0.00    -0.067 N 
HETATM    6  H   UNL     1     -42.010  59.327 -58.187  1.00  0.00     0.280 HD
HETATM    7  C   UNL     1     -41.988  60.263 -56.371  1.00  0.00     0.236 C 
HETATM    8  C   UNL     1     -42.800  60.280 -55.086  1.00  0.00     0.045 C 
HETATM    9  C   UNL     1     -43.887  58.906 -53.283  1.00  0.00    -0.038 A 
HETATM   10  C   UNL     1     -43.335  58.241 -52.187  1.00  0.00    -0.026 A 
HETATM   11  C   UNL     1     -42.009  57.615 -52.505  1.00  0.00     0.148 C 
HETATM   12  C   UNL     1     -45.148  59.488 -53.184  1.00  0.00     0.009 A 
HETATM   13  C   UNL     1     -45.839  59.410 -51.973  1.00  0.00     0.001 A 
HETATM   14  C   UNL     1     -45.274  58.754 -50.873  1.00  0.00     0.001 A 
HETATM   15  C   UNL     1     -44.016  58.162 -50.977  1.00  0.00     0.010 A 
ENDROOT
BRANCH   1  16
HETATM   16  O   UNL     1     -40.678  59.341 -53.717  1.00  0.00    -0.387 OA
HETATM   17  C   UNL     1     -39.757  59.117 -52.650  1.00  0.00     0.202 C 
ENDBRANCH   1  16
BRANCH  11  18
HETATM   18  N   UNL     1     -42.150  56.171 -52.550  1.00  0.00    -0.350 N 
HETATM   19  C   UNL     1     -41.626  55.356 -51.569  1.00  0.00     0.223 C 
HETATM   20  O   UNL     1     -40.805  55.758 -50.747  1.00  0.00    -0.273 OA
HETATM   21  H   UNL     1     -42.893  55.796 -53.131  1.00  0.00     0.163 HD
BRANCH  19  22
HETATM   22  C   UNL     1     -42.138  53.927 -51.598  1.00  0.00     0.148 C 
BRANCH  22  23
HETATM   23  C   UNL     1     -41.247  53.059 -52.431  1.00  0.00    -0.009 A 
HETATM   24  S   UNL     1     -39.957  52.186 -51.713  1.00  0.00    -0.106 SA
HETATM   25  C   UNL     1     -39.436  51.585 -53.226  1.00  0.00     0.050 A 
HETATM   26  C   UNL     1     -40.229  52.033 -54.260  1.00  0.00     0.008 A 
HETATM   27  C   UNL     1     -41.277  52.880 -53.800  1.00  0.00     0.015 A 
ENDBRANCH  22  23
ENDBRANCH  19  22
ENDBRANCH  11  18
BRANCH   5  28
HETATM   28  C   UNL     1     -43.913  59.933 -57.976  1.00  0.00     0.276 C 
BRANCH  28  29
HETATM   29  C   UNL     1     -44.885  58.886 -58.445  1.00  0.00     0.002 A 
HETATM   30  C   UNL     1     -46.178  58.818 -57.910  1.00  0.00     0.073 A 
HETATM   31  C   UNL     1     -47.078  57.834 -58.310  1.00  0.00     0.039 A 
HETATM   32  C   UNL     1     -46.691  56.902 -59.275  1.00  0.00     0.026 A 
HETATM   33  C   UNL     1     -45.413  56.962 -59.824  1.00  0.00     0.034 A 
HETATM   34 CL   UNL     1     -44.940  55.824 -61.023  1.00  0.00    -0.084 Cl
HETATM   35  C   UNL     1     -44.508  57.942 -59.413  1.00  0.00     0.035 A 
BRANCH  30  36
HETATM   36  O   UNL     1     -46.544  59.768 -56.996  1.00  0.00    -0.360 OA
HETATM   37  H   UNL     1     -46.645  60.619 -57.469  1.00  0.00     0.217 HD
ENDBRANCH  30  36
ENDBRANCH  28  29
ENDBRANCH   5  28
TORSDOF 7
ENDMDL
MODEL 9
REMARK VINA RESULT:      -7.6      3.867      6.003
REMARK  7 active torsions:
REMARK  status: ('A' for Active; 'I' for Inactive)
REMARK    1  A    between atoms: O_2  and  C_3 
REMARK    2  A    between atoms: N_7  and  C_9 
REMARK    3  A    between atoms: C_9  and  C_10 
REMARK    4  A    between atoms: C_11  and  O_12 
REMARK    5  A    between atoms: C_22  and  N_23 
REMARK       I    between atoms: N_23  and  C_24 
REMARK    6  A    between atoms: C_24  and  C_25 
REMARK    7  A    between atoms: C_25  and  C_26 
ROOT
HETATM    1  C   UNL     1     -42.129  59.066 -51.216  1.00  0.00     0.161 C 
HETATM    2  C   UNL     1     -42.670  57.908 -52.146  1.00  0.00     0.019 C 
HETATM    3  C   UNL     1     -43.406  56.838 -51.305  1.00  0.00     0.045 C 
HETATM    4  C   UNL     1     -42.448  55.940 -50.525  1.00  0.00     0.236 C 
HETATM    5  N   UNL     1     -41.411  55.342 -51.435  1.00  0.00    -0.067 N 
HETATM    6  H   UNL     1     -40.727  54.855 -50.830  1.00  0.00     0.280 HD
HETATM    7  C   UNL     1     -40.626  56.396 -52.169  1.00  0.00     0.236 C 
HETATM    8  C   UNL     1     -41.569  57.245 -53.005  1.00  0.00     0.045 C 
HETATM    9  C   UNL     1     -43.660  58.641 -53.027  1.00  0.00    -0.038 A 
HETATM   10  C   UNL     1     -43.892  59.942 -52.578  1.00  0.00    -0.026 A 
HETATM   11  C   UNL     1     -43.144  60.254 -51.315  1.00  0.00     0.148 C 
HETATM   12  C   UNL     1     -44.327  58.160 -54.151  1.00  0.00     0.009 A 
HETATM   13  C   UNL     1     -45.213  59.003 -54.827  1.00  0.00     0.001 A 
HETATM   14  C   UNL     1     -45.430  60.311 -54.380  1.00  0.00     0.001 A 
HETATM   15  C   UNL     1     -44.770  60.787 -53.248  1.00  0.00     0.010 A 
ENDROOT
BRANCH   1  16
HETATM   16  O   UNL     1     -40.808  59.446 -51.650  1.00  0.00    -0.387 OA
HETATM   17  C   UNL     1     -39.887  59.612 -50.572  1.00  0.00     0.202 C 
ENDBRANCH   1  16
BRANCH  11  18
HETATM   18  N   UNL     1     -44.078  60.345 -50.207  1.00  0.00    -0.350 N 
HETATM   19  C   UNL     1     -44.297  61.529 -49.534  1.00  0.00     0.223 C 
HETATM   20  O   UNL     1     -43.552  62.500 -49.649  1.00  0.00    -0.273 OA
HETATM   21  H   UNL     1     -44.786  59.622 -50.136  1.00  0.00     0.163 HD
BRANCH  19  22
HETATM   22  C   UNL     1     -45.521  61.526 -48.636  1.00  0.00     0.148 C 
BRANCH  22  23
HETATM   23  C   UNL     1     -46.563  62.468 -49.152  1.00  0.00    -0.009 A 
HETATM   24  S   UNL     1     -47.568  63.338 -48.068  1.00  0.00    -0.106 SA
HETATM   25  C   UNL     1     -48.451  64.042 -49.350  1.00  0.00     0.050 A 
HETATM   26  C   UNL     1     -47.990  63.631 -50.582  1.00  0.00     0.008 A 
HETATM   27  C   UNL     1     -46.897  62.726 -50.467  1.00  0.00     0.015 A 
ENDBRANCH  22  23
ENDBRANCH  19  22
ENDBRANCH  11  18
BRANCH   5  28
HETATM   28  C   UNL     1     -41.907  54.222 -52.327  1.00  0.00     0.276 C 
BRANCH  28  29
HETATM   29  C   UNL     1     -41.046  52.989 -52.276  1.00  0.00     0.002 A 
HETATM   30  C   UNL     1     -40.525  52.530 -51.060  1.00  0.00     0.073 A 
HETATM   31  C   UNL     1     -39.701  51.409 -51.001  1.00  0.00     0.039 A 
HETATM   32  C   UNL     1     -39.396  50.720 -52.176  1.00  0.00     0.026 A 
HETATM   33  C   UNL     1     -39.914  51.158 -53.392  1.00  0.00     0.034 A 
HETATM   34 CL   UNL     1     -39.553  50.300 -54.837  1.00  0.00    -0.084 Cl
HETATM   35  C   UNL     1     -40.732  52.288 -53.450  1.00  0.00     0.035 A 
BRANCH  30  36
HETATM   36  O   UNL     1     -40.873  53.201 -49.919  1.00  0.00    -0.360 OA
HETATM   37  H   UNL     1     -40.387  52.797 -49.171  1.00  0.00     0.217 HD
ENDBRANCH  30  36
ENDBRANCH  28  29
ENDBRANCH   5  28
TORSDOF 7
ENDMDL
MODEL 10
REMARK VINA RESULT:      -7.4      4.428      9.397
REMARK  7 active torsions:
REMARK  status: ('A' for Active; 'I' for Inactive)
REMARK    1  A    between atoms: O_2  and  C_3 
REMARK    2  A    between atoms: N_7  and  C_9 
REMARK    3  A    between atoms: C_9  and  C_10 
REMARK    4  A    between atoms: C_11  and  O_12 
REMARK    5  A    between atoms: C_22  and  N_23 
REMARK       I    between atoms: N_23  and  C_24 
REMARK    6  A    between atoms: C_24  and  C_25 
REMARK    7  A    between atoms: C_25  and  C_26 
ROOT
HETATM    1  C   UNL     1     -43.514  57.116 -52.798  1.00  0.00     0.161 C 
HETATM    2  C   UNL     1     -43.254  57.998 -54.084  1.00  0.00     0.019 C 
HETATM    3  C   UNL     1     -41.877  58.699 -53.990  1.00  0.00     0.045 C 
HETATM    4  C   UNL     1     -41.882  59.880 -53.021  1.00  0.00     0.236 C 
HETATM    5  N   UNL     1     -42.995  60.839 -53.349  1.00  0.00    -0.067 N 
HETATM    6  H   UNL     1     -43.020  61.538 -52.588  1.00  0.00     0.280 HD
HETATM    7  C   UNL     1     -44.343  60.169 -53.332  1.00  0.00     0.236 C 
HETATM    8  C   UNL     1     -44.365  59.040 -54.349  1.00  0.00     0.045 C 
HETATM    9  C   UNL     1     -43.228  56.959 -55.185  1.00  0.00    -0.038 A 
HETATM   10  C   UNL     1     -43.215  55.660 -54.675  1.00  0.00    -0.026 A 
HETATM   11  C   UNL     1     -43.174  55.635 -53.175  1.00  0.00     0.148 C 
HETATM   12  C   UNL     1     -43.197  57.170 -56.562  1.00  0.00     0.009 A 
HETATM   13  C   UNL     1     -43.171  56.065 -57.417  1.00  0.00     0.001 A 
HETATM   14  C   UNL     1     -43.172  54.765 -56.899  1.00  0.00     0.001 A 
HETATM   15  C   UNL     1     -43.192  54.556 -55.521  1.00  0.00     0.010 A 
ENDROOT
BRANCH   1  16
HETATM   16  O   UNL     1     -44.886  57.268 -52.387  1.00  0.00    -0.387 OA
HETATM   17  C   UNL     1     -45.035  57.464 -50.981  1.00  0.00     0.202 C 
ENDBRANCH   1  16
BRANCH  11  18
HETATM   18  N   UNL     1     -41.868  55.181 -52.731  1.00  0.00    -0.350 N 
HETATM   19  C   UNL     1     -41.716  54.064 -51.939  1.00  0.00     0.223 C 
HETATM   20  O   UNL     1     -42.660  53.535 -51.354  1.00  0.00    -0.273 OA
HETATM   21  H   UNL     1     -41.063  55.503 -53.257  1.00  0.00     0.163 HD
BRANCH  19  22
HETATM   22  C   UNL     1     -40.290  53.551 -51.840  1.00  0.00     0.148 C 
BRANCH  22  23
HETATM   23  C   UNL     1     -40.139  52.254 -52.570  1.00  0.00    -0.009 A 
HETATM   24  S   UNL     1     -39.523  50.867 -51.769  1.00  0.00    -0.106 SA
HETATM   25  C   UNL     1     -39.581  49.935 -53.201  1.00  0.00     0.050 A 
HETATM   26  C   UNL     1     -40.065  50.659 -54.269  1.00  0.00     0.008 A 
HETATM   27  C   UNL     1     -40.390  51.996 -53.903  1.00  0.00     0.015 A 
ENDBRANCH  22  23
ENDBRANCH  19  22
ENDBRANCH  11  18
BRANCH   5  28
HETATM   28  C   UNL     1     -42.760  61.702 -54.572  1.00  0.00     0.276 C 
BRANCH  28  29
HETATM   29  C   UNL     1     -43.788  62.785 -54.747  1.00  0.00     0.002 A 
HETATM   30  C   UNL     1     -43.943  63.788 -53.781  1.00  0.00     0.073 A 
HETATM   31  C   UNL     1     -44.913  64.779 -53.914  1.00  0.00     0.039 A 
HETATM   32  C   UNL     1     -45.741  64.782 -55.038  1.00  0.00     0.026 A 
HETATM   33  C   UNL     1     -45.593  63.798 -56.012  1.00  0.00     0.034 A 
HETATM   34 CL   UNL     1     -46.601  63.811 -57.404  1.00  0.00    -0.084 Cl
HETATM   35  C   UNL     1     -44.628  62.799 -55.872  1.00  0.00     0.035 A 
BRANCH  30  36
HETATM   36  O   UNL     1     -43.092  63.783 -52.710  1.00  0.00    -0.360 OA
HETATM   37  H   UNL     1     -43.326  64.540 -52.135  1.00  0.00     0.217 HD
ENDBRANCH  30  36
ENDBRANCH  28  29
ENDBRANCH   5  28
TORSDOF 7
ENDMDL
