MODEL 1
REMARK VINA RESULT:      -8.9      0.000      0.000
REMARK  6 active torsions:
REMARK  status: ('A' for Active; 'I' for Inactive)
REMARK    1  A    between atoms: C_2  and  S_3 
REMARK    2  A    between atoms: S_3  and  C_4 
REMARK    3  A    between atoms: C_5  and  C_6 
REMARK       I    between atoms: C_6  and  N_7 
REMARK    4  A    between atoms: N_7  and  C_8 
REMARK    5  A    between atoms: N_9  and  C_10 
REMARK    6  A    between atoms: C_21  and  C_22 
ROOT
HETATM    1  C   UNL     1     -42.244  55.839 -55.838  1.00  0.00     0.152 A 
HETATM    2  N   UNL     1     -42.478  57.113 -55.340  1.00  0.00    -0.044 N 
HETATM    3  N   UNL     1     -43.180  57.897 -56.213  1.00  0.00    -0.148 NA
HETATM    4  C   UNL     1     -43.382  57.096 -57.269  1.00  0.00     0.115 A 
HETATM    5  C   UNL     1     -42.828  55.812 -57.084  1.00  0.00     0.087 A 
ENDROOT
BRANCH   1   6
HETATM    6  N   UNL     1     -41.545  54.884 -55.119  1.00  0.00    -0.307 N 
HETATM    7  C   UNL     1     -42.089  54.170 -54.070  1.00  0.00     0.258 C 
HETATM    8  O   UNL     1     -43.196  54.309 -53.568  1.00  0.00    -0.267 OA
HETATM    9  H   UNL     1     -40.569  54.729 -55.372  1.00  0.00     0.170 HD
BRANCH   7  10
HETATM   10  C   UNL     1     -41.143  53.208 -53.467  1.00  0.00     0.049 A 
HETATM   11  C   UNL     1     -40.662  53.344 -52.155  1.00  0.00     0.016 A 
HETATM   12  C   UNL     1     -39.787  52.364 -51.662  1.00  0.00     0.019 A 
HETATM   13  C   UNL     1     -39.415  51.272 -52.453  1.00  0.00     0.001 A 
HETATM   14  C   UNL     1     -39.897  51.152 -53.754  1.00  0.00     0.001 A 
HETATM   15  C   UNL     1     -40.757  52.121 -54.265  1.00  0.00     0.018 A 
BRANCH  11  16
HETATM   16  S   UNL     1     -41.031  54.749 -51.112  1.00  0.00    -0.129 SA
BRANCH  16  17
HETATM   17  C   UNL     1     -39.895  54.413 -49.729  1.00  0.00     0.075 C 
HETATM   18  C   UNL     1     -40.663  54.422 -48.419  1.00  0.00     0.016 C 
ENDBRANCH  16  17
ENDBRANCH  11  16
ENDBRANCH   7  10
ENDBRANCH   1   6
BRANCH   2  19
HETATM   19  C   UNL     1     -42.092  57.638 -54.091  1.00  0.00     0.732 A 
HETATM   20  N   UNL     1     -40.903  58.111 -53.850  1.00  0.00    -0.067 NA
HETATM   21  C   UNL     1     -40.732  58.565 -52.573  1.00  0.00     0.065 A 
HETATM   22  C   UNL     1     -41.655  58.562 -51.610  1.00  0.00     0.036 A 
HETATM   23  C   UNL     1     -39.445  59.138 -52.084  1.00  0.00     0.061 C 
HETATM   24  C   UNL     1     -41.171  59.116 -50.325  1.00  0.00     0.047 C 
HETATM   25  C   UNL     1     -42.986  58.031 -51.897  1.00  0.00     0.268 A 
HETATM   26  C   UNL     1     -39.657  59.175 -50.564  1.00  0.00     0.011 C 
HETATM   27  O   UNL     1     -43.879  57.998 -51.063  1.00  0.00    -0.267 OA
HETATM   28  N   UNL     1     -43.122  57.582 -53.181  1.00  0.00    -0.152 N 
HETATM   29  H   UNL     1     -44.014  57.192 -53.472  1.00  0.00     0.188 HD
ENDBRANCH   2  19
BRANCH   4  30
HETATM   30  C   UNL     1     -44.112  57.543 -58.491  1.00  0.00     0.105 A 
HETATM   31  O   UNL     1     -45.392  57.177 -58.805  1.00  0.00    -0.320 OA
HETATM   32  C   UNL     1     -45.706  57.772 -59.983  1.00  0.00     0.142 A 
HETATM   33  C   UNL     1     -44.651  58.523 -60.441  1.00  0.00     0.027 A 
HETATM   34  C   UNL     1     -43.621  58.377 -59.479  1.00  0.00     0.041 A 
ENDBRANCH   4  30
TORSDOF 6
ENDMDL
MODEL 2
REMARK VINA RESULT:      -8.8      1.712      2.225
REMARK  6 active torsions:
REMARK  status: ('A' for Active; 'I' for Inactive)
REMARK    1  A    between atoms: C_2  and  S_3 
REMARK    2  A    between atoms: S_3  and  C_4 
REMARK    3  A    between atoms: C_5  and  C_6 
REMARK       I    between atoms: C_6  and  N_7 
REMARK    4  A    between atoms: N_7  and  C_8 
REMARK    5  A    between atoms: N_9  and  C_10 
REMARK    6  A    between atoms: C_21  and  C_22 
ROOT
HETATM    1  C   UNL     1     -42.537  55.291 -55.425  1.00  0.00     0.152 A 
HETATM    2  N   UNL     1     -42.712  56.661 -55.298  1.00  0.00    -0.044 N 
HETATM    3  N   UNL     1     -43.208  57.234 -56.436  1.00  0.00    -0.148 NA
HETATM    4  C   UNL     1     -43.338  56.202 -57.282  1.00  0.00     0.115 A 
HETATM    5  C   UNL     1     -42.942  54.979 -56.702  1.00  0.00     0.087 A 
ENDROOT
BRANCH   1   6
HETATM    6  N   UNL     1     -42.040  54.513 -54.392  1.00  0.00    -0.307 N 
HETATM    7  C   UNL     1     -40.694  54.396 -54.106  1.00  0.00     0.258 C 
HETATM    8  O   UNL     1     -39.755  54.865 -54.734  1.00  0.00    -0.267 OA
HETATM    9  H   UNL     1     -42.714  53.985 -53.837  1.00  0.00     0.170 HD
BRANCH   7  10
HETATM   10  C   UNL     1     -40.418  53.512 -52.954  1.00  0.00     0.049 A 
HETATM   11  C   UNL     1     -40.634  53.912 -51.626  1.00  0.00     0.016 A 
HETATM   12  C   UNL     1     -40.367  52.992 -50.601  1.00  0.00     0.019 A 
HETATM   13  C   UNL     1     -39.910  51.704 -50.896  1.00  0.00     0.001 A 
HETATM   14  C   UNL     1     -39.697  51.321 -52.218  1.00  0.00     0.001 A 
HETATM   15  C   UNL     1     -39.945  52.224 -53.248  1.00  0.00     0.018 A 
BRANCH  11  16
HETATM   16  S   UNL     1     -41.142  55.565 -51.166  1.00  0.00    -0.129 SA
BRANCH  16  17
HETATM   17  C   UNL     1     -42.710  55.183 -50.325  1.00  0.00     0.075 C 
HETATM   18  C   UNL     1     -43.620  54.405 -51.259  1.00  0.00     0.016 C 
ENDBRANCH  16  17
ENDBRANCH  11  16
ENDBRANCH   7  10
ENDBRANCH   1   6
BRANCH   2  19
HETATM   19  C   UNL     1     -42.455  57.466 -54.171  1.00  0.00     0.732 A 
HETATM   20  N   UNL     1     -43.363  57.777 -53.291  1.00  0.00    -0.067 NA
HETATM   21  C   UNL     1     -42.909  58.575 -52.279  1.00  0.00     0.065 A 
HETATM   22  C   UNL     1     -41.663  59.026 -52.135  1.00  0.00     0.036 A 
HETATM   23  C   UNL     1     -43.787  59.055 -51.173  1.00  0.00     0.061 C 
HETATM   24  C   UNL     1     -41.474  59.875 -50.938  1.00  0.00     0.047 C 
HETATM   25  C   UNL     1     -40.653  58.665 -53.129  1.00  0.00     0.268 A 
HETATM   26  C   UNL     1     -42.925  60.144 -50.518  1.00  0.00     0.011 C 
HETATM   27  O   UNL     1     -39.492  59.041 -53.060  1.00  0.00    -0.267 OA
HETATM   28  N   UNL     1     -41.141  57.871 -54.130  1.00  0.00    -0.152 N 
HETATM   29  H   UNL     1     -40.512  57.571 -54.869  1.00  0.00     0.188 HD
ENDBRANCH   2  19
BRANCH   4  30
HETATM   30  C   UNL     1     -43.844  56.362 -58.676  1.00  0.00     0.105 A 
HETATM   31  O   UNL     1     -44.134  57.565 -59.261  1.00  0.00    -0.320 OA
HETATM   32  C   UNL     1     -44.568  57.309 -60.520  1.00  0.00     0.142 A 
HETATM   33  C   UNL     1     -44.564  55.957 -60.766  1.00  0.00     0.027 A 
HETATM   34  C   UNL     1     -44.097  55.345 -59.578  1.00  0.00     0.041 A 
ENDBRANCH   4  30
TORSDOF 6
ENDMDL
MODEL 3
REMARK VINA RESULT:      -8.7      2.445      6.809
REMARK  6 active torsions:
REMARK  status: ('A' for Active; 'I' for Inactive)
REMARK    1  A    between atoms: C_2  and  S_3 
REMARK    2  A    between atoms: S_3  and  C_4 
REMARK    3  A    between atoms: C_5  and  C_6 
REMARK       I    between atoms: C_6  and  N_7 
REMARK    4  A    between atoms: N_7  and  C_8 
REMARK    5  A    between atoms: N_9  and  C_10 
REMARK    6  A    between atoms: C_21  and  C_22 
ROOT
HETATM    1  C   UNL     1     -41.034  54.477 -54.834  1.00  0.00     0.152 A 
HETATM    2  N   UNL     1     -41.086  54.955 -53.533  1.00  0.00    -0.044 N 
HETATM    3  N   UNL     1     -40.729  54.010 -52.612  1.00  0.00    -0.148 NA
HETATM    4  C   UNL     1     -40.454  52.929 -53.355  1.00  0.00     0.115 A 
HETATM    5  C   UNL     1     -40.622  53.168 -54.735  1.00  0.00     0.087 A 
ENDROOT
BRANCH   1   6
HETATM    6  N   UNL     1     -41.362  55.268 -55.923  1.00  0.00    -0.307 N 
HETATM    7  C   UNL     1     -42.658  55.492 -56.339  1.00  0.00     0.258 C 
HETATM    8  O   UNL     1     -43.682  54.989 -55.895  1.00  0.00    -0.267 OA
HETATM    9  H   UNL     1     -40.592  55.680 -56.451  1.00  0.00     0.170 HD
BRANCH   7  10
HETATM   10  C   UNL     1     -42.747  56.374 -57.522  1.00  0.00     0.049 A 
HETATM   11  C   UNL     1     -42.653  57.772 -57.430  1.00  0.00     0.016 A 
HETATM   12  C   UNL     1     -42.723  58.523 -58.612  1.00  0.00     0.019 A 
HETATM   13  C   UNL     1     -42.867  57.895 -59.853  1.00  0.00     0.001 A 
HETATM   14  C   UNL     1     -42.963  56.507 -59.930  1.00  0.00     0.001 A 
HETATM   15  C   UNL     1     -42.908  55.745 -58.765  1.00  0.00     0.018 A 
BRANCH  11  16
HETATM   16  S   UNL     1     -42.545  58.651 -55.875  1.00  0.00    -0.129 SA
BRANCH  16  17
HETATM   17  C   UNL     1     -44.257  59.253 -55.741  1.00  0.00     0.075 C 
HETATM   18  C   UNL     1     -45.159  58.135 -55.247  1.00  0.00     0.016 C 
ENDBRANCH  16  17
ENDBRANCH  11  16
ENDBRANCH   7  10
ENDBRANCH   1   6
BRANCH   2  19
HETATM   19  C   UNL     1     -41.440  56.248 -53.099  1.00  0.00     0.732 A 
HETATM   20  N   UNL     1     -42.614  56.547 -52.623  1.00  0.00    -0.067 NA
HETATM   21  C   UNL     1     -42.754  57.859 -52.267  1.00  0.00     0.065 A 
HETATM   22  C   UNL     1     -41.817  58.802 -52.364  1.00  0.00     0.036 A 
HETATM   23  C   UNL     1     -44.021  58.413 -51.709  1.00  0.00     0.061 C 
HETATM   24  C   UNL     1     -42.267  60.134 -51.904  1.00  0.00     0.047 C 
HETATM   25  C   UNL     1     -40.501  58.450 -52.898  1.00  0.00     0.268 A 
HETATM   26  C   UNL     1     -43.783  59.928 -51.795  1.00  0.00     0.011 C 
HETATM   27  O   UNL     1     -39.596  59.262 -53.013  1.00  0.00    -0.267 OA
HETATM   28  N   UNL     1     -40.396  57.133 -53.248  1.00  0.00    -0.152 N 
HETATM   29  H   UNL     1     -39.518  56.796 -53.631  1.00  0.00     0.188 HD
ENDBRANCH   2  19
BRANCH   4  30
HETATM   30  C   UNL     1     -40.026  51.630 -52.760  1.00  0.00     0.105 A 
HETATM   31  O   UNL     1     -39.786  51.431 -51.428  1.00  0.00    -0.320 OA
HETATM   32  C   UNL     1     -39.415  50.135 -51.272  1.00  0.00     0.142 A 
HETATM   33  C   UNL     1     -39.412  49.485 -52.482  1.00  0.00     0.027 A 
HETATM   34  C   UNL     1     -39.806  50.448 -53.444  1.00  0.00     0.041 A 
ENDBRANCH   4  30
TORSDOF 6
ENDMDL
MODEL 4
REMARK VINA RESULT:      -8.6      2.624      7.075
REMARK  6 active torsions:
REMARK  status: ('A' for Active; 'I' for Inactive)
REMARK    1  A    between atoms: C_2  and  S_3 
REMARK    2  A    between atoms: S_3  and  C_4 
REMARK    3  A    between atoms: C_5  and  C_6 
REMARK       I    between atoms: C_6  and  N_7 
REMARK    4  A    between atoms: N_7  and  C_8 
REMARK    5  A    between atoms: N_9  and  C_10 
REMARK    6  A    between atoms: C_21  and  C_22 
ROOT
HETATM    1  C   UNL     1     -41.128  55.268 -54.950  1.00  0.00     0.152 A 
HETATM    2  N   UNL     1     -41.518  55.384 -53.624  1.00  0.00    -0.044 N 
HETATM    3  N   UNL     1     -41.253  54.255 -52.899  1.00  0.00    -0.148 NA
HETATM    4  C   UNL     1     -40.694  53.427 -53.792  1.00  0.00     0.115 A 
HETATM    5  C   UNL     1     -40.589  54.008 -55.072  1.00  0.00     0.087 A 
ENDROOT
BRANCH   1   6
HETATM    6  N   UNL     1     -41.309  56.294 -55.863  1.00  0.00    -0.307 N 
HETATM    7  C   UNL     1     -42.520  56.574 -56.464  1.00  0.00     0.258 C 
HETATM    8  O   UNL     1     -43.565  55.946 -56.364  1.00  0.00    -0.267 OA
HETATM    9  H   UNL     1     -40.490  56.847 -56.113  1.00  0.00     0.170 HD
BRANCH   7  10
HETATM   10  C   UNL     1     -42.457  57.719 -57.396  1.00  0.00     0.049 A 
HETATM   11  C   UNL     1     -42.607  57.571 -58.785  1.00  0.00     0.016 A 
HETATM   12  C   UNL     1     -42.558  58.722 -59.586  1.00  0.00     0.019 A 
HETATM   13  C   UNL     1     -42.378  59.986 -59.015  1.00  0.00     0.001 A 
HETATM   14  C   UNL     1     -42.227  60.117 -57.636  1.00  0.00     0.001 A 
HETATM   15  C   UNL     1     -42.261  58.985 -56.826  1.00  0.00     0.018 A 
BRANCH  11  16
HETATM   16  S   UNL     1     -42.764  55.984 -59.595  1.00  0.00    -0.129 SA
BRANCH  16  17
HETATM   17  C   UNL     1     -44.573  55.912 -59.785  1.00  0.00     0.075 C 
HETATM   18  C   UNL     1     -44.932  55.017 -60.958  1.00  0.00     0.016 C 
ENDBRANCH  16  17
ENDBRANCH  11  16
ENDBRANCH   7  10
ENDBRANCH   1   6
BRANCH   2  19
HETATM   19  C   UNL     1     -42.113  56.492 -52.989  1.00  0.00     0.732 A 
HETATM   20  N   UNL     1     -41.741  57.722 -53.200  1.00  0.00    -0.067 NA
HETATM   21  C   UNL     1     -42.441  58.647 -52.479  1.00  0.00     0.065 A 
HETATM   22  C   UNL     1     -43.432  58.390 -51.624  1.00  0.00     0.036 A 
HETATM   23  C   UNL     1     -42.169  60.112 -52.563  1.00  0.00     0.061 C 
HETATM   24  C   UNL     1     -43.996  59.601 -50.989  1.00  0.00     0.047 C 
HETATM   25  C   UNL     1     -43.841  57.004 -51.402  1.00  0.00     0.268 A 
HETATM   26  C   UNL     1     -42.951  60.661 -51.361  1.00  0.00     0.011 C 
HETATM   27  O   UNL     1     -44.742  56.695 -50.635  1.00  0.00    -0.267 OA
HETATM   28  N   UNL     1     -43.119  56.103 -52.134  1.00  0.00    -0.152 N 
HETATM   29  H   UNL     1     -43.330  55.115 -52.043  1.00  0.00     0.188 HD
ENDBRANCH   2  19
BRANCH   4  30
HETATM   30  C   UNL     1     -40.246  52.047 -53.441  1.00  0.00     0.105 A 
HETATM   31  O   UNL     1     -39.811  51.667 -52.201  1.00  0.00    -0.320 OA
HETATM   32  C   UNL     1     -39.489  50.351 -52.271  1.00  0.00     0.142 A 
HETATM   33  C   UNL     1     -39.710  49.866 -53.537  1.00  0.00     0.027 A 
HETATM   34  C   UNL     1     -40.199  50.959 -54.294  1.00  0.00     0.041 A 
ENDBRANCH   4  30
TORSDOF 6
ENDMDL
MODEL 5
REMARK VINA RESULT:      -8.5      2.742      7.106
REMARK  6 active torsions:
REMARK  status: ('A' for Active; 'I' for Inactive)
REMARK    1  A    between atoms: C_2  and  S_3 
REMARK    2  A    between atoms: S_3  and  C_4 
REMARK    3  A    between atoms: C_5  and  C_6 
REMARK       I    between atoms: C_6  and  N_7 
REMARK    4  A    between atoms: N_7  and  C_8 
REMARK    5  A    between atoms: N_9  and  C_10 
REMARK    6  A    between atoms: C_21  and  C_22 
ROOT
HETATM    1  C   UNL     1     -43.001  55.234 -54.956  1.00  0.00     0.152 A 
HETATM    2  N   UNL     1     -42.670  55.713 -53.696  1.00  0.00    -0.044 N 
HETATM    3  N   UNL     1     -41.825  54.876 -53.022  1.00  0.00    -0.148 NA
HETATM    4  C   UNL     1     -41.632  53.862 -53.877  1.00  0.00     0.115 A 
HETATM    5  C   UNL     1     -42.332  54.039 -55.088  1.00  0.00     0.087 A 
ENDROOT
BRANCH   1   6
HETATM    6  N   UNL     1     -43.850  55.923 -55.806  1.00  0.00    -0.307 N 
HETATM    7  C   UNL     1     -43.419  56.881 -56.702  1.00  0.00     0.258 C 
HETATM    8  O   UNL     1     -42.286  57.323 -56.833  1.00  0.00    -0.267 OA
HETATM    9  H   UNL     1     -44.847  55.719 -55.738  1.00  0.00     0.170 HD
BRANCH   7  10
HETATM   10  C   UNL     1     -44.516  57.468 -57.499  1.00  0.00     0.049 A 
HETATM   11  C   UNL     1     -44.646  57.250 -58.880  1.00  0.00     0.016 A 
HETATM   12  C   UNL     1     -45.737  57.829 -59.546  1.00  0.00     0.019 A 
HETATM   13  C   UNL     1     -46.679  58.593 -58.849  1.00  0.00     0.001 A 
HETATM   14  C   UNL     1     -46.536  58.803 -57.479  1.00  0.00     0.001 A 
HETATM   15  C   UNL     1     -45.453  58.247 -56.804  1.00  0.00     0.018 A 
BRANCH  11  16
HETATM   16  S   UNL     1     -43.443  56.352 -59.853  1.00  0.00    -0.129 SA
BRANCH  16  17
HETATM   17  C   UNL     1     -44.509  55.038 -60.525  1.00  0.00     0.075 C 
HETATM   18  C   UNL     1     -44.625  53.905 -59.521  1.00  0.00     0.016 C 
ENDBRANCH  16  17
ENDBRANCH  11  16
ENDBRANCH   7  10
ENDBRANCH   1   6
BRANCH   2  19
HETATM   19  C   UNL     1     -43.089  56.914 -53.089  1.00  0.00     0.732 A 
HETATM   20  N   UNL     1     -42.535  58.068 -53.328  1.00  0.00    -0.067 NA
HETATM   21  C   UNL     1     -43.086  59.105 -52.630  1.00  0.00     0.065 A 
HETATM   22  C   UNL     1     -44.102  59.021 -51.771  1.00  0.00     0.036 A 
HETATM   23  C   UNL     1     -42.596  60.509 -52.749  1.00  0.00     0.061 C 
HETATM   24  C   UNL     1     -44.474  60.318 -51.164  1.00  0.00     0.047 C 
HETATM   25  C   UNL     1     -44.716  57.718 -51.516  1.00  0.00     0.268 A 
HETATM   26  C   UNL     1     -43.282  61.199 -51.561  1.00  0.00     0.011 C 
HETATM   27  O   UNL     1     -45.650  57.568 -50.742  1.00  0.00    -0.267 OA
HETATM   28  N   UNL     1     -44.139  56.702 -52.226  1.00  0.00    -0.152 N 
HETATM   29  H   UNL     1     -44.498  55.759 -52.111  1.00  0.00     0.188 HD
ENDBRANCH   2  19
BRANCH   4  30
HETATM   30  C   UNL     1     -40.770  52.688 -53.552  1.00  0.00     0.105 A 
HETATM   31  O   UNL     1     -40.140  52.499 -52.353  1.00  0.00    -0.320 OA
HETATM   32  C   UNL     1     -39.451  51.333 -52.436  1.00  0.00     0.142 A 
HETATM   33  C   UNL     1     -39.625  50.758 -53.671  1.00  0.00     0.027 A 
HETATM   34  C   UNL     1     -40.476  51.630 -54.393  1.00  0.00     0.041 A 
ENDBRANCH   4  30
TORSDOF 6
ENDMDL
MODEL 6
REMARK VINA RESULT:      -8.5      2.147      5.506
REMARK  6 active torsions:
REMARK  status: ('A' for Active; 'I' for Inactive)
REMARK    1  A    between atoms: C_2  and  S_3 
REMARK    2  A    between atoms: S_3  and  C_4 
REMARK    3  A    between atoms: C_5  and  C_6 
REMARK       I    between atoms: C_6  and  N_7 
REMARK    4  A    between atoms: N_7  and  C_8 
REMARK    5  A    between atoms: N_9  and  C_10 
REMARK    6  A    between atoms: C_21  and  C_22 
ROOT
HETATM    1  C   UNL     1     -42.386  56.805 -55.112  1.00  0.00     0.152 A 
HETATM    2  N   UNL     1     -42.170  55.442 -55.259  1.00  0.00    -0.044 N 
HETATM    3  N   UNL     1     -42.550  54.980 -56.488  1.00  0.00    -0.148 NA
HETATM    4  C   UNL     1     -43.012  56.074 -57.111  1.00  0.00     0.115 A 
HETATM    5  C   UNL     1     -42.927  57.228 -56.304  1.00  0.00     0.087 A 
ENDROOT
BRANCH   1   6
HETATM    6  N   UNL     1     -42.076  57.477 -53.941  1.00  0.00    -0.307 N 
HETATM    7  C   UNL     1     -41.619  58.779 -53.908  1.00  0.00     0.258 C 
HETATM    8  O   UNL     1     -41.343  59.497 -54.860  1.00  0.00    -0.267 OA
HETATM    9  H   UNL     1     -42.173  56.962 -53.066  1.00  0.00     0.170 HD
BRANCH   7  10
HETATM   10  C   UNL     1     -41.364  59.273 -52.539  1.00  0.00     0.049 A 
HETATM   11  C   UNL     1     -42.343  59.936 -51.781  1.00  0.00     0.016 A 
HETATM   12  C   UNL     1     -42.014  60.344 -50.480  1.00  0.00     0.019 A 
HETATM   13  C   UNL     1     -40.747  60.085 -49.946  1.00  0.00     0.001 A 
HETATM   14  C   UNL     1     -39.785  59.429 -50.711  1.00  0.00     0.001 A 
HETATM   15  C   UNL     1     -40.089  59.027 -52.009  1.00  0.00     0.018 A 
BRANCH  11  16
HETATM   16  S   UNL     1     -43.956  60.372 -52.420  1.00  0.00    -0.129 SA
BRANCH  16  17
HETATM   17  C   UNL     1     -45.007  59.413 -51.284  1.00  0.00     0.075 C 
HETATM   18  C   UNL     1     -44.794  57.928 -51.515  1.00  0.00     0.016 C 
ENDBRANCH  16  17
ENDBRANCH  11  16
ENDBRANCH   7  10
ENDBRANCH   1   6
BRANCH   2  19
HETATM   19  C   UNL     1     -41.618  54.547 -54.321  1.00  0.00     0.732 A 
HETATM   20  N   UNL     1     -41.650  54.748 -53.035  1.00  0.00    -0.067 NA
HETATM   21  C   UNL     1     -41.051  53.763 -52.302  1.00  0.00     0.065 A 
HETATM   22  C   UNL     1     -40.473  52.664 -52.789  1.00  0.00     0.036 A 
HETATM   23  C   UNL     1     -40.968  53.801 -50.813  1.00  0.00     0.061 C 
HETATM   24  C   UNL     1     -39.905  51.782 -51.746  1.00  0.00     0.047 C 
HETATM   25  C   UNL     1     -40.449  52.450 -54.235  1.00  0.00     0.268 A 
HETATM   26  C   UNL     1     -39.948  52.693 -50.512  1.00  0.00     0.011 C 
HETATM   27  O   UNL     1     -39.938  51.467 -54.750  1.00  0.00    -0.267 OA
HETATM   28  N   UNL     1     -41.052  53.456 -54.939  1.00  0.00    -0.152 N 
HETATM   29  H   UNL     1     -41.081  53.395 -55.952  1.00  0.00     0.188 HD
ENDBRANCH   2  19
BRANCH   4  30
HETATM   30  C   UNL     1     -43.553  56.042 -58.500  1.00  0.00     0.105 A 
HETATM   31  O   UNL     1     -43.735  57.147 -59.286  1.00  0.00    -0.320 OA
HETATM   32  C   UNL     1     -44.245  56.724 -60.470  1.00  0.00     0.142 A 
HETATM   33  C   UNL     1     -44.397  55.359 -60.469  1.00  0.00     0.027 A 
HETATM   34  C   UNL     1     -43.951  54.916 -59.199  1.00  0.00     0.041 A 
ENDBRANCH   4  30
TORSDOF 6
ENDMDL
MODEL 7
REMARK VINA RESULT:      -8.3      1.908      2.871
REMARK  6 active torsions:
REMARK  status: ('A' for Active; 'I' for Inactive)
REMARK    1  A    between atoms: C_2  and  S_3 
REMARK    2  A    between atoms: S_3  and  C_4 
REMARK    3  A    between atoms: C_5  and  C_6 
REMARK       I    between atoms: C_6  and  N_7 
REMARK    4  A    between atoms: N_7  and  C_8 
REMARK    5  A    between atoms: N_9  and  C_10 
REMARK    6  A    between atoms: C_21  and  C_22 
ROOT
HETATM    1  C   UNL     1     -42.576  56.260 -54.948  1.00  0.00     0.152 A 
HETATM    2  N   UNL     1     -43.368  57.396 -54.860  1.00  0.00    -0.044 N 
HETATM    3  N   UNL     1     -43.951  57.723 -56.053  1.00  0.00    -0.148 NA
HETATM    4  C   UNL     1     -43.511  56.776 -56.893  1.00  0.00     0.115 A 
HETATM    5  C   UNL     1     -42.663  55.846 -56.258  1.00  0.00     0.087 A 
ENDROOT
BRANCH   1   6
HETATM    6  N   UNL     1     -41.888  55.756 -53.857  1.00  0.00    -0.307 N 
HETATM    7  C   UNL     1     -42.440  54.876 -52.948  1.00  0.00     0.258 C 
HETATM    8  O   UNL     1     -43.596  54.477 -52.904  1.00  0.00    -0.267 OA
HETATM    9  H   UNL     1     -40.931  56.081 -53.717  1.00  0.00     0.170 HD
BRANCH   7  10
HETATM   10  C   UNL     1     -41.502  54.482 -51.876  1.00  0.00     0.049 A 
HETATM   11  C   UNL     1     -40.505  53.511 -52.064  1.00  0.00     0.016 A 
HETATM   12  C   UNL     1     -39.645  53.224 -50.993  1.00  0.00     0.019 A 
HETATM   13  C   UNL     1     -39.770  53.896 -49.774  1.00  0.00     0.001 A 
HETATM   14  C   UNL     1     -40.767  54.854 -49.600  1.00  0.00     0.001 A 
HETATM   15  C   UNL     1     -41.637  55.145 -50.647  1.00  0.00     0.018 A 
BRANCH  11  16
HETATM   16  S   UNL     1     -40.332  52.556 -53.567  1.00  0.00    -0.129 SA
BRANCH  16  17
HETATM   17  C   UNL     1     -39.595  51.038 -52.884  1.00  0.00     0.075 C 
HETATM   18  C   UNL     1     -39.690  49.916 -53.903  1.00  0.00     0.016 C 
ENDBRANCH  16  17
ENDBRANCH  11  16
ENDBRANCH   7  10
ENDBRANCH   1   6
BRANCH   2  19
HETATM   19  C   UNL     1     -43.621  58.189 -53.723  1.00  0.00     0.732 A 
HETATM   20  N   UNL     1     -43.095  59.366 -53.541  1.00  0.00    -0.067 NA
HETATM   21  C   UNL     1     -43.463  59.965 -52.369  1.00  0.00     0.065 A 
HETATM   22  C   UNL     1     -44.285  59.455 -51.452  1.00  0.00     0.036 A 
HETATM   23  C   UNL     1     -42.968  61.312 -51.960  1.00  0.00     0.061 C 
HETATM   24  C   UNL     1     -44.490  60.339 -50.283  1.00  0.00     0.047 C 
HETATM   25  C   UNL     1     -44.871  58.134 -51.673  1.00  0.00     0.268 A 
HETATM   26  C   UNL     1     -43.379  61.378 -50.482  1.00  0.00     0.011 C 
HETATM   27  O   UNL     1     -45.633  57.606 -50.877  1.00  0.00    -0.267 OA
HETATM   28  N   UNL     1     -44.480  57.561 -52.851  1.00  0.00    -0.152 N 
HETATM   29  H   UNL     1     -44.834  56.639 -53.090  1.00  0.00     0.188 HD
ENDBRANCH   2  19
BRANCH   4  30
HETATM   30  C   UNL     1     -43.889  56.740 -58.336  1.00  0.00     0.105 A 
HETATM   31  O   UNL     1     -44.984  57.367 -58.864  1.00  0.00    -0.320 OA
HETATM   32  C   UNL     1     -44.999  57.104 -60.195  1.00  0.00     0.142 A 
HETATM   33  C   UNL     1     -43.929  56.316 -60.543  1.00  0.00     0.027 A 
HETATM   34  C   UNL     1     -43.211  56.080 -59.345  1.00  0.00     0.041 A 
ENDBRANCH   4  30
TORSDOF 6
ENDMDL
MODEL 8
REMARK VINA RESULT:      -8.3      2.055      7.158
REMARK  6 active torsions:
REMARK  status: ('A' for Active; 'I' for Inactive)
REMARK    1  A    between atoms: C_2  and  S_3 
REMARK    2  A    between atoms: S_3  and  C_4 
REMARK    3  A    between atoms: C_5  and  C_6 
REMARK       I    between atoms: C_6  and  N_7 
REMARK    4  A    between atoms: N_7  and  C_8 
REMARK    5  A    between atoms: N_9  and  C_10 
REMARK    6  A    between atoms: C_21  and  C_22 
ROOT
HETATM    1  C   UNL     1     -41.164  55.298 -53.168  1.00  0.00     0.152 A 
HETATM    2  N   UNL     1     -41.381  54.991 -54.503  1.00  0.00    -0.044 N 
HETATM    3  N   UNL     1     -41.072  53.693 -54.800  1.00  0.00    -0.148 NA
HETATM    4  C   UNL     1     -40.655  53.189 -53.630  1.00  0.00     0.115 A 
HETATM    5  C   UNL     1     -40.698  54.140 -52.590  1.00  0.00     0.087 A 
ENDROOT
BRANCH   1   6
HETATM    6  N   UNL     1     -41.406  56.561 -52.654  1.00  0.00    -0.307 N 
HETATM    7  C   UNL     1     -42.129  56.789 -51.501  1.00  0.00     0.258 C 
HETATM    8  O   UNL     1     -42.721  55.964 -50.816  1.00  0.00    -0.267 OA
HETATM    9  H   UNL     1     -41.046  57.357 -53.180  1.00  0.00     0.170 HD
BRANCH   7  10
HETATM   10  C   UNL     1     -42.245  58.222 -51.158  1.00  0.00     0.049 A 
HETATM   11  C   UNL     1     -43.444  58.938 -51.303  1.00  0.00     0.016 A 
HETATM   12  C   UNL     1     -43.461  60.289 -50.925  1.00  0.00     0.019 A 
HETATM   13  C   UNL     1     -42.317  60.903 -50.406  1.00  0.00     0.001 A 
HETATM   14  C   UNL     1     -41.134  60.181 -50.271  1.00  0.00     0.001 A 
HETATM   15  C   UNL     1     -41.093  58.842 -50.651  1.00  0.00     0.018 A 
BRANCH  11  16
HETATM   16  S   UNL     1     -44.924  58.245 -52.030  1.00  0.00    -0.129 SA
BRANCH  16  17
HETATM   17  C   UNL     1     -44.701  58.782 -53.755  1.00  0.00     0.075 C 
HETATM   18  C   UNL     1     -45.245  57.724 -54.698  1.00  0.00     0.016 C 
ENDBRANCH  16  17
ENDBRANCH  11  16
ENDBRANCH   7  10
ENDBRANCH   1   6
BRANCH   2  19
HETATM   19  C   UNL     1     -41.870  55.838 -55.518  1.00  0.00     0.732 A 
HETATM   20  N   UNL     1     -41.773  57.136 -55.476  1.00  0.00    -0.067 NA
HETATM   21  C   UNL     1     -42.319  57.770 -56.555  1.00  0.00     0.065 A 
HETATM   22  C   UNL     1     -42.908  57.181 -57.597  1.00  0.00     0.036 A 
HETATM   23  C   UNL     1     -42.324  59.255 -56.702  1.00  0.00     0.061 C 
HETATM   24  C   UNL     1     -43.409  58.135 -58.612  1.00  0.00     0.047 C 
HETATM   25  C   UNL     1     -43.006  55.723 -57.631  1.00  0.00     0.268 A 
HETATM   26  C   UNL     1     -43.312  59.468 -57.858  1.00  0.00     0.011 C 
HETATM   27  O   UNL     1     -43.531  55.117 -58.554  1.00  0.00    -0.267 OA
HETATM   28  N   UNL     1     -42.455  55.119 -56.535  1.00  0.00    -0.152 N 
HETATM   29  H   UNL     1     -42.479  54.106 -56.470  1.00  0.00     0.188 HD
ENDBRANCH   2  19
BRANCH   4  30
HETATM   30  C   UNL     1     -40.197  51.777 -53.478  1.00  0.00     0.105 A 
HETATM   31  O   UNL     1     -39.855  51.199 -52.287  1.00  0.00    -0.320 OA
HETATM   32  C   UNL     1     -39.490  49.918 -52.548  1.00  0.00     0.142 A 
HETATM   33  C   UNL     1     -39.592  49.652 -53.892  1.00  0.00     0.027 A 
HETATM   34  C   UNL     1     -40.049  50.850 -54.494  1.00  0.00     0.041 A 
ENDBRANCH   4  30
TORSDOF 6
ENDMDL
MODEL 9
REMARK VINA RESULT:      -8.3      2.602      5.550
REMARK  6 active torsions:
REMARK  status: ('A' for Active; 'I' for Inactive)
REMARK    1  A    between atoms: C_2  and  S_3 
REMARK    2  A    between atoms: S_3  and  C_4 
REMARK    3  A    between atoms: C_5  and  C_6 
REMARK       I    between atoms: C_6  and  N_7 
REMARK    4  A    between atoms: N_7  and  C_8 
REMARK    5  A    between atoms: N_9  and  C_10 
REMARK    6  A    between atoms: C_21  and  C_22 
ROOT
HETATM    1  C   UNL     1     -43.661  57.660 -53.398  1.00  0.00     0.152 A 
HETATM    2  N   UNL     1     -43.862  58.448 -54.522  1.00  0.00    -0.044 N 
HETATM    3  N   UNL     1     -44.596  59.569 -54.252  1.00  0.00    -0.148 NA
HETATM    4  C   UNL     1     -44.856  59.472 -52.941  1.00  0.00     0.115 A 
HETATM    5  C   UNL     1     -44.295  58.313 -52.366  1.00  0.00     0.087 A 
ENDROOT
BRANCH   1   6
HETATM    6  N   UNL     1     -42.948  56.473 -53.448  1.00  0.00    -0.307 N 
HETATM    7  C   UNL     1     -41.578  56.400 -53.293  1.00  0.00     0.258 C 
HETATM    8  O   UNL     1     -40.791  57.329 -53.174  1.00  0.00    -0.267 OA
HETATM    9  H   UNL     1     -43.473  55.619 -53.637  1.00  0.00     0.170 HD
BRANCH   7  10
HETATM   10  C   UNL     1     -41.054  55.022 -53.383  1.00  0.00     0.049 A 
HETATM   11  C   UNL     1     -40.996  54.161 -52.275  1.00  0.00     0.016 A 
HETATM   12  C   UNL     1     -40.506  52.861 -52.467  1.00  0.00     0.019 A 
HETATM   13  C   UNL     1     -40.099  52.428 -53.733  1.00  0.00     0.001 A 
HETATM   14  C   UNL     1     -40.159  53.293 -54.823  1.00  0.00     0.001 A 
HETATM   15  C   UNL     1     -40.631  54.592 -54.650  1.00  0.00     0.018 A 
BRANCH  11  16
HETATM   16  S   UNL     1     -41.425  54.666 -50.613  1.00  0.00    -0.129 SA
BRANCH  16  17
HETATM   17  C   UNL     1     -39.915  54.155 -49.735  1.00  0.00     0.075 C 
HETATM   18  C   UNL     1     -40.202  54.023 -48.250  1.00  0.00     0.016 C 
ENDBRANCH  16  17
ENDBRANCH  11  16
ENDBRANCH   7  10
ENDBRANCH   1   6
BRANCH   2  19
HETATM   19  C   UNL     1     -43.398  58.221 -55.833  1.00  0.00     0.732 A 
HETATM   20  N   UNL     1     -43.739  57.183 -56.542  1.00  0.00    -0.067 NA
HETATM   21  C   UNL     1     -43.172  57.148 -57.785  1.00  0.00     0.065 A 
HETATM   22  C   UNL     1     -42.343  58.059 -58.296  1.00  0.00     0.036 A 
HETATM   23  C   UNL     1     -43.421  56.042 -58.755  1.00  0.00     0.061 C 
HETATM   24  C   UNL     1     -41.889  57.744 -59.668  1.00  0.00     0.047 C 
HETATM   25  C   UNL     1     -41.973  59.220 -57.488  1.00  0.00     0.268 A 
HETATM   26  C   UNL     1     -42.336  56.283 -59.815  1.00  0.00     0.011 C 
HETATM   27  O   UNL     1     -41.220  60.094 -57.892  1.00  0.00    -0.267 OA
HETATM   28  N   UNL     1     -42.553  59.223 -56.250  1.00  0.00    -0.152 N 
HETATM   29  H   UNL     1     -42.352  59.990 -55.616  1.00  0.00     0.188 HD
ENDBRANCH   2  19
BRANCH   4  30
HETATM   30  C   UNL     1     -45.656  60.490 -52.200  1.00  0.00     0.105 A 
HETATM   31  O   UNL     1     -46.710  61.182 -52.732  1.00  0.00    -0.320 OA
HETATM   32  C   UNL     1     -47.178  62.013 -51.767  1.00  0.00     0.142 A 
HETATM   33  C   UNL     1     -46.446  61.872 -50.613  1.00  0.00     0.027 A 
HETATM   34  C   UNL     1     -45.464  60.889 -50.890  1.00  0.00     0.041 A 
ENDBRANCH   4  30
TORSDOF 6
ENDMDL
MODEL 10
REMARK VINA RESULT:      -8.0      2.437      7.499
REMARK  6 active torsions:
REMARK  status: ('A' for Active; 'I' for Inactive)
REMARK    1  A    between atoms: C_2  and  S_3 
REMARK    2  A    between atoms: S_3  and  C_4 
REMARK    3  A    between atoms: C_5  and  C_6 
REMARK       I    between atoms: C_6  and  N_7 
REMARK    4  A    between atoms: N_7  and  C_8 
REMARK    5  A    between atoms: N_9  and  C_10 
REMARK    6  A    between atoms: C_21  and  C_22 
ROOT
HETATM    1  C   UNL     1     -42.577  55.316 -53.528  1.00  0.00     0.152 A 
HETATM    2  N   UNL     1     -42.155  55.149 -54.839  1.00  0.00    -0.044 N 
HETATM    3  N   UNL     1     -41.394  54.025 -55.007  1.00  0.00    -0.148 NA
HETATM    4  C   UNL     1     -41.343  53.490 -53.779  1.00  0.00     0.115 A 
HETATM    5  C   UNL     1     -42.062  54.247 -52.832  1.00  0.00     0.087 A 
ENDROOT
BRANCH   1   6
HETATM    6  N   UNL     1     -43.355  56.393 -53.136  1.00  0.00    -0.307 N 
HETATM    7  C   UNL     1     -42.892  57.413 -52.329  1.00  0.00     0.258 C 
HETATM    8  O   UNL     1     -41.801  57.493 -51.780  1.00  0.00    -0.267 OA
HETATM    9  H   UNL     1     -44.326  56.407 -53.448  1.00  0.00     0.170 HD
BRANCH   7  10
HETATM   10  C   UNL     1     -43.911  58.448 -52.057  1.00  0.00     0.049 A 
HETATM   11  C   UNL     1     -43.883  59.714 -52.664  1.00  0.00     0.016 A 
HETATM   12  C   UNL     1     -44.910  60.620 -52.362  1.00  0.00     0.019 A 
HETATM   13  C   UNL     1     -45.943  60.267 -51.488  1.00  0.00     0.001 A 
HETATM   14  C   UNL     1     -45.957  59.009 -50.890  1.00  0.00     0.001 A 
HETATM   15  C   UNL     1     -44.939  58.100 -51.168  1.00  0.00     0.018 A 
BRANCH  11  16
HETATM   16  S   UNL     1     -42.556  60.264 -53.731  1.00  0.00    -0.129 SA
BRANCH  16  17
HETATM   17  C   UNL     1     -43.048  62.001 -53.963  1.00  0.00     0.075 C 
HETATM   18  C   UNL     1     -43.442  62.235 -55.411  1.00  0.00     0.016 C 
ENDBRANCH  16  17
ENDBRANCH  11  16
ENDBRANCH   7  10
ENDBRANCH   1   6
BRANCH   2  19
HETATM   19  C   UNL     1     -42.429  55.973 -55.949  1.00  0.00     0.732 A 
HETATM   20  N   UNL     1     -42.134  57.241 -55.989  1.00  0.00    -0.067 NA
HETATM   21  C   UNL     1     -42.492  57.859 -57.153  1.00  0.00     0.065 A 
HETATM   22  C   UNL     1     -43.087  57.282 -58.198  1.00  0.00     0.036 A 
HETATM   23  C   UNL     1     -42.253  59.310 -57.404  1.00  0.00     0.061 C 
HETATM   24  C   UNL     1     -43.355  58.213 -59.316  1.00  0.00     0.047 C 
HETATM   25  C   UNL     1     -43.409  55.857 -58.139  1.00  0.00     0.268 A 
HETATM   26  C   UNL     1     -43.107  59.574 -58.653  1.00  0.00     0.011 C 
HETATM   27  O   UNL     1     -43.952  55.262 -59.058  1.00  0.00    -0.267 OA
HETATM   28  N   UNL     1     -43.042  55.269 -56.960  1.00  0.00    -0.152 N 
HETATM   29  H   UNL     1     -43.229  54.280 -56.826  1.00  0.00     0.188 HD
ENDBRANCH   2  19
BRANCH   4  30
HETATM   30  C   UNL     1     -40.595  52.234 -53.479  1.00  0.00     0.105 A 
HETATM   31  O   UNL     1     -40.005  51.953 -52.276  1.00  0.00    -0.320 OA
HETATM   32  C   UNL     1     -39.423  50.733 -52.386  1.00  0.00     0.142 A 
HETATM   33  C   UNL     1     -39.626  50.212 -53.641  1.00  0.00     0.027 A 
HETATM   34  C   UNL     1     -40.383  51.179 -54.347  1.00  0.00     0.041 A 
ENDBRANCH   4  30
TORSDOF 6
ENDMDL
