MODEL 1
REMARK VINA RESULT:      -8.2      0.000      0.000
REMARK  7 active torsions:
REMARK  status: ('A' for Active; 'I' for Inactive)
REMARK    1  A    between atoms: C_2  and  C_3 
REMARK    2  A    between atoms: C_2  and  C_9 
REMARK    3  A    between atoms: C_9  and  C_10 
REMARK       I    between atoms: C_10  and  N_11 
REMARK    4  A    between atoms: N_11  and  N_12 
REMARK       I    between atoms: N_12  and  C_13 
REMARK    5  A    between atoms: C_13  and  C_14 
REMARK    6  A    between atoms: C_18  and  C_19 
REMARK    7  A    between atoms: C_22  and  O_23 
ROOT
HETATM    1  N   UNL     1     -42.114  56.271 -56.934  1.00  0.00    -0.262 N 
HETATM    2  C   UNL     1     -43.127  57.204 -56.940  1.00  0.00     0.288 C 
HETATM    3  O   UNL     1     -44.155  57.055 -56.280  1.00  0.00    -0.264 OA
HETATM    4  H   UNL     1     -41.247  56.369 -57.457  1.00  0.00     0.190 HD
ENDROOT
BRANCH   2   5
HETATM    5  C   UNL     1     -42.893  58.358 -57.764  1.00  0.00     0.121 A 
HETATM    6  N   UNL     1     -43.905  58.988 -58.432  1.00  0.00    -0.272 N 
HETATM    7  H   UNL     1     -44.887  58.729 -58.436  1.00  0.00     0.189 HD
HETATM    8  N   UNL     1     -43.515  60.058 -59.137  1.00  0.00    -0.174 NA
HETATM    9  C   UNL     1     -42.191  60.143 -58.933  1.00  0.00     0.089 A 
HETATM   10  C   UNL     1     -41.762  59.087 -58.078  1.00  0.00     0.071 A 
BRANCH   9  11
HETATM   11  C   UNL     1     -41.382  61.215 -59.529  1.00  0.00    -0.005 A 
HETATM   12  C   UNL     1     -40.500  61.964 -58.738  1.00  0.00     0.016 A 
HETATM   13  C   UNL     1     -39.710  62.970 -59.304  1.00  0.00     0.037 A 
HETATM   14  C   UNL     1     -39.781  63.249 -60.669  1.00  0.00     0.068 A 
HETATM   15  C   UNL     1     -40.662  62.519 -61.464  1.00  0.00     0.037 A 
HETATM   16  C   UNL     1     -41.456  61.511 -60.898  1.00  0.00     0.016 A 
BRANCH  14  17
HETATM   17  O   UNL     1     -38.952  64.248 -61.095  1.00  0.00    -0.356 OA
HETATM   18  C   UNL     1     -38.044  64.782 -60.139  1.00  0.00     0.210 C 
ENDBRANCH  14  17
ENDBRANCH   9  11
ENDBRANCH   2   5
BRANCH   1  19
HETATM   19  N   UNL     1     -42.222  55.141 -56.121  1.00  0.00    -0.267 N 
HETATM   20  C   UNL     1     -41.442  55.090 -54.984  1.00  0.00     0.236 C 
HETATM   21  O   UNL     1     -40.613  55.959 -54.720  1.00  0.00    -0.272 OA
HETATM   22  H   UNL     1     -42.956  54.471 -56.345  1.00  0.00     0.190 HD
BRANCH  20  23
HETATM   23  C   UNL     1     -41.706  53.865 -54.133  1.00  0.00     0.113 C 
BRANCH  23  24
HETATM   24  C   UNL     1     -40.608  53.614 -53.084  1.00  0.00     0.023 C 
HETATM   25  C   UNL     1     -41.048  54.044 -51.677  1.00  0.00     0.015 C 
BRANCH  24  26
HETATM   26  C   UNL     1     -40.192  52.150 -53.088  1.00  0.00    -0.054 A 
HETATM   27  C   UNL     1     -39.808  51.489 -51.911  1.00  0.00     0.007 A 
HETATM   28  C   UNL     1     -39.428  50.145 -51.941  1.00  0.00     0.001 A 
HETATM   29  C   UNL     1     -39.426  49.446 -53.146  1.00  0.00     0.000 A 
HETATM   30  C   UNL     1     -39.805  50.090 -54.322  1.00  0.00     0.001 A 
HETATM   31  C   UNL     1     -40.186  51.433 -54.293  1.00  0.00     0.007 A 
ENDBRANCH  24  26
ENDBRANCH  23  24
ENDBRANCH  20  23
ENDBRANCH   1  19
TORSDOF 7
ENDMDL
MODEL 2
REMARK VINA RESULT:      -8.1      7.050     11.572
REMARK  7 active torsions:
REMARK  status: ('A' for Active; 'I' for Inactive)
REMARK    1  A    between atoms: C_2  and  C_3 
REMARK    2  A    between atoms: C_2  and  C_9 
REMARK    3  A    between atoms: C_9  and  C_10 
REMARK       I    between atoms: C_10  and  N_11 
REMARK    4  A    between atoms: N_11  and  N_12 
REMARK       I    between atoms: N_12  and  C_13 
REMARK    5  A    between atoms: C_13  and  C_14 
REMARK    6  A    between atoms: C_18  and  C_19 
REMARK    7  A    between atoms: C_22  and  O_23 
ROOT
HETATM    1  N   UNL     1     -43.525  58.808 -50.508  1.00  0.00    -0.262 N 
HETATM    2  C   UNL     1     -42.349  58.611 -51.198  1.00  0.00     0.288 C 
HETATM    3  O   UNL     1     -41.789  59.522 -51.805  1.00  0.00    -0.264 OA
HETATM    4  H   UNL     1     -44.006  58.081 -49.985  1.00  0.00     0.190 HD
ENDROOT
BRANCH   2   5
HETATM    5  C   UNL     1     -41.828  57.272 -51.152  1.00  0.00     0.121 A 
HETATM    6  N   UNL     1     -41.550  56.644 -49.971  1.00  0.00    -0.272 N 
HETATM    7  H   UNL     1     -41.662  57.025 -49.036  1.00  0.00     0.189 HD
HETATM    8  N   UNL     1     -41.091  55.393 -50.109  1.00  0.00    -0.174 NA
HETATM    9  C   UNL     1     -41.059  55.181 -51.434  1.00  0.00     0.089 A 
HETATM   10  C   UNL     1     -41.511  56.343 -52.123  1.00  0.00     0.071 A 
BRANCH   9  11
HETATM   11  C   UNL     1     -40.625  53.898 -52.003  1.00  0.00    -0.005 A 
HETATM   12  C   UNL     1     -40.012  52.932 -51.194  1.00  0.00     0.016 A 
HETATM   13  C   UNL     1     -39.616  51.700 -51.725  1.00  0.00     0.037 A 
HETATM   14  C   UNL     1     -39.824  51.405 -53.072  1.00  0.00     0.068 A 
HETATM   15  C   UNL     1     -40.422  52.361 -53.890  1.00  0.00     0.037 A 
HETATM   16  C   UNL     1     -40.819  53.598 -53.359  1.00  0.00     0.016 A 
BRANCH  14  17
HETATM   17  O   UNL     1     -39.400  50.165 -53.461  1.00  0.00    -0.356 OA
HETATM   18  C   UNL     1     -39.736  49.755 -54.781  1.00  0.00     0.210 C 
ENDBRANCH  14  17
ENDBRANCH   9  11
ENDBRANCH   2   5
BRANCH   1  19
HETATM   19  N   UNL     1     -44.082  60.087 -50.445  1.00  0.00    -0.267 N 
HETATM   20  C   UNL     1     -45.415  60.192 -50.106  1.00  0.00     0.236 C 
HETATM   21  O   UNL     1     -46.128  59.204 -49.942  1.00  0.00    -0.272 OA
HETATM   22  H   UNL     1     -43.447  60.878 -50.534  1.00  0.00     0.190 HD
BRANCH  20  23
HETATM   23  C   UNL     1     -45.888  61.626 -49.980  1.00  0.00     0.113 C 
BRANCH  23  24
HETATM   24  C   UNL     1     -44.792  62.578 -49.471  1.00  0.00     0.023 C 
HETATM   25  C   UNL     1     -44.819  63.928 -50.201  1.00  0.00     0.015 C 
BRANCH  24  26
HETATM   26  C   UNL     1     -44.918  62.781 -47.968  1.00  0.00    -0.054 A 
HETATM   27  C   UNL     1     -44.936  64.062 -47.395  1.00  0.00     0.007 A 
HETATM   28  C   UNL     1     -45.050  64.223 -46.012  1.00  0.00     0.001 A 
HETATM   29  C   UNL     1     -45.149  63.106 -45.185  1.00  0.00     0.000 A 
HETATM   30  C   UNL     1     -45.134  61.828 -45.740  1.00  0.00     0.001 A 
HETATM   31  C   UNL     1     -45.019  61.666 -47.122  1.00  0.00     0.007 A 
ENDBRANCH  24  26
ENDBRANCH  23  24
ENDBRANCH  20  23
ENDBRANCH   1  19
TORSDOF 7
ENDMDL
MODEL 3
REMARK VINA RESULT:      -8.0     16.835     21.412
REMARK  7 active torsions:
REMARK  status: ('A' for Active; 'I' for Inactive)
REMARK    1  A    between atoms: C_2  and  C_3 
REMARK    2  A    between atoms: C_2  and  C_9 
REMARK    3  A    between atoms: C_9  and  C_10 
REMARK       I    between atoms: C_10  and  N_11 
REMARK    4  A    between atoms: N_11  and  N_12 
REMARK       I    between atoms: N_12  and  C_13 
REMARK    5  A    between atoms: C_13  and  C_14 
REMARK    6  A    between atoms: C_18  and  C_19 
REMARK    7  A    between atoms: C_22  and  O_23 
ROOT
HETATM    1  N   UNL     1     -33.891  41.056 -53.146  1.00  0.00    -0.262 N 
HETATM    2  C   UNL     1     -34.109  39.948 -52.358  1.00  0.00     0.288 C 
HETATM    3  O   UNL     1     -35.001  39.137 -52.605  1.00  0.00    -0.264 OA
HETATM    4  H   UNL     1     -33.155  41.737 -52.978  1.00  0.00     0.190 HD
ENDROOT
BRANCH   2   5
HETATM    5  C   UNL     1     -33.221  39.808 -51.237  1.00  0.00     0.121 A 
HETATM    6  N   UNL     1     -31.889  40.098 -51.328  1.00  0.00    -0.272 N 
HETATM    7  H   UNL     1     -31.390  40.421 -52.151  1.00  0.00     0.189 HD
HETATM    8  N   UNL     1     -31.211  39.933 -50.184  1.00  0.00    -0.174 NA
HETATM    9  C   UNL     1     -32.128  39.514 -49.297  1.00  0.00     0.089 A 
HETATM   10  C   UNL     1     -33.404  39.418 -49.924  1.00  0.00     0.071 A 
BRANCH   9  11
HETATM   11  C   UNL     1     -31.780  39.235 -47.897  1.00  0.00    -0.005 A 
HETATM   12  C   UNL     1     -30.703  39.891 -47.288  1.00  0.00     0.016 A 
HETATM   13  C   UNL     1     -30.381  39.646 -45.948  1.00  0.00     0.037 A 
HETATM   14  C   UNL     1     -31.126  38.744 -45.189  1.00  0.00     0.068 A 
HETATM   15  C   UNL     1     -32.193  38.077 -45.787  1.00  0.00     0.037 A 
HETATM   16  C   UNL     1     -32.517  38.320 -47.130  1.00  0.00     0.016 A 
BRANCH  14  17
HETATM   17  O   UNL     1     -30.713  38.604 -43.894  1.00  0.00    -0.356 OA
HETATM   18  C   UNL     1     -29.575  39.360 -43.497  1.00  0.00     0.210 C 
ENDBRANCH  14  17
ENDBRANCH   9  11
ENDBRANCH   2   5
BRANCH   1  19
HETATM   19  N   UNL     1     -34.665  41.251 -54.292  1.00  0.00    -0.267 N 
HETATM   20  C   UNL     1     -35.713  42.144 -54.217  1.00  0.00     0.236 C 
HETATM   21  O   UNL     1     -36.025  42.699 -53.164  1.00  0.00    -0.272 OA
HETATM   22  H   UNL     1     -34.342  40.816 -55.154  1.00  0.00     0.190 HD
BRANCH  20  23
HETATM   23  C   UNL     1     -36.425  42.343 -55.539  1.00  0.00     0.113 C 
BRANCH  23  24
HETATM   24  C   UNL     1     -37.339  41.164 -55.913  1.00  0.00     0.023 C 
HETATM   25  C   UNL     1     -38.739  41.305 -55.300  1.00  0.00     0.015 C 
BRANCH  24  26
HETATM   26  C   UNL     1     -37.432  41.019 -57.425  1.00  0.00    -0.054 A 
HETATM   27  C   UNL     1     -37.885  39.835 -58.028  1.00  0.00     0.007 A 
HETATM   28  C   UNL     1     -37.958  39.727 -59.418  1.00  0.00     0.001 A 
HETATM   29  C   UNL     1     -37.581  40.799 -60.224  1.00  0.00     0.000 A 
HETATM   30  C   UNL     1     -37.131  41.981 -59.640  1.00  0.00     0.001 A 
HETATM   31  C   UNL     1     -37.057  42.091 -58.250  1.00  0.00     0.007 A 
ENDBRANCH  24  26
ENDBRANCH  23  24
ENDBRANCH  20  23
ENDBRANCH   1  19
TORSDOF 7
ENDMDL
MODEL 4
REMARK VINA RESULT:      -8.0      4.260      5.855
REMARK  7 active torsions:
REMARK  status: ('A' for Active; 'I' for Inactive)
REMARK    1  A    between atoms: C_2  and  C_3 
REMARK    2  A    between atoms: C_2  and  C_9 
REMARK    3  A    between atoms: C_9  and  C_10 
REMARK       I    between atoms: C_10  and  N_11 
REMARK    4  A    between atoms: N_11  and  N_12 
REMARK       I    between atoms: N_12  and  C_13 
REMARK    5  A    between atoms: C_13  and  C_14 
REMARK    6  A    between atoms: C_18  and  C_19 
REMARK    7  A    between atoms: C_22  and  O_23 
ROOT
HETATM    1  N   UNL     1     -43.604  55.386 -57.090  1.00  0.00    -0.262 N 
HETATM    2  C   UNL     1     -43.253  56.624 -57.581  1.00  0.00     0.288 C 
HETATM    3  O   UNL     1     -42.257  57.225 -57.181  1.00  0.00    -0.264 OA
HETATM    4  H   UNL     1     -44.412  54.857 -57.408  1.00  0.00     0.190 HD
ENDROOT
BRANCH   2   5
HETATM    5  C   UNL     1     -44.128  57.154 -58.590  1.00  0.00     0.121 A 
HETATM    6  N   UNL     1     -43.761  58.200 -59.389  1.00  0.00    -0.272 N 
HETATM    7  H   UNL     1     -42.882  58.708 -59.364  1.00  0.00     0.189 HD
HETATM    8  N   UNL     1     -44.687  58.555 -60.290  1.00  0.00    -0.174 NA
HETATM    9  C   UNL     1     -45.712  57.713 -60.081  1.00  0.00     0.089 A 
HETATM   10  C   UNL     1     -45.399  56.820 -59.016  1.00  0.00     0.071 A 
BRANCH   9  11
HETATM   11  C   UNL     1     -46.935  57.764 -60.894  1.00  0.00    -0.005 A 
HETATM   12  C   UNL     1     -47.537  58.993 -61.195  1.00  0.00     0.016 A 
HETATM   13  C   UNL     1     -48.689  59.050 -61.987  1.00  0.00     0.037 A 
HETATM   14  C   UNL     1     -49.263  57.885 -62.495  1.00  0.00     0.068 A 
HETATM   15  C   UNL     1     -48.680  56.656 -62.193  1.00  0.00     0.037 A 
HETATM   16  C   UNL     1     -47.526  56.597 -61.398  1.00  0.00     0.016 A 
BRANCH  14  17
HETATM   17  O   UNL     1     -50.378  58.080 -63.260  1.00  0.00    -0.356 OA
HETATM   18  C   UNL     1     -50.464  59.311 -63.970  1.00  0.00     0.210 C 
ENDBRANCH  14  17
ENDBRANCH   9  11
ENDBRANCH   2   5
BRANCH   1  19
HETATM   19  N   UNL     1     -42.786  54.760 -56.147  1.00  0.00    -0.267 N 
HETATM   20  C   UNL     1     -43.144  54.859 -54.819  1.00  0.00     0.236 C 
HETATM   21  O   UNL     1     -44.098  55.539 -54.448  1.00  0.00    -0.272 OA
HETATM   22  H   UNL     1     -42.038  54.164 -56.498  1.00  0.00     0.190 HD
BRANCH  20  23
HETATM   23  C   UNL     1     -42.238  54.069 -53.896  1.00  0.00     0.113 C 
BRANCH  23  24
HETATM   24  C   UNL     1     -41.048  53.426 -54.628  1.00  0.00     0.023 C 
HETATM   25  C   UNL     1     -39.943  54.447 -54.938  1.00  0.00     0.015 C 
BRANCH  24  26
HETATM   26  C   UNL     1     -40.488  52.265 -53.818  1.00  0.00    -0.054 A 
HETATM   27  C   UNL     1     -40.107  52.416 -52.476  1.00  0.00     0.007 A 
HETATM   28  C   UNL     1     -39.593  51.335 -51.755  1.00  0.00     0.001 A 
HETATM   29  C   UNL     1     -39.456  50.091 -52.366  1.00  0.00     0.000 A 
HETATM   30  C   UNL     1     -39.832  49.926 -53.697  1.00  0.00     0.001 A 
HETATM   31  C   UNL     1     -40.344  51.005 -54.419  1.00  0.00     0.007 A 
ENDBRANCH  24  26
ENDBRANCH  23  24
ENDBRANCH  20  23
ENDBRANCH   1  19
TORSDOF 7
ENDMDL
MODEL 5
REMARK VINA RESULT:      -8.0      1.886     10.840
REMARK  7 active torsions:
REMARK  status: ('A' for Active; 'I' for Inactive)
REMARK    1  A    between atoms: C_2  and  C_3 
REMARK    2  A    between atoms: C_2  and  C_9 
REMARK    3  A    between atoms: C_9  and  C_10 
REMARK       I    between atoms: C_10  and  N_11 
REMARK    4  A    between atoms: N_11  and  N_12 
REMARK       I    between atoms: N_12  and  C_13 
REMARK    5  A    between atoms: C_13  and  C_14 
REMARK    6  A    between atoms: C_18  and  C_19 
REMARK    7  A    between atoms: C_22  and  O_23 
ROOT
HETATM    1  N   UNL     1     -41.990  57.946 -57.472  1.00  0.00    -0.262 N 
HETATM    2  C   UNL     1     -43.083  57.282 -56.960  1.00  0.00     0.288 C 
HETATM    3  O   UNL     1     -44.231  57.694 -57.123  1.00  0.00    -0.264 OA
HETATM    4  H   UNL     1     -41.030  57.626 -57.368  1.00  0.00     0.190 HD
ENDROOT
BRANCH   2   5
HETATM    5  C   UNL     1     -42.784  56.079 -56.233  1.00  0.00     0.121 A 
HETATM    6  N   UNL     1     -43.485  54.922 -56.429  1.00  0.00    -0.272 N 
HETATM    7  H   UNL     1     -44.261  54.780 -57.067  1.00  0.00     0.189 HD
HETATM    8  N   UNL     1     -43.062  53.892 -55.684  1.00  0.00    -0.174 NA
HETATM    9  C   UNL     1     -42.042  54.382 -54.961  1.00  0.00     0.089 A 
HETATM   10  C   UNL     1     -41.841  55.758 -55.276  1.00  0.00     0.071 A 
BRANCH   9  11
HETATM   11  C   UNL     1     -41.287  53.546 -54.019  1.00  0.00    -0.005 A 
HETATM   12  C   UNL     1     -40.600  52.411 -54.470  1.00  0.00     0.016 A 
HETATM   13  C   UNL     1     -39.860  51.623 -53.582  1.00  0.00     0.037 A 
HETATM   14  C   UNL     1     -39.788  51.951 -52.228  1.00  0.00     0.068 A 
HETATM   15  C   UNL     1     -40.475  53.071 -51.766  1.00  0.00     0.037 A 
HETATM   16  C   UNL     1     -41.219  53.862 -52.655  1.00  0.00     0.016 A 
BRANCH  14  17
HETATM   17  O   UNL     1     -39.025  51.106 -51.472  1.00  0.00    -0.356 OA
HETATM   18  C   UNL     1     -39.532  49.792 -51.267  1.00  0.00     0.210 C 
ENDBRANCH  14  17
ENDBRANCH   9  11
ENDBRANCH   2   5
BRANCH   1  19
HETATM   19  N   UNL     1     -42.179  59.094 -58.243  1.00  0.00    -0.267 N 
HETATM   20  C   UNL     1     -41.879  60.312 -57.669  1.00  0.00     0.236 C 
HETATM   21  O   UNL     1     -41.534  60.412 -56.493  1.00  0.00    -0.272 OA
HETATM   22  H   UNL     1     -42.413  58.965 -59.226  1.00  0.00     0.190 HD
BRANCH  20  23
HETATM   23  C   UNL     1     -42.035  61.478 -58.624  1.00  0.00     0.113 C 
BRANCH  23  24
HETATM   24  C   UNL     1     -41.404  61.215 -60.002  1.00  0.00     0.023 C 
HETATM   25  C   UNL     1     -42.461  61.128 -61.112  1.00  0.00     0.015 C 
BRANCH  24  26
HETATM   26  C   UNL     1     -40.373  62.287 -60.329  1.00  0.00    -0.054 A 
HETATM   27  C   UNL     1     -39.631  62.929 -59.326  1.00  0.00     0.007 A 
HETATM   28  C   UNL     1     -38.693  63.911 -59.652  1.00  0.00     0.001 A 
HETATM   29  C   UNL     1     -38.484  64.263 -60.984  1.00  0.00     0.000 A 
HETATM   30  C   UNL     1     -39.213  63.633 -61.990  1.00  0.00     0.001 A 
HETATM   31  C   UNL     1     -40.151  62.651 -61.665  1.00  0.00     0.007 A 
ENDBRANCH  24  26
ENDBRANCH  23  24
ENDBRANCH  20  23
ENDBRANCH   1  19
TORSDOF 7
ENDMDL
MODEL 6
REMARK VINA RESULT:      -8.0      6.730      8.462
REMARK  7 active torsions:
REMARK  status: ('A' for Active; 'I' for Inactive)
REMARK    1  A    between atoms: C_2  and  C_3 
REMARK    2  A    between atoms: C_2  and  C_9 
REMARK    3  A    between atoms: C_9  and  C_10 
REMARK       I    between atoms: C_10  and  N_11 
REMARK    4  A    between atoms: N_11  and  N_12 
REMARK       I    between atoms: N_12  and  C_13 
REMARK    5  A    between atoms: C_13  and  C_14 
REMARK    6  A    between atoms: C_18  and  C_19 
REMARK    7  A    between atoms: C_22  and  O_23 
ROOT
HETATM    1  N   UNL     1     -44.366  56.728 -52.890  1.00  0.00    -0.262 N 
HETATM    2  C   UNL     1     -43.704  57.865 -52.480  1.00  0.00     0.288 C 
HETATM    3  O   UNL     1     -42.592  58.164 -52.915  1.00  0.00    -0.264 OA
HETATM    4  H   UNL     1     -45.290  56.459 -52.561  1.00  0.00     0.190 HD
ENDROOT
BRANCH   2   5
HETATM    5  C   UNL     1     -44.404  58.670 -51.518  1.00  0.00     0.121 A 
HETATM    6  N   UNL     1     -45.607  58.289 -50.995  1.00  0.00    -0.272 N 
HETATM    7  H   UNL     1     -46.129  57.445 -51.214  1.00  0.00     0.189 HD
HETATM    8  N   UNL     1     -46.112  59.145 -50.096  1.00  0.00    -0.174 NA
HETATM    9  C   UNL     1     -45.210  60.137 -50.020  1.00  0.00     0.089 A 
HETATM   10  C   UNL     1     -44.124  59.875 -50.905  1.00  0.00     0.071 A 
BRANCH   9  11
HETATM   11  C   UNL     1     -45.389  61.280 -49.115  1.00  0.00    -0.005 A 
HETATM   12  C   UNL     1     -45.222  61.125 -47.732  1.00  0.00     0.016 A 
HETATM   13  C   UNL     1     -45.369  62.214 -46.867  1.00  0.00     0.037 A 
HETATM   14  C   UNL     1     -45.684  63.480 -47.361  1.00  0.00     0.068 A 
HETATM   15  C   UNL     1     -45.864  63.644 -48.733  1.00  0.00     0.037 A 
HETATM   16  C   UNL     1     -45.718  62.553 -49.602  1.00  0.00     0.016 A 
BRANCH  14  17
HETATM   17  O   UNL     1     -45.790  64.457 -46.413  1.00  0.00    -0.356 OA
HETATM   18  C   UNL     1     -46.866  64.344 -45.490  1.00  0.00     0.210 C 
ENDBRANCH  14  17
ENDBRANCH   9  11
ENDBRANCH   2   5
BRANCH   1  19
HETATM   19  N   UNL     1     -43.794  55.910 -53.865  1.00  0.00    -0.267 N 
HETATM   20  C   UNL     1     -43.254  54.707 -53.460  1.00  0.00     0.236 C 
HETATM   21  O   UNL     1     -43.194  54.383 -52.276  1.00  0.00    -0.272 OA
HETATM   22  H   UNL     1     -43.911  56.188 -54.838  1.00  0.00     0.190 HD
BRANCH  20  23
HETATM   23  C   UNL     1     -42.744  53.863 -54.610  1.00  0.00     0.113 C 
BRANCH  23  24
HETATM   24  C   UNL     1     -41.210  53.870 -54.726  1.00  0.00     0.023 C 
HETATM   25  C   UNL     1     -40.609  55.227 -54.334  1.00  0.00     0.015 C 
BRANCH  24  26
HETATM   26  C   UNL     1     -40.607  52.757 -53.880  1.00  0.00    -0.054 A 
HETATM   27  C   UNL     1     -40.207  52.972 -52.552  1.00  0.00     0.007 A 
HETATM   28  C   UNL     1     -39.653  51.935 -51.797  1.00  0.00     0.001 A 
HETATM   29  C   UNL     1     -39.494  50.670 -52.359  1.00  0.00     0.000 A 
HETATM   30  C   UNL     1     -39.888  50.441 -53.676  1.00  0.00     0.001 A 
HETATM   31  C   UNL     1     -40.441  51.477 -54.431  1.00  0.00     0.007 A 
ENDBRANCH  24  26
ENDBRANCH  23  24
ENDBRANCH  20  23
ENDBRANCH   1  19
TORSDOF 7
ENDMDL
MODEL 7
REMARK VINA RESULT:      -7.9      7.257     11.459
REMARK  7 active torsions:
REMARK  status: ('A' for Active; 'I' for Inactive)
REMARK    1  A    between atoms: C_2  and  C_3 
REMARK    2  A    between atoms: C_2  and  C_9 
REMARK    3  A    between atoms: C_9  and  C_10 
REMARK       I    between atoms: C_10  and  N_11 
REMARK    4  A    between atoms: N_11  and  N_12 
REMARK       I    between atoms: N_12  and  C_13 
REMARK    5  A    between atoms: C_13  and  C_14 
REMARK    6  A    between atoms: C_18  and  C_19 
REMARK    7  A    between atoms: C_22  and  O_23 
ROOT
HETATM    1  N   UNL     1     -43.841  58.928 -50.743  1.00  0.00    -0.262 N 
HETATM    2  C   UNL     1     -44.666  57.884 -51.102  1.00  0.00     0.288 C 
HETATM    3  O   UNL     1     -45.861  57.868 -50.811  1.00  0.00    -0.264 OA
HETATM    4  H   UNL     1     -42.854  58.979 -50.979  1.00  0.00     0.190 HD
ENDROOT
BRANCH   2   5
HETATM    5  C   UNL     1     -44.031  56.827 -51.840  1.00  0.00     0.121 A 
HETATM    6  N   UNL     1     -44.356  56.556 -53.139  1.00  0.00    -0.272 N 
HETATM    7  H   UNL     1     -45.051  57.032 -53.707  1.00  0.00     0.189 HD
HETATM    8  N   UNL     1     -43.654  55.552 -53.683  1.00  0.00    -0.174 NA
HETATM    9  C   UNL     1     -42.831  55.138 -52.707  1.00  0.00     0.089 A 
HETATM   10  C   UNL     1     -43.043  55.913 -51.530  1.00  0.00     0.071 A 
BRANCH   9  11
HETATM   11  C   UNL     1     -41.870  54.047 -52.915  1.00  0.00    -0.005 A 
HETATM   12  C   UNL     1     -41.770  53.415 -54.161  1.00  0.00     0.016 A 
HETATM   13  C   UNL     1     -40.841  52.390 -54.372  1.00  0.00     0.037 A 
HETATM   14  C   UNL     1     -39.992  51.976 -53.346  1.00  0.00     0.068 A 
HETATM   15  C   UNL     1     -40.089  52.589 -52.099  1.00  0.00     0.037 A 
HETATM   16  C   UNL     1     -41.021  53.615 -51.885  1.00  0.00     0.016 A 
BRANCH  14  17
HETATM   17  O   UNL     1     -39.126  50.975 -53.686  1.00  0.00    -0.356 OA
HETATM   18  C   UNL     1     -39.657  49.896 -54.447  1.00  0.00     0.210 C 
ENDBRANCH  14  17
ENDBRANCH   9  11
ENDBRANCH   2   5
BRANCH   1  19
HETATM   19  N   UNL     1     -44.375  60.030 -50.072  1.00  0.00    -0.267 N 
HETATM   20  C   UNL     1     -44.499  61.211 -50.773  1.00  0.00     0.236 C 
HETATM   21  O   UNL     1     -44.084  61.336 -51.923  1.00  0.00    -0.272 OA
HETATM   22  H   UNL     1     -44.755  59.871 -49.141  1.00  0.00     0.190 HD
BRANCH  20  23
HETATM   23  C   UNL     1     -45.172  62.311 -49.976  1.00  0.00     0.113 C 
BRANCH  23  24
HETATM   24  C   UNL     1     -44.275  62.881 -48.864  1.00  0.00     0.023 C 
HETATM   25  C   UNL     1     -43.525  64.141 -49.319  1.00  0.00     0.015 C 
BRANCH  24  26
HETATM   26  C   UNL     1     -45.095  63.170 -47.614  1.00  0.00    -0.054 A 
HETATM   27  C   UNL     1     -46.155  62.341 -47.218  1.00  0.00     0.007 A 
HETATM   28  C   UNL     1     -46.894  62.630 -46.068  1.00  0.00     0.001 A 
HETATM   29  C   UNL     1     -46.581  63.749 -45.300  1.00  0.00     0.000 A 
HETATM   30  C   UNL     1     -45.530  64.581 -45.680  1.00  0.00     0.001 A 
HETATM   31  C   UNL     1     -44.791  64.293 -46.829  1.00  0.00     0.007 A 
ENDBRANCH  24  26
ENDBRANCH  23  24
ENDBRANCH  20  23
ENDBRANCH   1  19
TORSDOF 7
ENDMDL
MODEL 8
REMARK VINA RESULT:      -7.9      4.664      6.498
REMARK  7 active torsions:
REMARK  status: ('A' for Active; 'I' for Inactive)
REMARK    1  A    between atoms: C_2  and  C_3 
REMARK    2  A    between atoms: C_2  and  C_9 
REMARK    3  A    between atoms: C_9  and  C_10 
REMARK       I    between atoms: C_10  and  N_11 
REMARK    4  A    between atoms: N_11  and  N_12 
REMARK       I    between atoms: N_12  and  C_13 
REMARK    5  A    between atoms: C_13  and  C_14 
REMARK    6  A    between atoms: C_18  and  C_19 
REMARK    7  A    between atoms: C_22  and  O_23 
ROOT
HETATM    1  N   UNL     1     -43.218  55.495 -57.439  1.00  0.00    -0.262 N 
HETATM    2  C   UNL     1     -43.399  56.664 -58.145  1.00  0.00     0.288 C 
HETATM    3  O   UNL     1     -42.631  57.619 -58.032  1.00  0.00    -0.264 OA
HETATM    4  H   UNL     1     -43.825  54.684 -57.518  1.00  0.00     0.190 HD
ENDROOT
BRANCH   2   5
HETATM    5  C   UNL     1     -44.539  56.683 -59.018  1.00  0.00     0.121 A 
HETATM    6  N   UNL     1     -45.082  55.535 -59.524  1.00  0.00    -0.272 N 
HETATM    7  H   UNL     1     -44.760  54.585 -59.363  1.00  0.00     0.189 HD
HETATM    8  N   UNL     1     -46.153  55.731 -60.304  1.00  0.00    -0.174 NA
HETATM    9  C   UNL     1     -46.330  57.062 -60.321  1.00  0.00     0.089 A 
HETATM   10  C   UNL     1     -45.330  57.695 -59.527  1.00  0.00     0.071 A 
BRANCH   9  11
HETATM   11  C   UNL     1     -47.432  57.689 -61.062  1.00  0.00    -0.005 A 
HETATM   12  C   UNL     1     -48.260  56.920 -61.891  1.00  0.00     0.016 A 
HETATM   13  C   UNL     1     -49.325  57.507 -62.582  1.00  0.00     0.037 A 
HETATM   14  C   UNL     1     -49.589  58.871 -62.460  1.00  0.00     0.068 A 
HETATM   15  C   UNL     1     -48.766  59.649 -61.647  1.00  0.00     0.037 A 
HETATM   16  C   UNL     1     -47.697  59.062 -60.955  1.00  0.00     0.016 A 
BRANCH  14  17
HETATM   17  O   UNL     1     -50.662  59.315 -63.179  1.00  0.00    -0.356 OA
HETATM   18  C   UNL     1     -51.946  59.148 -62.589  1.00  0.00     0.210 C 
ENDBRANCH  14  17
ENDBRANCH   9  11
ENDBRANCH   2   5
BRANCH   1  19
HETATM   19  N   UNL     1     -42.106  55.358 -56.606  1.00  0.00    -0.267 N 
HETATM   20  C   UNL     1     -42.202  54.484 -55.543  1.00  0.00     0.236 C 
HETATM   21  O   UNL     1     -43.248  53.899 -55.271  1.00  0.00    -0.272 OA
HETATM   22  H   UNL     1     -41.244  55.817 -56.896  1.00  0.00     0.190 HD
BRANCH  20  23
HETATM   23  C   UNL     1     -40.910  54.347 -54.763  1.00  0.00     0.113 C 
BRANCH  23  24
HETATM   24  C   UNL     1     -40.976  53.258 -53.679  1.00  0.00     0.023 C 
HETATM   25  C   UNL     1     -39.964  52.132 -53.933  1.00  0.00     0.015 C 
BRANCH  24  26
HETATM   26  C   UNL     1     -40.762  53.865 -52.299  1.00  0.00    -0.054 A 
HETATM   27  C   UNL     1     -41.260  55.134 -51.965  1.00  0.00     0.007 A 
HETATM   28  C   UNL     1     -41.049  55.670 -50.692  1.00  0.00     0.001 A 
HETATM   29  C   UNL     1     -40.339  54.945 -49.738  1.00  0.00     0.000 A 
HETATM   30  C   UNL     1     -39.839  53.683 -50.055  1.00  0.00     0.001 A 
HETATM   31  C   UNL     1     -40.050  53.147 -51.327  1.00  0.00     0.007 A 
ENDBRANCH  24  26
ENDBRANCH  23  24
ENDBRANCH  20  23
ENDBRANCH   1  19
TORSDOF 7
ENDMDL
MODEL 9
REMARK VINA RESULT:      -7.8      2.561      3.092
REMARK  7 active torsions:
REMARK  status: ('A' for Active; 'I' for Inactive)
REMARK    1  A    between atoms: C_2  and  C_3 
REMARK    2  A    between atoms: C_2  and  C_9 
REMARK    3  A    between atoms: C_9  and  C_10 
REMARK       I    between atoms: C_10  and  N_11 
REMARK    4  A    between atoms: N_11  and  N_12 
REMARK       I    between atoms: N_12  and  C_13 
REMARK    5  A    between atoms: C_13  and  C_14 
REMARK    6  A    between atoms: C_18  and  C_19 
REMARK    7  A    between atoms: C_22  and  O_23 
ROOT
HETATM    1  N   UNL     1     -43.346  55.645 -54.697  1.00  0.00    -0.262 N 
HETATM    2  C   UNL     1     -42.720  55.618 -55.924  1.00  0.00     0.288 C 
HETATM    3  O   UNL     1     -41.814  54.825 -56.176  1.00  0.00    -0.264 OA
HETATM    4  H   UNL     1     -44.106  56.277 -54.460  1.00  0.00     0.190 HD
ENDROOT
BRANCH   2   5
HETATM    5  C   UNL     1     -43.205  56.574 -56.880  1.00  0.00     0.121 A 
HETATM    6  N   UNL     1     -44.461  57.106 -56.799  1.00  0.00    -0.272 N 
HETATM    7  H   UNL     1     -45.167  56.899 -56.100  1.00  0.00     0.189 HD
HETATM    8  N   UNL     1     -44.743  57.997 -57.759  1.00  0.00    -0.174 NA
HETATM    9  C   UNL     1     -43.633  58.058 -58.511  1.00  0.00     0.089 A 
HETATM   10  C   UNL     1     -42.645  57.172 -57.992  1.00  0.00     0.071 A 
BRANCH   9  11
HETATM   11  C   UNL     1     -43.532  58.951 -59.673  1.00  0.00    -0.005 A 
HETATM   12  C   UNL     1     -44.688  59.426 -60.308  1.00  0.00     0.016 A 
HETATM   13  C   UNL     1     -44.599  60.294 -61.401  1.00  0.00     0.037 A 
HETATM   14  C   UNL     1     -43.357  60.709 -61.882  1.00  0.00     0.068 A 
HETATM   15  C   UNL     1     -42.200  60.236 -61.267  1.00  0.00     0.037 A 
HETATM   16  C   UNL     1     -42.288  59.364 -60.172  1.00  0.00     0.016 A 
BRANCH  14  17
HETATM   17  O   UNL     1     -43.410  61.564 -62.947  1.00  0.00    -0.356 OA
HETATM   18  C   UNL     1     -42.585  61.252 -64.064  1.00  0.00     0.210 C 
ENDBRANCH  14  17
ENDBRANCH   9  11
ENDBRANCH   2   5
BRANCH   1  19
HETATM   19  N   UNL     1     -42.985  54.718 -53.718  1.00  0.00    -0.267 N 
HETATM   20  C   UNL     1     -42.102  55.124 -52.740  1.00  0.00     0.236 C 
HETATM   21  O   UNL     1     -41.573  56.234 -52.757  1.00  0.00    -0.272 OA
HETATM   22  H   UNL     1     -43.485  53.830 -53.707  1.00  0.00     0.190 HD
BRANCH  20  23
HETATM   23  C   UNL     1     -41.852  54.068 -51.682  1.00  0.00     0.113 C 
BRANCH  23  24
HETATM   24  C   UNL     1     -40.370  53.675 -51.564  1.00  0.00     0.023 C 
HETATM   25  C   UNL     1     -39.890  53.674 -50.105  1.00  0.00     0.015 C 
BRANCH  24  26
HETATM   26  C   UNL     1     -40.125  52.317 -52.206  1.00  0.00    -0.054 A 
HETATM   27  C   UNL     1     -39.747  51.198 -51.448  1.00  0.00     0.007 A 
HETATM   28  C   UNL     1     -39.526  49.963 -52.062  1.00  0.00     0.001 A 
HETATM   29  C   UNL     1     -39.680  49.831 -53.440  1.00  0.00     0.000 A 
HETATM   30  C   UNL     1     -40.056  50.932 -54.205  1.00  0.00     0.001 A 
HETATM   31  C   UNL     1     -40.277  52.167 -53.593  1.00  0.00     0.007 A 
ENDBRANCH  24  26
ENDBRANCH  23  24
ENDBRANCH  20  23
ENDBRANCH   1  19
TORSDOF 7
ENDMDL
MODEL 10
REMARK VINA RESULT:      -7.6     17.328     19.260
REMARK  7 active torsions:
REMARK  status: ('A' for Active; 'I' for Inactive)
REMARK    1  A    between atoms: C_2  and  C_3 
REMARK    2  A    between atoms: C_2  and  C_9 
REMARK    3  A    between atoms: C_9  and  C_10 
REMARK       I    between atoms: C_10  and  N_11 
REMARK    4  A    between atoms: N_11  and  N_12 
REMARK       I    between atoms: N_12  and  C_13 
REMARK    5  A    between atoms: C_13  and  C_14 
REMARK    6  A    between atoms: C_18  and  C_19 
REMARK    7  A    between atoms: C_22  and  O_23 
ROOT
HETATM    1  N   UNL     1     -34.082  40.670 -55.676  1.00  0.00    -0.262 N 
HETATM    2  C   UNL     1     -34.933  41.673 -56.085  1.00  0.00     0.288 C 
HETATM    3  O   UNL     1     -34.994  42.754 -55.501  1.00  0.00    -0.264 OA
HETATM    4  H   UNL     1     -33.997  39.771 -56.143  1.00  0.00     0.190 HD
ENDROOT
BRANCH   2   5
HETATM    5  C   UNL     1     -35.733  41.366 -57.238  1.00  0.00     0.121 A 
HETATM    6  N   UNL     1     -36.144  42.333 -58.113  1.00  0.00    -0.272 N 
HETATM    7  H   UNL     1     -35.953  43.329 -58.054  1.00  0.00     0.189 HD
HETATM    8  N   UNL     1     -36.864  41.871 -59.143  1.00  0.00    -0.174 NA
HETATM    9  C   UNL     1     -36.939  40.545 -58.947  1.00  0.00     0.089 A 
HETATM   10  C   UNL     1     -36.243  40.191 -57.755  1.00  0.00     0.071 A 
BRANCH   9  11
HETATM   11  C   UNL     1     -37.641  39.661 -59.885  1.00  0.00    -0.005 A 
HETATM   12  C   UNL     1     -38.791  38.967 -59.484  1.00  0.00     0.016 A 
HETATM   13  C   UNL     1     -39.478  38.141 -60.380  1.00  0.00     0.037 A 
HETATM   14  C   UNL     1     -39.034  37.989 -61.693  1.00  0.00     0.068 A 
HETATM   15  C   UNL     1     -37.885  38.664 -62.101  1.00  0.00     0.037 A 
HETATM   16  C   UNL     1     -37.195  39.492 -61.204  1.00  0.00     0.016 A 
BRANCH  14  17
HETATM   17  O   UNL     1     -39.799  37.162 -62.467  1.00  0.00    -0.356 OA
HETATM   18  C   UNL     1     -40.925  37.745 -63.112  1.00  0.00     0.210 C 
ENDBRANCH  14  17
ENDBRANCH   9  11
ENDBRANCH   2   5
BRANCH   1  19
HETATM   19  N   UNL     1     -33.221  40.891 -54.599  1.00  0.00    -0.267 N 
HETATM   20  C   UNL     1     -33.373  40.098 -53.481  1.00  0.00     0.236 C 
HETATM   21  O   UNL     1     -34.280  39.275 -53.381  1.00  0.00    -0.272 OA
HETATM   22  H   UNL     1     -32.452  41.543 -54.742  1.00  0.00     0.190 HD
BRANCH  20  23
HETATM   23  C   UNL     1     -32.330  40.365 -52.414  1.00  0.00     0.113 C 
BRANCH  23  24
HETATM   24  C   UNL     1     -32.912  41.044 -51.162  1.00  0.00     0.023 C 
HETATM   25  C   UNL     1     -34.288  41.669 -51.434  1.00  0.00     0.015 C 
BRANCH  24  26
HETATM   26  C   UNL     1     -32.995  40.055 -50.008  1.00  0.00    -0.054 A 
HETATM   27  C   UNL     1     -31.928  39.872 -49.115  1.00  0.00     0.007 A 
HETATM   28  C   UNL     1     -32.027  38.956 -48.065  1.00  0.00     0.001 A 
HETATM   29  C   UNL     1     -33.193  38.213 -47.894  1.00  0.00     0.000 A 
HETATM   30  C   UNL     1     -34.261  38.385 -48.772  1.00  0.00     0.001 A 
HETATM   31  C   UNL     1     -34.163  39.300 -49.822  1.00  0.00     0.007 A 
ENDBRANCH  24  26
ENDBRANCH  23  24
ENDBRANCH  20  23
ENDBRANCH   1  19
TORSDOF 7
ENDMDL
