MODEL 1
REMARK VINA RESULT:      -8.5      0.000      0.000
REMARK  5 active torsions:
REMARK  status: ('A' for Active; 'I' for Inactive)
REMARK    1  A    between atoms: C_2  and  C_3 
REMARK    2  A    between atoms: C_6  and  C_7 
REMARK    3  A    between atoms: C_9  and  C_10 
REMARK    4  A    between atoms: C_10  and  N_11 
REMARK       I    between atoms: N_11  and  C_12 
REMARK       I    between atoms: C_12  and  N_13 
REMARK    5  A    between atoms: N_13  and  C_14 
ROOT
HETATM    1  N   UNL     1     -42.161  55.972 -51.925  1.00  0.00    -0.338 N 
HETATM    2  C   UNL     1     -41.300  55.667 -50.921  1.00  0.00     0.321 C 
HETATM    3  N   UNL     1     -40.620  54.489 -51.018  1.00  0.00    -0.308 N 
HETATM    4  O   UNL     1     -41.164  56.365 -49.918  1.00  0.00    -0.247 OA
HETATM    5  H   UNL     1     -42.397  55.237 -52.575  1.00  0.00     0.164 HD
HETATM    6  H   UNL     1     -40.305  54.178 -50.107  1.00  0.00     0.170 HD
ENDROOT
BRANCH   1   7
HETATM    7  C   UNL     1     -42.918  57.196 -51.964  1.00  0.00     0.167 C 
BRANCH   7   8
HETATM    8  C   UNL     1     -42.208  58.177 -52.816  1.00  0.00     0.018 A 
HETATM    9  C   UNL     1     -42.234  58.309 -54.233  1.00  0.00     0.072 A 
HETATM   10  N   UNL     1     -41.440  59.304 -54.646  1.00  0.00    -0.132 NA
HETATM   11  O   UNL     1     -40.883  59.842 -53.504  1.00  0.00    -0.217 OA
HETATM   12  C   UNL     1     -41.341  59.172 -52.415  1.00  0.00     0.088 A 
BRANCH   9  13
HETATM   13  C   UNL     1     -42.999  57.513 -55.235  1.00  0.00     0.058 C 
HETATM   14  C   UNL     1     -42.161  56.407 -55.860  1.00  0.00     0.011 C 
ENDBRANCH   9  13
BRANCH  12  15
HETATM   15  C   UNL     1     -40.831  59.632 -51.100  1.00  0.00     0.063 C 
HETATM   16  C   UNL     1     -39.379  59.232 -50.894  1.00  0.00     0.012 C 
ENDBRANCH  12  15
ENDBRANCH   7   8
ENDBRANCH   1   7
BRANCH   3  17
HETATM   17  C   UNL     1     -40.457  53.587 -52.092  1.00  0.00     0.047 A 
HETATM   18  C   UNL     1     -40.164  52.196 -51.962  1.00  0.00     0.001 A 
HETATM   19  C   UNL     1     -39.917  51.449 -53.144  1.00  0.00    -0.024 A 
HETATM   20  C   UNL     1     -40.166  51.472 -50.743  1.00  0.00     0.014 A 
HETATM   21  C   UNL     1     -39.582  50.086 -53.067  1.00  0.00     0.012 A 
HETATM   22  C   UNL     1     -40.041  52.060 -54.400  1.00  0.00     0.012 A 
HETATM   23  C   UNL     1     -39.528  49.427 -51.842  1.00  0.00     0.001 A 
HETATM   24  C   UNL     1     -39.838  50.115 -50.680  1.00  0.00     0.001 A 
HETATM   25  C   UNL     1     -40.425  53.391 -54.513  1.00  0.00     0.003 A 
HETATM   26  C   UNL     1     -40.641  54.146 -53.365  1.00  0.00     0.030 A 
ENDBRANCH   3  17
TORSDOF 5
ENDMDL
MODEL 2
REMARK VINA RESULT:      -8.4      0.409      2.474
REMARK  5 active torsions:
REMARK  status: ('A' for Active; 'I' for Inactive)
REMARK    1  A    between atoms: C_2  and  C_3 
REMARK    2  A    between atoms: C_6  and  C_7 
REMARK    3  A    between atoms: C_9  and  C_10 
REMARK    4  A    between atoms: C_10  and  N_11 
REMARK       I    between atoms: N_11  and  C_12 
REMARK       I    between atoms: C_12  and  N_13 
REMARK    5  A    between atoms: N_13  and  C_14 
ROOT
HETATM    1  N   UNL     1     -42.154  55.925 -51.989  1.00  0.00    -0.338 N 
HETATM    2  C   UNL     1     -41.293  55.646 -50.978  1.00  0.00     0.321 C 
HETATM    3  N   UNL     1     -40.603  54.472 -51.052  1.00  0.00    -0.308 N 
HETATM    4  O   UNL     1     -41.165  56.364 -49.988  1.00  0.00    -0.247 OA
HETATM    5  H   UNL     1     -42.383  55.177 -52.626  1.00  0.00     0.164 HD
HETATM    6  H   UNL     1     -40.287  54.181 -50.134  1.00  0.00     0.170 HD
ENDROOT
BRANCH   1   7
HETATM    7  C   UNL     1     -42.922  57.142 -52.052  1.00  0.00     0.167 C 
BRANCH   7   8
HETATM    8  C   UNL     1     -42.223  58.110 -52.927  1.00  0.00     0.018 A 
HETATM    9  C   UNL     1     -41.344  59.168 -52.559  1.00  0.00     0.072 A 
HETATM   10  N   UNL     1     -40.922  59.848 -53.632  1.00  0.00    -0.132 NA
HETATM   11  O   UNL     1     -41.517  59.244 -54.721  1.00  0.00    -0.217 OA
HETATM   12  C   UNL     1     -42.289  58.208 -54.301  1.00  0.00     0.088 A 
BRANCH   9  13
HETATM   13  C   UNL     1     -40.875  59.570 -51.203  1.00  0.00     0.058 C 
HETATM   14  C   UNL     1     -39.413  59.220 -50.965  1.00  0.00     0.011 C 
ENDBRANCH   9  13
BRANCH  12  15
HETATM   15  C   UNL     1     -43.003  57.452 -55.358  1.00  0.00     0.063 C 
HETATM   16  C   UNL     1     -42.164  56.296 -55.881  1.00  0.00     0.012 C 
ENDBRANCH  12  15
ENDBRANCH   7   8
ENDBRANCH   1   7
BRANCH   3  17
HETATM   17  C   UNL     1     -40.430  53.552 -52.109  1.00  0.00     0.047 A 
HETATM   18  C   UNL     1     -40.147  52.162 -51.952  1.00  0.00     0.001 A 
HETATM   19  C   UNL     1     -39.888  51.394 -53.118  1.00  0.00    -0.024 A 
HETATM   20  C   UNL     1     -40.171  51.458 -50.722  1.00  0.00     0.014 A 
HETATM   21  C   UNL     1     -39.561  50.031 -53.014  1.00  0.00     0.012 A 
HETATM   22  C   UNL     1     -39.990  51.986 -54.385  1.00  0.00     0.012 A 
HETATM   23  C   UNL     1     -39.529  49.391 -51.778  1.00  0.00     0.001 A 
HETATM   24  C   UNL     1     -39.851  50.100 -50.632  1.00  0.00     0.001 A 
HETATM   25  C   UNL     1     -40.365  53.317 -54.525  1.00  0.00     0.003 A 
HETATM   26  C   UNL     1     -40.592  54.092 -53.393  1.00  0.00     0.030 A 
ENDBRANCH   3  17
TORSDOF 5
ENDMDL
MODEL 3
REMARK VINA RESULT:      -8.3      1.904      2.883
REMARK  5 active torsions:
REMARK  status: ('A' for Active; 'I' for Inactive)
REMARK    1  A    between atoms: C_2  and  C_3 
REMARK    2  A    between atoms: C_6  and  C_7 
REMARK    3  A    between atoms: C_9  and  C_10 
REMARK    4  A    between atoms: C_10  and  N_11 
REMARK       I    between atoms: N_11  and  C_12 
REMARK       I    between atoms: C_12  and  N_13 
REMARK    5  A    between atoms: N_13  and  C_14 
ROOT
HETATM    1  N   UNL     1     -43.048  57.136 -51.362  1.00  0.00    -0.338 N 
HETATM    2  C   UNL     1     -43.974  56.290 -50.841  1.00  0.00     0.321 C 
HETATM    3  N   UNL     1     -43.616  54.982 -50.703  1.00  0.00    -0.308 N 
HETATM    4  O   UNL     1     -45.119  56.640 -50.560  1.00  0.00    -0.247 OA
HETATM    5  H   UNL     1     -42.234  56.726 -51.794  1.00  0.00     0.164 HD
HETATM    6  H   UNL     1     -44.435  54.386 -50.665  1.00  0.00     0.170 HD
ENDROOT
BRANCH   1   7
HETATM    7  C   UNL     1     -43.283  58.546 -51.534  1.00  0.00     0.167 C 
BRANCH   7   8
HETATM    8  C   UNL     1     -42.422  59.049 -52.628  1.00  0.00     0.018 A 
HETATM    9  C   UNL     1     -42.803  59.511 -53.920  1.00  0.00     0.072 A 
HETATM   10  N   UNL     1     -41.736  59.865 -54.646  1.00  0.00    -0.132 NA
HETATM   11  O   UNL     1     -40.639  59.644 -53.840  1.00  0.00    -0.217 OA
HETATM   12  C   UNL     1     -41.047  59.160 -52.638  1.00  0.00     0.088 A 
BRANCH   9  13
HETATM   13  C   UNL     1     -44.167  59.634 -54.508  1.00  0.00     0.058 C 
HETATM   14  C   UNL     1     -44.744  58.289 -54.924  1.00  0.00     0.011 C 
ENDBRANCH   9  13
BRANCH  12  15
HETATM   15  C   UNL     1     -39.979  58.867 -51.652  1.00  0.00     0.063 C 
HETATM   16  C   UNL     1     -40.057  59.795 -50.451  1.00  0.00     0.012 C 
ENDBRANCH  12  15
ENDBRANCH   7   8
ENDBRANCH   1   7
BRANCH   3  17
HETATM   17  C   UNL     1     -42.362  54.339 -50.790  1.00  0.00     0.047 A 
HETATM   18  C   UNL     1     -41.808  53.770 -51.976  1.00  0.00     0.001 A 
HETATM   19  C   UNL     1     -40.585  53.058 -51.871  1.00  0.00    -0.024 A 
HETATM   20  C   UNL     1     -42.347  53.917 -53.280  1.00  0.00     0.014 A 
HETATM   21  C   UNL     1     -40.021  52.443 -53.002  1.00  0.00     0.012 A 
HETATM   22  C   UNL     1     -39.913  52.994 -50.642  1.00  0.00     0.012 A 
HETATM   23  C   UNL     1     -40.619  52.553 -54.255  1.00  0.00     0.001 A 
HETATM   24  C   UNL     1     -41.774  53.306 -54.398  1.00  0.00     0.001 A 
HETATM   25  C   UNL     1     -40.415  53.638 -49.518  1.00  0.00     0.003 A 
HETATM   26  C   UNL     1     -41.628  54.314 -49.595  1.00  0.00     0.030 A 
ENDBRANCH   3  17
TORSDOF 5
ENDMDL
MODEL 4
REMARK VINA RESULT:      -8.2      1.785      3.635
REMARK  5 active torsions:
REMARK  status: ('A' for Active; 'I' for Inactive)
REMARK    1  A    between atoms: C_2  and  C_3 
REMARK    2  A    between atoms: C_6  and  C_7 
REMARK    3  A    between atoms: C_9  and  C_10 
REMARK    4  A    between atoms: C_10  and  N_11 
REMARK       I    between atoms: N_11  and  C_12 
REMARK       I    between atoms: C_12  and  N_13 
REMARK    5  A    between atoms: N_13  and  C_14 
ROOT
HETATM    1  N   UNL     1     -43.338  56.749 -51.949  1.00  0.00    -0.338 N 
HETATM    2  C   UNL     1     -43.973  56.106 -50.936  1.00  0.00     0.321 C 
HETATM    3  N   UNL     1     -43.398  54.964 -50.464  1.00  0.00    -0.308 N 
HETATM    4  O   UNL     1     -45.056  56.472 -50.485  1.00  0.00    -0.247 OA
HETATM    5  H   UNL     1     -42.598  56.253 -52.424  1.00  0.00     0.164 HD
HETATM    6  H   UNL     1     -44.084  54.380 -49.999  1.00  0.00     0.170 HD
ENDROOT
BRANCH   1   7
HETATM    7  C   UNL     1     -43.818  57.980 -52.520  1.00  0.00     0.167 C 
BRANCH   7   8
HETATM    8  C   UNL     1     -42.716  58.627 -53.269  1.00  0.00     0.018 A 
HETATM    9  C   UNL     1     -41.604  59.357 -52.762  1.00  0.00     0.072 A 
HETATM   10  N   UNL     1     -40.827  59.813 -53.752  1.00  0.00    -0.132 NA
HETATM   11  O   UNL     1     -41.417  59.387 -54.924  1.00  0.00    -0.217 OA
HETATM   12  C   UNL     1     -42.541  58.680 -54.636  1.00  0.00     0.088 A 
BRANCH   9  13
HETATM   13  C   UNL     1     -41.237  59.645 -51.346  1.00  0.00     0.058 C 
HETATM   14  C   UNL     1     -40.478  58.497 -50.697  1.00  0.00     0.011 C 
ENDBRANCH   9  13
BRANCH  12  15
HETATM   15  C   UNL     1     -43.297  58.150 -55.797  1.00  0.00     0.063 C 
HETATM   16  C   UNL     1     -43.013  56.674 -56.022  1.00  0.00     0.012 C 
ENDBRANCH  12  15
ENDBRANCH   7   8
ENDBRANCH   1   7
BRANCH   3  17
HETATM   17  C   UNL     1     -42.119  54.404 -50.671  1.00  0.00     0.047 A 
HETATM   18  C   UNL     1     -41.671  53.797 -51.883  1.00  0.00     0.001 A 
HETATM   19  C   UNL     1     -40.393  53.178 -51.892  1.00  0.00    -0.024 A 
HETATM   20  C   UNL     1     -42.373  53.822 -53.115  1.00  0.00     0.014 A 
HETATM   21  C   UNL     1     -39.926  52.530 -53.048  1.00  0.00     0.012 A 
HETATM   22  C   UNL     1     -39.575  53.240 -50.756  1.00  0.00     0.012 A 
HETATM   23  C   UNL     1     -40.677  52.518 -54.220  1.00  0.00     0.001 A 
HETATM   24  C   UNL     1     -41.895  53.179 -54.260  1.00  0.00     0.001 A 
HETATM   25  C   UNL     1     -39.985  53.921 -49.615  1.00  0.00     0.003 A 
HETATM   26  C   UNL     1     -41.246  54.507 -49.578  1.00  0.00     0.030 A 
ENDBRANCH   3  17
TORSDOF 5
ENDMDL
MODEL 5
REMARK VINA RESULT:      -8.0      2.084      3.294
REMARK  5 active torsions:
REMARK  status: ('A' for Active; 'I' for Inactive)
REMARK    1  A    between atoms: C_2  and  C_3 
REMARK    2  A    between atoms: C_6  and  C_7 
REMARK    3  A    between atoms: C_9  and  C_10 
REMARK    4  A    between atoms: C_10  and  N_11 
REMARK       I    between atoms: N_11  and  C_12 
REMARK       I    between atoms: C_12  and  N_13 
REMARK    5  A    between atoms: N_13  and  C_14 
ROOT
HETATM    1  N   UNL     1     -42.040  57.041 -52.877  1.00  0.00    -0.338 N 
HETATM    2  C   UNL     1     -43.203  56.342 -52.842  1.00  0.00     0.321 C 
HETATM    3  N   UNL     1     -43.141  55.050 -52.411  1.00  0.00    -0.308 N 
HETATM    4  O   UNL     1     -44.272  56.799 -53.241  1.00  0.00    -0.247 OA
HETATM    5  H   UNL     1     -41.180  56.522 -52.774  1.00  0.00     0.164 HD
HETATM    6  H   UNL     1     -43.933  54.518 -52.752  1.00  0.00     0.170 HD
ENDROOT
BRANCH   1   7
HETATM    7  C   UNL     1     -41.966  58.422 -53.282  1.00  0.00     0.167 C 
BRANCH   7   8
HETATM    8  C   UNL     1     -42.013  59.281 -52.078  1.00  0.00     0.018 A 
HETATM    9  C   UNL     1     -43.089  60.079 -51.595  1.00  0.00     0.072 A 
HETATM   10  N   UNL     1     -42.747  60.740 -50.483  1.00  0.00    -0.132 NA
HETATM   11  O   UNL     1     -41.441  60.383 -50.216  1.00  0.00    -0.217 OA
HETATM   12  C   UNL     1     -41.005  59.513 -51.165  1.00  0.00     0.088 A 
BRANCH   9  13
HETATM   13  C   UNL     1     -44.460  60.245 -52.157  1.00  0.00     0.058 C 
HETATM   14  C   UNL     1     -45.519  59.540 -51.323  1.00  0.00     0.011 C 
ENDBRANCH   9  13
BRANCH  12  15
HETATM   15  C   UNL     1     -39.609  59.032 -51.021  1.00  0.00     0.063 C 
HETATM   16  C   UNL     1     -38.784  59.964 -50.150  1.00  0.00     0.012 C 
ENDBRANCH  12  15
ENDBRANCH   7   8
ENDBRANCH   1   7
BRANCH   3  17
HETATM   17  C   UNL     1     -42.117  54.326 -51.762  1.00  0.00     0.047 A 
HETATM   18  C   UNL     1     -41.239  53.395 -52.394  1.00  0.00     0.001 A 
HETATM   19  C   UNL     1     -40.336  52.664 -51.578  1.00  0.00    -0.024 A 
HETATM   20  C   UNL     1     -41.143  53.186 -53.793  1.00  0.00     0.014 A 
HETATM   21  C   UNL     1     -39.482  51.705 -52.148  1.00  0.00     0.012 A 
HETATM   22  C   UNL     1     -40.268  52.921 -50.202  1.00  0.00     0.012 A 
HETATM   23  C   UNL     1     -39.465  51.480 -53.522  1.00  0.00     0.001 A 
HETATM   24  C   UNL     1     -40.284  52.233 -54.348  1.00  0.00     0.001 A 
HETATM   25  C   UNL     1     -41.060  53.902 -49.617  1.00  0.00     0.003 A 
HETATM   26  C   UNL     1     -41.972  54.606 -50.395  1.00  0.00     0.030 A 
ENDBRANCH   3  17
TORSDOF 5
ENDMDL
MODEL 6
REMARK VINA RESULT:      -8.0      2.064      3.759
REMARK  5 active torsions:
REMARK  status: ('A' for Active; 'I' for Inactive)
REMARK    1  A    between atoms: C_2  and  C_3 
REMARK    2  A    between atoms: C_6  and  C_7 
REMARK    3  A    between atoms: C_9  and  C_10 
REMARK    4  A    between atoms: C_10  and  N_11 
REMARK       I    between atoms: N_11  and  C_12 
REMARK       I    between atoms: C_12  and  N_13 
REMARK    5  A    between atoms: N_13  and  C_14 
ROOT
HETATM    1  N   UNL     1     -41.953  57.027 -53.044  1.00  0.00    -0.338 N 
HETATM    2  C   UNL     1     -43.115  56.326 -53.061  1.00  0.00     0.321 C 
HETATM    3  N   UNL     1     -43.071  55.036 -52.621  1.00  0.00    -0.308 N 
HETATM    4  O   UNL     1     -44.166  56.778 -53.511  1.00  0.00    -0.247 OA
HETATM    5  H   UNL     1     -41.099  56.510 -52.899  1.00  0.00     0.164 HD
HETATM    6  H   UNL     1     -43.845  54.500 -52.996  1.00  0.00     0.170 HD
ENDROOT
BRANCH   1   7
HETATM    7  C   UNL     1     -41.864  58.406 -53.452  1.00  0.00     0.167 C 
BRANCH   7   8
HETATM    8  C   UNL     1     -42.011  59.272 -52.260  1.00  0.00     0.018 A 
HETATM    9  C   UNL     1     -41.061  59.546 -51.236  1.00  0.00     0.072 A 
HETATM   10  N   UNL     1     -41.568  60.363 -50.305  1.00  0.00    -0.132 NA
HETATM   11  O   UNL     1     -42.858  60.641 -50.707  1.00  0.00    -0.217 OA
HETATM   12  C   UNL     1     -43.121  59.993 -51.872  1.00  0.00     0.088 A 
BRANCH   9  13
HETATM   13  C   UNL     1     -39.660  59.054 -51.099  1.00  0.00     0.058 C 
HETATM   14  C   UNL     1     -38.823  59.930 -50.179  1.00  0.00     0.011 C 
ENDBRANCH   9  13
BRANCH  12  15
HETATM   15  C   UNL     1     -44.477  60.189 -52.439  1.00  0.00     0.063 C 
HETATM   16  C   UNL     1     -45.537  59.484 -51.608  1.00  0.00     0.012 C 
ENDBRANCH  12  15
ENDBRANCH   7   8
ENDBRANCH   1   7
BRANCH   3  17
HETATM   17  C   UNL     1     -42.077  54.317 -51.922  1.00  0.00     0.047 A 
HETATM   18  C   UNL     1     -41.193  53.358 -52.502  1.00  0.00     0.001 A 
HETATM   19  C   UNL     1     -40.324  52.638 -51.640  1.00  0.00    -0.024 A 
HETATM   20  C   UNL     1     -41.057  53.109 -53.892  1.00  0.00     0.014 A 
HETATM   21  C   UNL     1     -39.466  51.653 -52.157  1.00  0.00     0.012 A 
HETATM   22  C   UNL     1     -40.294  52.932 -50.269  1.00  0.00     0.012 A 
HETATM   23  C   UNL     1     -39.412  51.390 -53.523  1.00  0.00     0.001 A 
HETATM   24  C   UNL     1     -40.195  52.131 -54.394  1.00  0.00     0.001 A 
HETATM   25  C   UNL     1     -41.090  53.938 -49.735  1.00  0.00     0.003 A 
HETATM   26  C   UNL     1     -41.969  54.633 -50.560  1.00  0.00     0.030 A 
ENDBRANCH   3  17
TORSDOF 5
ENDMDL
MODEL 7
REMARK VINA RESULT:      -7.8      2.383      3.644
REMARK  5 active torsions:
REMARK  status: ('A' for Active; 'I' for Inactive)
REMARK    1  A    between atoms: C_2  and  C_3 
REMARK    2  A    between atoms: C_6  and  C_7 
REMARK    3  A    between atoms: C_9  and  C_10 
REMARK    4  A    between atoms: C_10  and  N_11 
REMARK       I    between atoms: N_11  and  C_12 
REMARK       I    between atoms: C_12  and  N_13 
REMARK    5  A    between atoms: N_13  and  C_14 
ROOT
HETATM    1  N   UNL     1     -42.521  57.505 -53.367  1.00  0.00    -0.338 N 
HETATM    2  C   UNL     1     -43.690  56.837 -53.197  1.00  0.00     0.321 C 
HETATM    3  N   UNL     1     -43.623  55.480 -53.087  1.00  0.00    -0.308 N 
HETATM    4  O   UNL     1     -44.787  57.393 -53.207  1.00  0.00    -0.247 OA
HETATM    5  H   UNL     1     -41.702  56.961 -53.597  1.00  0.00     0.164 HD
HETATM    6  H   UNL     1     -44.511  55.054 -53.329  1.00  0.00     0.170 HD
ENDROOT
BRANCH   1   7
HETATM    7  C   UNL     1     -42.443  58.940 -53.466  1.00  0.00     0.167 C 
BRANCH   7   8
HETATM    8  C   UNL     1     -42.411  59.517 -52.103  1.00  0.00     0.018 A 
HETATM    9  C   UNL     1     -43.421  60.259 -51.426  1.00  0.00     0.072 A 
HETATM   10  N   UNL     1     -43.016  60.637 -50.208  1.00  0.00    -0.132 NA
HETATM   11  O   UNL     1     -41.734  60.146 -50.066  1.00  0.00    -0.217 OA
HETATM   12  C   UNL     1     -41.375  59.478 -51.193  1.00  0.00     0.088 A 
BRANCH   9  13
HETATM   13  C   UNL     1     -44.785  60.632 -51.897  1.00  0.00     0.058 C 
HETATM   14  C   UNL     1     -45.853  60.379 -50.843  1.00  0.00     0.011 C 
ENDBRANCH   9  13
BRANCH  12  15
HETATM   15  C   UNL     1     -40.015  58.887 -51.200  1.00  0.00     0.063 C 
HETATM   16  C   UNL     1     -39.045  59.708 -50.366  1.00  0.00     0.012 C 
ENDBRANCH  12  15
ENDBRANCH   7   8
ENDBRANCH   1   7
BRANCH   3  17
HETATM   17  C   UNL     1     -42.530  54.608 -52.888  1.00  0.00     0.047 A 
HETATM   18  C   UNL     1     -41.754  54.520 -51.694  1.00  0.00     0.001 A 
HETATM   19  C   UNL     1     -40.615  53.673 -51.695  1.00  0.00    -0.024 A 
HETATM   20  C   UNL     1     -42.067  55.161 -50.468  1.00  0.00     0.014 A 
HETATM   21  C   UNL     1     -39.794  53.585 -50.558  1.00  0.00     0.012 A 
HETATM   22  C   UNL     1     -40.322  52.892 -52.821  1.00  0.00     0.012 A 
HETATM   23  C   UNL     1     -40.099  54.285 -49.393  1.00  0.00     0.001 A 
HETATM   24  C   UNL     1     -41.246  55.060 -49.342  1.00  0.00     0.001 A 
HETATM   25  C   UNL     1     -41.145  52.914 -53.941  1.00  0.00     0.003 A 
HETATM   26  C   UNL     1     -42.248  53.761 -53.969  1.00  0.00     0.030 A 
ENDBRANCH   3  17
TORSDOF 5
ENDMDL
MODEL 8
REMARK VINA RESULT:      -7.8      2.047      7.033
REMARK  5 active torsions:
REMARK  status: ('A' for Active; 'I' for Inactive)
REMARK    1  A    between atoms: C_2  and  C_3 
REMARK    2  A    between atoms: C_6  and  C_7 
REMARK    3  A    between atoms: C_9  and  C_10 
REMARK    4  A    between atoms: C_10  and  N_11 
REMARK       I    between atoms: N_11  and  C_12 
REMARK       I    between atoms: C_12  and  N_13 
REMARK    5  A    between atoms: N_13  and  C_14 
ROOT
HETATM    1  N   UNL     1     -42.628  55.369 -53.469  1.00  0.00    -0.338 N 
HETATM    2  C   UNL     1     -42.013  56.072 -54.454  1.00  0.00     0.321 C 
HETATM    3  N   UNL     1     -42.095  57.431 -54.396  1.00  0.00    -0.308 N 
HETATM    4  O   UNL     1     -41.454  55.537 -55.410  1.00  0.00    -0.247 OA
HETATM    5  H   UNL     1     -43.268  55.870 -52.870  1.00  0.00     0.164 HD
HETATM    6  H   UNL     1     -41.944  57.841 -55.310  1.00  0.00     0.170 HD
ENDROOT
BRANCH   1   7
HETATM    7  C   UNL     1     -42.595  53.931 -53.392  1.00  0.00     0.167 C 
BRANCH   7   8
HETATM    8  C   UNL     1     -41.461  53.520 -52.533  1.00  0.00     0.018 A 
HETATM    9  C   UNL     1     -41.238  53.804 -51.156  1.00  0.00     0.072 A 
HETATM   10  N   UNL     1     -40.083  53.280 -50.730  1.00  0.00    -0.132 NA
HETATM   11  O   UNL     1     -39.531  52.641 -51.821  1.00  0.00    -0.217 OA
HETATM   12  C   UNL     1     -40.352  52.783 -52.894  1.00  0.00     0.088 A 
BRANCH   9  13
HETATM   13  C   UNL     1     -42.094  54.568 -50.205  1.00  0.00     0.058 C 
HETATM   14  C   UNL     1     -41.549  55.961 -49.922  1.00  0.00     0.011 C 
ENDBRANCH   9  13
BRANCH  12  15
HETATM   15  C   UNL     1     -39.897  52.150 -54.156  1.00  0.00     0.063 C 
HETATM   16  C   UNL     1     -40.210  50.662 -54.179  1.00  0.00     0.012 C 
ENDBRANCH  12  15
ENDBRANCH   7   8
ENDBRANCH   1   7
BRANCH   3  17
HETATM   17  C   UNL     1     -42.519  58.301 -53.368  1.00  0.00     0.047 A 
HETATM   18  C   UNL     1     -41.694  58.793 -52.312  1.00  0.00     0.001 A 
HETATM   19  C   UNL     1     -42.302  59.570 -51.291  1.00  0.00    -0.024 A 
HETATM   20  C   UNL     1     -40.288  58.630 -52.232  1.00  0.00     0.014 A 
HETATM   21  C   UNL     1     -41.541  60.041 -50.207  1.00  0.00     0.012 A 
HETATM   22  C   UNL     1     -43.662  59.900 -51.376  1.00  0.00     0.012 A 
HETATM   23  C   UNL     1     -40.172  59.800 -50.131  1.00  0.00     0.001 A 
HETATM   24  C   UNL     1     -39.540  59.109 -51.153  1.00  0.00     0.001 A 
HETATM   25  C   UNL     1     -44.430  59.497 -52.462  1.00  0.00     0.003 A 
HETATM   26  C   UNL     1     -43.858  58.710 -53.456  1.00  0.00     0.030 A 
ENDBRANCH   3  17
TORSDOF 5
ENDMDL
MODEL 9
REMARK VINA RESULT:      -7.8      2.306      3.935
REMARK  5 active torsions:
REMARK  status: ('A' for Active; 'I' for Inactive)
REMARK    1  A    between atoms: C_2  and  C_3 
REMARK    2  A    between atoms: C_6  and  C_7 
REMARK    3  A    between atoms: C_9  and  C_10 
REMARK    4  A    between atoms: C_10  and  N_11 
REMARK       I    between atoms: N_11  and  C_12 
REMARK       I    between atoms: C_12  and  N_13 
REMARK    5  A    between atoms: N_13  and  C_14 
ROOT
HETATM    1  N   UNL     1     -42.444  57.389 -53.425  1.00  0.00    -0.338 N 
HETATM    2  C   UNL     1     -43.611  56.698 -53.364  1.00  0.00     0.321 C 
HETATM    3  N   UNL     1     -43.528  55.340 -53.267  1.00  0.00    -0.308 N 
HETATM    4  O   UNL     1     -44.713  57.234 -53.458  1.00  0.00    -0.247 OA
HETATM    5  H   UNL     1     -41.599  56.863 -53.594  1.00  0.00     0.164 HD
HETATM    6  H   UNL     1     -44.384  54.903 -53.588  1.00  0.00     0.170 HD
ENDROOT
BRANCH   1   7
HETATM    7  C   UNL     1     -42.386  58.826 -53.498  1.00  0.00     0.167 C 
BRANCH   7   8
HETATM    8  C   UNL     1     -42.348  59.378 -52.125  1.00  0.00     0.018 A 
HETATM    9  C   UNL     1     -41.289  59.328 -51.174  1.00  0.00     0.072 A 
HETATM   10  N   UNL     1     -41.635  59.920 -50.025  1.00  0.00    -0.132 NA
HETATM   11  O   UNL     1     -42.926  60.371 -50.206  1.00  0.00    -0.217 OA
HETATM   12  C   UNL     1     -43.350  60.050 -51.456  1.00  0.00     0.088 A 
BRANCH   9  13
HETATM   13  C   UNL     1     -39.931  58.729 -51.313  1.00  0.00     0.058 C 
HETATM   14  C   UNL     1     -38.863  59.533 -50.585  1.00  0.00     0.011 C 
ENDBRANCH   9  13
BRANCH  12  15
HETATM   15  C   UNL     1     -44.729  60.466 -51.808  1.00  0.00     0.063 C 
HETATM   16  C   UNL     1     -45.768  59.672 -51.033  1.00  0.00     0.012 C 
ENDBRANCH  12  15
ENDBRANCH   7   8
ENDBRANCH   1   7
BRANCH   3  17
HETATM   17  C   UNL     1     -42.439  54.485 -52.989  1.00  0.00     0.047 A 
HETATM   18  C   UNL     1     -41.727  54.434 -51.753  1.00  0.00     0.001 A 
HETATM   19  C   UNL     1     -40.581  53.599 -51.673  1.00  0.00    -0.024 A 
HETATM   20  C   UNL     1     -42.111  55.101 -50.562  1.00  0.00     0.014 A 
HETATM   21  C   UNL     1     -39.821  53.546 -50.493  1.00  0.00     0.012 A 
HETATM   22  C   UNL     1     -40.222  52.794 -52.763  1.00  0.00     0.012 A 
HETATM   23  C   UNL     1     -40.194  54.271 -49.364  1.00  0.00     0.001 A 
HETATM   24  C   UNL     1     -41.350  55.035 -49.392  1.00  0.00     0.001 A 
HETATM   25  C   UNL     1     -40.984  52.781 -53.925  1.00  0.00     0.003 A 
HETATM   26  C   UNL     1     -42.092  53.616 -54.033  1.00  0.00     0.030 A 
ENDBRANCH   3  17
TORSDOF 5
ENDMDL
MODEL 10
REMARK VINA RESULT:      -7.8      3.182      4.941
REMARK  5 active torsions:
REMARK  status: ('A' for Active; 'I' for Inactive)
REMARK    1  A    between atoms: C_2  and  C_3 
REMARK    2  A    between atoms: C_6  and  C_7 
REMARK    3  A    between atoms: C_9  and  C_10 
REMARK    4  A    between atoms: C_10  and  N_11 
REMARK       I    between atoms: N_11  and  C_12 
REMARK       I    between atoms: C_12  and  N_13 
REMARK    5  A    between atoms: N_13  and  C_14 
ROOT
HETATM    1  N   UNL     1     -42.910  56.822 -55.838  1.00  0.00    -0.338 N 
HETATM    2  C   UNL     1     -42.140  57.600 -55.036  1.00  0.00     0.321 C 
HETATM    3  N   UNL     1     -41.365  56.967 -54.110  1.00  0.00    -0.308 N 
HETATM    4  O   UNL     1     -42.165  58.829 -55.068  1.00  0.00    -0.247 OA
HETATM    5  H   UNL     1     -43.018  55.852 -55.582  1.00  0.00     0.164 HD
HETATM    6  H   UNL     1     -41.126  57.594 -53.350  1.00  0.00     0.170 HD
ENDROOT
BRANCH   1   7
HETATM    7  C   UNL     1     -43.750  57.358 -56.878  1.00  0.00     0.167 C 
BRANCH   7   8
HETATM    8  C   UNL     1     -43.051  57.233 -58.177  1.00  0.00     0.018 A 
HETATM    9  C   UNL     1     -43.091  56.159 -59.110  1.00  0.00     0.072 A 
HETATM   10  N   UNL     1     -42.304  56.398 -60.166  1.00  0.00    -0.132 NA
HETATM   11  O   UNL     1     -41.737  57.636 -59.942  1.00  0.00    -0.217 OA
HETATM   12  C   UNL     1     -42.183  58.134 -58.759  1.00  0.00     0.088 A 
BRANCH   9  13
HETATM   13  C   UNL     1     -43.864  54.886 -59.043  1.00  0.00     0.058 C 
HETATM   14  C   UNL     1     -44.732  54.667 -60.273  1.00  0.00     0.011 C 
ENDBRANCH   9  13
BRANCH  12  15
HETATM   15  C   UNL     1     -41.661  59.466 -58.370  1.00  0.00     0.063 C 
HETATM   16  C   UNL     1     -41.957  60.513 -59.431  1.00  0.00     0.012 C 
ENDBRANCH  12  15
ENDBRANCH   7   8
ENDBRANCH   1   7
BRANCH   3  17
HETATM   17  C   UNL     1     -41.020  55.607 -53.948  1.00  0.00     0.047 A 
HETATM   18  C   UNL     1     -41.038  54.894 -52.712  1.00  0.00     0.001 A 
HETATM   19  C   UNL     1     -40.552  53.560 -52.699  1.00  0.00    -0.024 A 
HETATM   20  C   UNL     1     -41.570  55.387 -51.493  1.00  0.00     0.014 A 
HETATM   21  C   UNL     1     -40.508  52.831 -51.499  1.00  0.00     0.012 A 
HETATM   22  C   UNL     1     -40.144  52.950 -53.894  1.00  0.00     0.012 A 
HETATM   23  C   UNL     1     -40.979  53.377 -50.308  1.00  0.00     0.001 A 
HETATM   24  C   UNL     1     -41.527  54.649 -50.307  1.00  0.00     0.001 A 
HETATM   25  C   UNL     1     -40.227  53.625 -55.106  1.00  0.00     0.003 A 
HETATM   26  C   UNL     1     -40.672  54.943 -55.133  1.00  0.00     0.030 A 
ENDBRANCH   3  17
TORSDOF 5
ENDMDL
