MODEL 1
REMARK VINA RESULT:      -9.0      0.000      0.000
REMARK  9 active torsions:
REMARK  status: ('A' for Active; 'I' for Inactive)
REMARK    1  A    between atoms: C_2  and  O_3 
REMARK    2  A    between atoms: O_3  and  C_4 
REMARK    3  A    between atoms: C_7  and  C_8 
REMARK    4  A    between atoms: C_9  and  C_10 
REMARK       I    between atoms: C_10  and  N_11 
REMARK    5  A    between atoms: N_11  and  C_12 
REMARK    6  A    between atoms: C_22  and  S_23 
REMARK    7  A    between atoms: S_23  and  C_24 
REMARK    8  A    between atoms: C_24  and  C_25 
REMARK       I    between atoms: C_25  and  N_26 
REMARK    9  A    between atoms: N_26  and  C_27 
ROOT
HETATM    1  C   UNL     1     -42.106  57.901 -53.028  1.00  0.00     0.104 C 
HETATM    2  C   UNL     1     -42.831  56.752 -53.731  1.00  0.00     0.046 C 
HETATM    3  C   UNL     1     -42.983  55.548 -53.132  1.00  0.00     0.019 C 
HETATM    4  C   UNL     1     -43.593  54.320 -53.759  1.00  0.00     0.069 C 
HETATM    5  N   UNL     1     -42.519  55.381 -51.844  1.00  0.00    -0.353 N 
HETATM    6  C   UNL     1     -41.756  56.287 -51.141  1.00  0.00     0.087 C 
HETATM    7  C   UNL     1     -41.440  57.472 -51.712  1.00  0.00     0.055 C 
HETATM    8  C   UNL     1     -40.570  58.488 -50.990  1.00  0.00     0.019 C 
HETATM    9  N   UNL     1     -39.848  59.331 -50.390  1.00  0.00    -0.096 N 
HETATM   10  H   UNL     1     -42.810  54.556 -51.315  1.00  0.00     0.166 HD
ENDROOT
BRANCH   1  11
HETATM   11  C   UNL     1     -43.051  59.072 -52.708  1.00  0.00    -0.044 A 
HETATM   12  C   UNL     1     -44.196  58.899 -51.910  1.00  0.00     0.011 A 
HETATM   13  C   UNL     1     -44.944  60.000 -51.483  1.00  0.00     0.037 A 
HETATM   14  C   UNL     1     -44.536  61.292 -51.802  1.00  0.00     0.068 A 
HETATM   15  C   UNL     1     -43.434  61.473 -52.638  1.00  0.00     0.037 A 
HETATM   16  C   UNL     1     -42.698  60.376 -53.092  1.00  0.00     0.011 A 
BRANCH  14  17
HETATM   17  O   UNL     1     -45.135  62.438 -51.358  1.00  0.00    -0.352 OA
BRANCH  17  18
HETATM   18  C   UNL     1     -45.497  62.454 -49.976  1.00  0.00     0.171 C 
HETATM   19  C   UNL     1     -44.287  62.885 -49.169  1.00  0.00     0.034 C 
ENDBRANCH  17  18
ENDBRANCH  14  17
ENDBRANCH   1  11
BRANCH   6  20
HETATM   20  S   UNL     1     -41.277  55.893 -49.501  1.00  0.00    -0.102 SA
BRANCH  20  21
HETATM   21  C   UNL     1     -39.922  54.721 -49.854  1.00  0.00     0.184 C 
BRANCH  21  22
HETATM   22  C   UNL     1     -40.390  53.430 -50.533  1.00  0.00     0.231 C 
HETATM   23  N   UNL     1     -39.545  53.059 -51.573  1.00  0.00    -0.326 N 
HETATM   24  H   UNL     1     -38.616  53.464 -51.541  1.00  0.00     0.169 HD
HETATM   25  O   UNL     1     -41.385  52.811 -50.165  1.00  0.00    -0.272 OA
BRANCH  23  26
HETATM   26  C   UNL     1     -39.687  51.968 -52.466  1.00  0.00     0.040 A 
HETATM   27  C   UNL     1     -40.030  52.039 -53.827  1.00  0.00    -0.035 A 
HETATM   28  C   UNL     1     -40.157  53.312 -54.616  1.00  0.00     0.050 C 
HETATM   29  C   UNL     1     -40.213  50.838 -54.549  1.00  0.00     0.009 A 
HETATM   30  C   UNL     1     -39.993  49.594 -53.962  1.00  0.00     0.001 A 
HETATM   31  C   UNL     1     -39.569  49.527 -52.644  1.00  0.00     0.002 A 
HETATM   32  C   UNL     1     -39.406  50.705 -51.911  1.00  0.00     0.030 A 
ENDBRANCH  23  26
ENDBRANCH  21  22
ENDBRANCH  20  21
ENDBRANCH   6  20
BRANCH   2  33
HETATM   33  C   UNL     1     -43.320  57.043 -55.110  1.00  0.00     0.255 C 
HETATM   34  N   UNL     1     -42.388  56.733 -56.079  1.00  0.00    -0.323 N 
HETATM   35  H   UNL     1     -41.523  56.317 -55.760  1.00  0.00     0.169 HD
HETATM   36  O   UNL     1     -44.454  57.475 -55.267  1.00  0.00    -0.268 OA
BRANCH  34  37
HETATM   37  C   UNL     1     -42.455  56.999 -57.461  1.00  0.00     0.035 A 
HETATM   38  C   UNL     1     -42.111  58.221 -58.037  1.00  0.00     0.029 A 
HETATM   39  C   UNL     1     -42.174  58.388 -59.424  1.00  0.00     0.002 A 
HETATM   40  C   UNL     1     -42.574  57.334 -60.244  1.00  0.00     0.000 A 
HETATM   41  C   UNL     1     -42.921  56.112 -59.677  1.00  0.00     0.002 A 
HETATM   42  C   UNL     1     -42.867  55.947 -58.291  1.00  0.00     0.029 A 
ENDBRANCH  34  37
ENDBRANCH   2  33
TORSDOF 9
ENDMDL
MODEL 2
REMARK VINA RESULT:      -8.8      1.974      7.511
REMARK  9 active torsions:
REMARK  status: ('A' for Active; 'I' for Inactive)
REMARK    1  A    between atoms: C_2  and  O_3 
REMARK    2  A    between atoms: O_3  and  C_4 
REMARK    3  A    between atoms: C_7  and  C_8 
REMARK    4  A    between atoms: C_9  and  C_10 
REMARK       I    between atoms: C_10  and  N_11 
REMARK    5  A    between atoms: N_11  and  C_12 
REMARK    6  A    between atoms: C_22  and  S_23 
REMARK    7  A    between atoms: S_23  and  C_24 
REMARK    8  A    between atoms: C_24  and  C_25 
REMARK       I    between atoms: C_25  and  N_26 
REMARK    9  A    between atoms: N_26  and  C_27 
ROOT
HETATM    1  C   UNL     1     -42.568  56.831 -53.503  1.00  0.00     0.104 C 
HETATM    2  C   UNL     1     -42.705  57.869 -54.619  1.00  0.00     0.046 C 
HETATM    3  C   UNL     1     -42.028  59.040 -54.574  1.00  0.00     0.019 C 
HETATM    4  C   UNL     1     -42.154  60.171 -55.563  1.00  0.00     0.069 C 
HETATM    5  N   UNL     1     -41.161  59.269 -53.526  1.00  0.00    -0.353 N 
HETATM    6  C   UNL     1     -41.026  58.477 -52.407  1.00  0.00     0.087 C 
HETATM    7  C   UNL     1     -41.763  57.347 -52.301  1.00  0.00     0.055 C 
HETATM    8  C   UNL     1     -41.676  56.462 -51.069  1.00  0.00     0.019 C 
HETATM    9  N   UNL     1     -41.603  55.727 -50.046  1.00  0.00    -0.096 N 
HETATM   10  H   UNL     1     -40.499  60.044 -53.591  1.00  0.00     0.166 HD
ENDROOT
BRANCH   1  11
HETATM   11  C   UNL     1     -41.890  55.539 -53.993  1.00  0.00    -0.044 A 
HETATM   12  C   UNL     1     -40.630  55.560 -54.618  1.00  0.00     0.011 A 
HETATM   13  C   UNL     1     -39.951  54.370 -54.898  1.00  0.00     0.037 A 
HETATM   14  C   UNL     1     -40.492  53.146 -54.513  1.00  0.00     0.068 A 
HETATM   15  C   UNL     1     -41.763  53.111 -53.941  1.00  0.00     0.037 A 
HETATM   16  C   UNL     1     -42.461  54.294 -53.686  1.00  0.00     0.011 A 
BRANCH  14  17
HETATM   17  O   UNL     1     -39.871  51.936 -54.648  1.00  0.00    -0.352 OA
BRANCH  17  18
HETATM   18  C   UNL     1     -39.488  51.294 -53.431  1.00  0.00     0.171 C 
HETATM   19  C   UNL     1     -39.745  49.805 -53.572  1.00  0.00     0.034 C 
ENDBRANCH  17  18
ENDBRANCH  14  17
ENDBRANCH   1  11
BRANCH   6  20
HETATM   20  S   UNL     1     -39.851  58.933 -51.188  1.00  0.00    -0.102 SA
BRANCH  20  21
HETATM   21  C   UNL     1     -40.983  59.512 -49.877  1.00  0.00     0.184 C 
BRANCH  21  22
HETATM   22  C   UNL     1     -42.062  60.475 -50.382  1.00  0.00     0.231 C 
HETATM   23  N   UNL     1     -43.300  59.850 -50.489  1.00  0.00    -0.326 N 
HETATM   24  H   UNL     1     -43.405  59.001 -49.947  1.00  0.00     0.169 HD
HETATM   25  O   UNL     1     -41.833  61.655 -50.633  1.00  0.00    -0.272 OA
BRANCH  23  26
HETATM   26  C   UNL     1     -44.513  60.397 -50.978  1.00  0.00     0.040 A 
HETATM   27  C   UNL     1     -45.408  61.218 -50.270  1.00  0.00    -0.035 A 
HETATM   28  C   UNL     1     -45.151  61.789 -48.904  1.00  0.00     0.050 C 
HETATM   29  C   UNL     1     -46.617  61.603 -50.889  1.00  0.00     0.009 A 
HETATM   30  C   UNL     1     -46.909  61.247 -52.205  1.00  0.00     0.001 A 
HETATM   31  C   UNL     1     -45.987  60.511 -52.933  1.00  0.00     0.002 A 
HETATM   32  C   UNL     1     -44.796  60.103 -52.326  1.00  0.00     0.030 A 
ENDBRANCH  23  26
ENDBRANCH  21  22
ENDBRANCH  20  21
ENDBRANCH   6  20
BRANCH   2  33
HETATM   33  C   UNL     1     -43.645  57.513 -55.721  1.00  0.00     0.255 C 
HETATM   34  N   UNL     1     -42.990  57.075 -56.855  1.00  0.00    -0.323 N 
HETATM   35  H   UNL     1     -41.983  57.006 -56.799  1.00  0.00     0.169 HD
HETATM   36  O   UNL     1     -44.851  57.597 -55.534  1.00  0.00    -0.268 OA
BRANCH  34  37
HETATM   37  C   UNL     1     -43.545  56.787 -58.117  1.00  0.00     0.035 A 
HETATM   38  C   UNL     1     -44.042  57.754 -58.990  1.00  0.00     0.029 A 
HETATM   39  C   UNL     1     -44.544  57.382 -60.241  1.00  0.00     0.002 A 
HETATM   40  C   UNL     1     -44.547  56.044 -60.631  1.00  0.00     0.000 A 
HETATM   41  C   UNL     1     -44.055  55.072 -59.766  1.00  0.00     0.002 A 
HETATM   42  C   UNL     1     -43.562  55.441 -58.512  1.00  0.00     0.029 A 
ENDBRANCH  34  37
ENDBRANCH   2  33
TORSDOF 9
ENDMDL
MODEL 3
REMARK VINA RESULT:      -8.8      3.245      8.113
REMARK  9 active torsions:
REMARK  status: ('A' for Active; 'I' for Inactive)
REMARK    1  A    between atoms: C_2  and  O_3 
REMARK    2  A    between atoms: O_3  and  C_4 
REMARK    3  A    between atoms: C_7  and  C_8 
REMARK    4  A    between atoms: C_9  and  C_10 
REMARK       I    between atoms: C_10  and  N_11 
REMARK    5  A    between atoms: N_11  and  C_12 
REMARK    6  A    between atoms: C_22  and  S_23 
REMARK    7  A    between atoms: S_23  and  C_24 
REMARK    8  A    between atoms: C_24  and  C_25 
REMARK       I    between atoms: C_25  and  N_26 
REMARK    9  A    between atoms: N_26  and  C_27 
ROOT
HETATM    1  C   UNL     1     -43.776  57.141 -53.525  1.00  0.00     0.104 C 
HETATM    2  C   UNL     1     -43.345  55.859 -54.241  1.00  0.00     0.046 C 
HETATM    3  C   UNL     1     -43.467  55.732 -55.583  1.00  0.00     0.019 C 
HETATM    4  C   UNL     1     -43.165  54.490 -56.383  1.00  0.00     0.069 C 
HETATM    5  N   UNL     1     -43.939  56.801 -56.315  1.00  0.00    -0.353 N 
HETATM    6  C   UNL     1     -44.463  57.964 -55.792  1.00  0.00     0.087 C 
HETATM    7  C   UNL     1     -44.504  58.128 -54.450  1.00  0.00     0.055 C 
HETATM    8  C   UNL     1     -45.106  59.376 -53.827  1.00  0.00     0.019 C 
HETATM    9  N   UNL     1     -45.605  60.413 -53.310  1.00  0.00    -0.096 N 
HETATM   10  H   UNL     1     -43.839  56.790 -57.332  1.00  0.00     0.166 HD
ENDROOT
BRANCH   1  11
HETATM   11  C   UNL     1     -42.582  57.886 -52.903  1.00  0.00    -0.044 A 
HETATM   12  C   UNL     1     -42.437  58.011 -51.509  1.00  0.00     0.011 A 
HETATM   13  C   UNL     1     -41.264  58.534 -50.956  1.00  0.00     0.037 A 
HETATM   14  C   UNL     1     -40.199  58.891 -51.779  1.00  0.00     0.068 A 
HETATM   15  C   UNL     1     -40.351  58.821 -53.163  1.00  0.00     0.037 A 
HETATM   16  C   UNL     1     -41.532  58.327 -53.724  1.00  0.00     0.011 A 
BRANCH  14  17
HETATM   17  O   UNL     1     -38.977  59.319 -51.340  1.00  0.00    -0.352 OA
BRANCH  17  18
HETATM   18  C   UNL     1     -38.969  59.985 -50.076  1.00  0.00     0.171 C 
HETATM   19  C   UNL     1     -37.552  59.962 -49.531  1.00  0.00     0.034 C 
ENDBRANCH  17  18
ENDBRANCH  14  17
ENDBRANCH   1  11
BRANCH   6  20
HETATM   20  S   UNL     1     -44.996  59.218 -56.895  1.00  0.00    -0.102 SA
BRANCH  20  21
HETATM   21  C   UNL     1     -44.262  58.591 -58.445  1.00  0.00     0.184 C 
BRANCH  21  22
HETATM   22  C   UNL     1     -42.874  59.168 -58.742  1.00  0.00     0.231 C 
HETATM   23  N   UNL     1     -42.941  60.512 -59.096  1.00  0.00    -0.326 N 
HETATM   24  H   UNL     1     -43.785  60.993 -58.810  1.00  0.00     0.169 HD
HETATM   25  O   UNL     1     -41.846  58.504 -58.650  1.00  0.00    -0.272 OA
BRANCH  23  26
HETATM   26  C   UNL     1     -41.880  61.361 -59.500  1.00  0.00     0.040 A 
HETATM   27  C   UNL     1     -41.545  61.712 -60.819  1.00  0.00    -0.035 A 
HETATM   28  C   UNL     1     -42.359  61.366 -62.034  1.00  0.00     0.050 C 
HETATM   29  C   UNL     1     -40.397  62.505 -61.044  1.00  0.00     0.009 A 
HETATM   30  C   UNL     1     -39.635  63.001 -59.987  1.00  0.00     0.001 A 
HETATM   31  C   UNL     1     -40.017  62.726 -58.683  1.00  0.00     0.002 A 
HETATM   32  C   UNL     1     -41.136  61.925 -58.446  1.00  0.00     0.030 A 
ENDBRANCH  23  26
ENDBRANCH  21  22
ENDBRANCH  20  21
ENDBRANCH   6  20
BRANCH   2  33
HETATM   33  C   UNL     1     -42.821  54.773 -53.364  1.00  0.00     0.255 C 
HETATM   34  N   UNL     1     -41.509  54.452 -53.645  1.00  0.00    -0.323 N 
HETATM   35  H   UNL     1     -41.051  55.000 -54.362  1.00  0.00     0.169 HD
HETATM   36  O   UNL     1     -43.541  54.304 -52.492  1.00  0.00    -0.268 OA
BRANCH  34  37
HETATM   37  C   UNL     1     -40.744  53.395 -53.113  1.00  0.00     0.035 A 
HETATM   38  C   UNL     1     -40.335  53.321 -51.782  1.00  0.00     0.029 A 
HETATM   39  C   UNL     1     -39.607  52.216 -51.329  1.00  0.00     0.002 A 
HETATM   40  C   UNL     1     -39.288  51.177 -52.200  1.00  0.00     0.000 A 
HETATM   41  C   UNL     1     -39.690  51.243 -53.531  1.00  0.00     0.002 A 
HETATM   42  C   UNL     1     -40.410  52.350 -53.986  1.00  0.00     0.029 A 
ENDBRANCH  34  37
ENDBRANCH   2  33
TORSDOF 9
ENDMDL
MODEL 4
REMARK VINA RESULT:      -8.8      2.872      7.453
REMARK  9 active torsions:
REMARK  status: ('A' for Active; 'I' for Inactive)
REMARK    1  A    between atoms: C_2  and  O_3 
REMARK    2  A    between atoms: O_3  and  C_4 
REMARK    3  A    between atoms: C_7  and  C_8 
REMARK    4  A    between atoms: C_9  and  C_10 
REMARK       I    between atoms: C_10  and  N_11 
REMARK    5  A    between atoms: N_11  and  C_12 
REMARK    6  A    between atoms: C_22  and  S_23 
REMARK    7  A    between atoms: S_23  and  C_24 
REMARK    8  A    between atoms: C_24  and  C_25 
REMARK       I    between atoms: C_25  and  N_26 
REMARK    9  A    between atoms: N_26  and  C_27 
ROOT
HETATM    1  C   UNL     1     -43.535  56.708 -52.605  1.00  0.00     0.104 C 
HETATM    2  C   UNL     1     -43.269  55.476 -53.472  1.00  0.00     0.046 C 
HETATM    3  C   UNL     1     -43.646  55.438 -54.771  1.00  0.00     0.019 C 
HETATM    4  C   UNL     1     -43.521  54.251 -55.693  1.00  0.00     0.069 C 
HETATM    5  N   UNL     1     -44.231  56.555 -55.328  1.00  0.00    -0.353 N 
HETATM    6  C   UNL     1     -44.627  57.682 -54.642  1.00  0.00     0.087 C 
HETATM    7  C   UNL     1     -44.410  57.757 -53.309  1.00  0.00     0.055 C 
HETATM    8  C   UNL     1     -44.863  58.963 -52.502  1.00  0.00     0.019 C 
HETATM    9  N   UNL     1     -45.238  59.964 -51.833  1.00  0.00    -0.096 N 
HETATM   10  H   UNL     1     -44.326  56.611 -56.344  1.00  0.00     0.166 HD
ENDROOT
BRANCH   1  11
HETATM   11  C   UNL     1     -42.233  57.406 -52.175  1.00  0.00    -0.044 A 
HETATM   12  C   UNL     1     -41.331  57.930 -53.119  1.00  0.00     0.011 A 
HETATM   13  C   UNL     1     -40.246  58.712 -52.715  1.00  0.00     0.037 A 
HETATM   14  C   UNL     1     -40.071  59.028 -51.369  1.00  0.00     0.068 A 
HETATM   15  C   UNL     1     -40.927  58.470 -50.420  1.00  0.00     0.037 A 
HETATM   16  C   UNL     1     -41.997  57.662 -50.815  1.00  0.00     0.011 A 
BRANCH  14  17
HETATM   17  O   UNL     1     -39.105  59.860 -50.877  1.00  0.00    -0.352 OA
BRANCH  17  18
HETATM   18  C   UNL     1     -37.883  59.232 -50.488  1.00  0.00     0.171 C 
HETATM   19  C   UNL     1     -37.317  59.980 -49.294  1.00  0.00     0.034 C 
ENDBRANCH  17  18
ENDBRANCH  14  17
ENDBRANCH   1  11
BRANCH   6  20
HETATM   20  S   UNL     1     -45.341  59.009 -55.539  1.00  0.00    -0.102 SA
BRANCH  20  21
HETATM   21  C   UNL     1     -43.965  59.376 -56.682  1.00  0.00     0.184 C 
BRANCH  21  22
HETATM   22  C   UNL     1     -44.213  58.892 -58.114  1.00  0.00     0.231 C 
HETATM   23  N   UNL     1     -45.111  57.830 -58.151  1.00  0.00    -0.326 N 
HETATM   24  H   UNL     1     -45.701  57.735 -57.333  1.00  0.00     0.169 HD
HETATM   25  O   UNL     1     -43.683  59.414 -59.092  1.00  0.00    -0.272 OA
BRANCH  23  26
HETATM   26  C   UNL     1     -45.532  57.083 -59.279  1.00  0.00     0.040 A 
HETATM   27  C   UNL     1     -44.817  56.056 -59.917  1.00  0.00    -0.035 A 
HETATM   28  C   UNL     1     -43.531  55.462 -59.413  1.00  0.00     0.050 C 
HETATM   29  C   UNL     1     -45.354  55.475 -61.088  1.00  0.00     0.009 A 
HETATM   30  C   UNL     1     -46.604  55.847 -61.579  1.00  0.00     0.001 A 
HETATM   31  C   UNL     1     -47.348  56.799 -60.899  1.00  0.00     0.002 A 
HETATM   32  C   UNL     1     -46.820  57.398 -59.753  1.00  0.00     0.030 A 
ENDBRANCH  23  26
ENDBRANCH  21  22
ENDBRANCH  20  21
ENDBRANCH   6  20
BRANCH   2  33
HETATM   33  C   UNL     1     -42.605  54.331 -52.782  1.00  0.00     0.255 C 
HETATM   34  N   UNL     1     -41.498  53.871 -53.466  1.00  0.00    -0.323 N 
HETATM   35  H   UNL     1     -41.244  54.372 -54.308  1.00  0.00     0.169 HD
HETATM   36  O   UNL     1     -43.046  53.937 -51.711  1.00  0.00    -0.268 OA
BRANCH  34  37
HETATM   37  C   UNL     1     -40.718  52.733 -53.183  1.00  0.00     0.035 A 
HETATM   38  C   UNL     1     -40.070  52.515 -51.968  1.00  0.00     0.029 A 
HETATM   39  C   UNL     1     -39.343  51.338 -51.759  1.00  0.00     0.002 A 
HETATM   40  C   UNL     1     -39.265  50.370 -52.758  1.00  0.00     0.000 A 
HETATM   41  C   UNL     1     -39.907  50.581 -53.974  1.00  0.00     0.002 A 
HETATM   42  C   UNL     1     -40.626  51.759 -54.188  1.00  0.00     0.029 A 
ENDBRANCH  34  37
ENDBRANCH   2  33
TORSDOF 9
ENDMDL
MODEL 5
REMARK VINA RESULT:      -8.7      1.013      1.989
REMARK  9 active torsions:
REMARK  status: ('A' for Active; 'I' for Inactive)
REMARK    1  A    between atoms: C_2  and  O_3 
REMARK    2  A    between atoms: O_3  and  C_4 
REMARK    3  A    between atoms: C_7  and  C_8 
REMARK    4  A    between atoms: C_9  and  C_10 
REMARK       I    between atoms: C_10  and  N_11 
REMARK    5  A    between atoms: N_11  and  C_12 
REMARK    6  A    between atoms: C_22  and  S_23 
REMARK    7  A    between atoms: S_23  and  C_24 
REMARK    8  A    between atoms: C_24  and  C_25 
REMARK       I    between atoms: C_25  and  N_26 
REMARK    9  A    between atoms: N_26  and  C_27 
ROOT
HETATM    1  C   UNL     1     -42.097  58.041 -53.340  1.00  0.00     0.104 C 
HETATM    2  C   UNL     1     -42.876  56.924 -54.037  1.00  0.00     0.046 C 
HETATM    3  C   UNL     1     -43.101  55.739 -53.424  1.00  0.00     0.019 C 
HETATM    4  C   UNL     1     -43.772  54.538 -54.043  1.00  0.00     0.069 C 
HETATM    5  N   UNL     1     -42.664  55.565 -52.128  1.00  0.00    -0.353 N 
HETATM    6  C   UNL     1     -41.861  56.437 -51.427  1.00  0.00     0.087 C 
HETATM    7  C   UNL     1     -41.472  57.595 -52.009  1.00  0.00     0.055 C 
HETATM    8  C   UNL     1     -40.556  58.571 -51.289  1.00  0.00     0.019 C 
HETATM    9  N   UNL     1     -39.796  59.381 -50.692  1.00  0.00    -0.096 N 
HETATM   10  H   UNL     1     -43.007  54.765 -51.592  1.00  0.00     0.166 HD
ENDROOT
BRANCH   1  11
HETATM   11  C   UNL     1     -42.979  59.268 -53.048  1.00  0.00    -0.044 A 
HETATM   12  C   UNL     1     -42.660  60.541 -53.553  1.00  0.00     0.011 A 
HETATM   13  C   UNL     1     -43.558  61.606 -53.428  1.00  0.00     0.037 A 
HETATM   14  C   UNL     1     -44.807  61.405 -52.847  1.00  0.00     0.068 A 
HETATM   15  C   UNL     1     -45.112  60.161 -52.296  1.00  0.00     0.037 A 
HETATM   16  C   UNL     1     -44.207  59.100 -52.390  1.00  0.00     0.011 A 
BRANCH  14  17
HETATM   17  O   UNL     1     -45.794  62.347 -52.762  1.00  0.00    -0.352 OA
BRANCH  17  18
HETATM   18  C   UNL     1     -46.887  62.185 -53.668  1.00  0.00     0.171 C 
HETATM   19  C   UNL     1     -48.177  62.182 -52.867  1.00  0.00     0.034 C 
ENDBRANCH  17  18
ENDBRANCH  14  17
ENDBRANCH   1  11
BRANCH   6  20
HETATM   20  S   UNL     1     -41.425  56.040 -49.775  1.00  0.00    -0.102 SA
BRANCH  20  21
HETATM   21  C   UNL     1     -40.117  54.807 -50.096  1.00  0.00     0.184 C 
BRANCH  21  22
HETATM   22  C   UNL     1     -40.620  53.555 -50.822  1.00  0.00     0.231 C 
HETATM   23  N   UNL     1     -39.609  52.944 -51.556  1.00  0.00    -0.326 N 
HETATM   24  H   UNL     1     -38.666  53.184 -51.276  1.00  0.00     0.169 HD
HETATM   25  O   UNL     1     -41.777  53.155 -50.729  1.00  0.00    -0.272 OA
BRANCH  23  26
HETATM   26  C   UNL     1     -39.708  51.812 -52.402  1.00  0.00     0.040 A 
HETATM   27  C   UNL     1     -39.624  50.464 -52.010  1.00  0.00    -0.035 A 
HETATM   28  C   UNL     1     -39.566  49.985 -50.587  1.00  0.00     0.050 C 
HETATM   29  C   UNL     1     -39.658  49.461 -53.004  1.00  0.00     0.009 A 
HETATM   30  C   UNL     1     -39.844  49.773 -54.349  1.00  0.00     0.001 A 
HETATM   31  C   UNL     1     -40.015  51.097 -54.726  1.00  0.00     0.002 A 
HETATM   32  C   UNL     1     -39.960  52.101 -53.756  1.00  0.00     0.030 A 
ENDBRANCH  23  26
ENDBRANCH  21  22
ENDBRANCH  20  21
ENDBRANCH   6  20
BRANCH   2  33
HETATM   33  C   UNL     1     -43.330  57.223 -55.426  1.00  0.00     0.255 C 
HETATM   34  N   UNL     1     -42.309  57.129 -56.350  1.00  0.00    -0.323 N 
HETATM   35  H   UNL     1     -41.406  56.835 -55.999  1.00  0.00     0.169 HD
HETATM   36  O   UNL     1     -44.510  57.478 -55.631  1.00  0.00    -0.268 OA
BRANCH  34  37
HETATM   37  C   UNL     1     -42.344  57.470 -57.716  1.00  0.00     0.035 A 
HETATM   38  C   UNL     1     -42.733  56.594 -58.729  1.00  0.00     0.029 A 
HETATM   39  C   UNL     1     -42.773  57.028 -60.057  1.00  0.00     0.002 A 
HETATM   40  C   UNL     1     -42.431  58.339 -60.383  1.00  0.00     0.000 A 
HETATM   41  C   UNL     1     -42.039  59.219 -59.379  1.00  0.00     0.002 A 
HETATM   42  C   UNL     1     -41.990  58.785 -58.052  1.00  0.00     0.029 A 
ENDBRANCH  34  37
ENDBRANCH   2  33
TORSDOF 9
ENDMDL
MODEL 6
REMARK VINA RESULT:      -8.6      2.839      7.853
REMARK  9 active torsions:
REMARK  status: ('A' for Active; 'I' for Inactive)
REMARK    1  A    between atoms: C_2  and  O_3 
REMARK    2  A    between atoms: O_3  and  C_4 
REMARK    3  A    between atoms: C_7  and  C_8 
REMARK    4  A    between atoms: C_9  and  C_10 
REMARK       I    between atoms: C_10  and  N_11 
REMARK    5  A    between atoms: N_11  and  C_12 
REMARK    6  A    between atoms: C_22  and  S_23 
REMARK    7  A    between atoms: S_23  and  C_24 
REMARK    8  A    between atoms: C_24  and  C_25 
REMARK       I    between atoms: C_25  and  N_26 
REMARK    9  A    between atoms: N_26  and  C_27 
ROOT
HETATM    1  C   UNL     1     -43.567  56.711 -52.856  1.00  0.00     0.104 C 
HETATM    2  C   UNL     1     -43.256  55.477 -53.705  1.00  0.00     0.046 C 
HETATM    3  C   UNL     1     -43.564  55.437 -55.022  1.00  0.00     0.019 C 
HETATM    4  C   UNL     1     -43.391  54.249 -55.934  1.00  0.00     0.069 C 
HETATM    5  N   UNL     1     -44.120  56.553 -55.611  1.00  0.00    -0.353 N 
HETATM    6  C   UNL     1     -44.551  57.681 -54.948  1.00  0.00     0.087 C 
HETATM    7  C   UNL     1     -44.404  57.759 -53.606  1.00  0.00     0.055 C 
HETATM    8  C   UNL     1     -44.898  58.966 -52.827  1.00  0.00     0.019 C 
HETATM    9  N   UNL     1     -45.308  59.969 -52.180  1.00  0.00    -0.096 N 
HETATM   10  H   UNL     1     -44.161  56.608 -56.631  1.00  0.00     0.166 HD
ENDROOT
BRANCH   1  11
HETATM   11  C   UNL     1     -42.289  57.410 -52.360  1.00  0.00    -0.044 A 
HETATM   12  C   UNL     1     -41.353  57.957 -53.256  1.00  0.00     0.011 A 
HETATM   13  C   UNL     1     -40.291  58.739 -52.792  1.00  0.00     0.037 A 
HETATM   14  C   UNL     1     -40.175  59.032 -51.436  1.00  0.00     0.068 A 
HETATM   15  C   UNL     1     -41.065  58.451 -50.533  1.00  0.00     0.037 A 
HETATM   16  C   UNL     1     -42.112  57.644 -50.987  1.00  0.00     0.011 A 
BRANCH  14  17
HETATM   17  O   UNL     1     -39.236  59.862 -50.889  1.00  0.00    -0.352 OA
BRANCH  17  18
HETATM   18  C   UNL     1     -37.991  59.252 -50.547  1.00  0.00     0.171 C 
HETATM   19  C   UNL     1     -37.417  59.975 -49.342  1.00  0.00     0.034 C 
ENDBRANCH  17  18
ENDBRANCH  14  17
ENDBRANCH   1  11
BRANCH   6  20
HETATM   20  S   UNL     1     -45.217  59.007 -55.884  1.00  0.00    -0.102 SA
BRANCH  20  21
HETATM   21  C   UNL     1     -46.063  58.057 -57.194  1.00  0.00     0.184 C 
BRANCH  21  22
HETATM   22  C   UNL     1     -45.401  58.188 -58.570  1.00  0.00     0.231 C 
HETATM   23  N   UNL     1     -44.368  59.120 -58.557  1.00  0.00    -0.326 N 
HETATM   24  H   UNL     1     -43.988  59.332 -57.643  1.00  0.00     0.169 HD
HETATM   25  O   UNL     1     -45.751  57.522 -59.541  1.00  0.00    -0.272 OA
BRANCH  23  26
HETATM   26  C   UNL     1     -43.574  59.556 -59.647  1.00  0.00     0.040 A 
HETATM   27  C   UNL     1     -42.508  58.856 -60.239  1.00  0.00    -0.035 A 
HETATM   28  C   UNL     1     -42.122  57.441 -59.912  1.00  0.00     0.050 C 
HETATM   29  C   UNL     1     -41.767  59.482 -61.267  1.00  0.00     0.009 A 
HETATM   30  C   UNL     1     -42.113  60.742 -61.751  1.00  0.00     0.001 A 
HETATM   31  C   UNL     1     -43.218  61.395 -61.227  1.00  0.00     0.002 A 
HETATM   32  C   UNL     1     -43.947  60.798 -60.195  1.00  0.00     0.030 A 
ENDBRANCH  23  26
ENDBRANCH  21  22
ENDBRANCH  20  21
ENDBRANCH   6  20
BRANCH   2  33
HETATM   33  C   UNL     1     -42.629  54.335 -52.980  1.00  0.00     0.255 C 
HETATM   34  N   UNL     1     -41.502  53.856 -53.618  1.00  0.00    -0.323 N 
HETATM   35  H   UNL     1     -41.213  54.346 -54.455  1.00  0.00     0.169 HD
HETATM   36  O   UNL     1     -43.112  53.956 -51.921  1.00  0.00    -0.268 OA
BRANCH  34  37
HETATM   37  C   UNL     1     -40.744  52.714 -53.294  1.00  0.00     0.035 A 
HETATM   38  C   UNL     1     -40.127  52.512 -52.060  1.00  0.00     0.029 A 
HETATM   39  C   UNL     1     -39.422  51.330 -51.811  1.00  0.00     0.002 A 
HETATM   40  C   UNL     1     -39.333  50.342 -52.789  1.00  0.00     0.000 A 
HETATM   41  C   UNL     1     -39.943  50.536 -54.024  1.00  0.00     0.002 A 
HETATM   42  C   UNL     1     -40.641  51.720 -54.277  1.00  0.00     0.029 A 
ENDBRANCH  34  37
ENDBRANCH   2  33
TORSDOF 9
ENDMDL
MODEL 7
REMARK VINA RESULT:      -8.3      2.042      5.527
REMARK  9 active torsions:
REMARK  status: ('A' for Active; 'I' for Inactive)
REMARK    1  A    between atoms: C_2  and  O_3 
REMARK    2  A    between atoms: O_3  and  C_4 
REMARK    3  A    between atoms: C_7  and  C_8 
REMARK    4  A    between atoms: C_9  and  C_10 
REMARK       I    between atoms: C_10  and  N_11 
REMARK    5  A    between atoms: N_11  and  C_12 
REMARK    6  A    between atoms: C_22  and  S_23 
REMARK    7  A    between atoms: S_23  and  C_24 
REMARK    8  A    between atoms: C_24  and  C_25 
REMARK       I    between atoms: C_25  and  N_26 
REMARK    9  A    between atoms: N_26  and  C_27 
ROOT
HETATM    1  C   UNL     1     -42.909  57.538 -51.716  1.00  0.00     0.104 C 
HETATM    2  C   UNL     1     -41.859  58.649 -51.688  1.00  0.00     0.046 C 
HETATM    3  C   UNL     1     -40.793  58.586 -50.857  1.00  0.00     0.019 C 
HETATM    4  C   UNL     1     -39.749  59.658 -50.675  1.00  0.00     0.069 C 
HETATM    5  N   UNL     1     -40.631  57.469 -50.064  1.00  0.00    -0.353 N 
HETATM    6  C   UNL     1     -41.549  56.453 -49.909  1.00  0.00     0.087 C 
HETATM    7  C   UNL     1     -42.709  56.497 -50.603  1.00  0.00     0.055 C 
HETATM    8  C   UNL     1     -43.769  55.420 -50.436  1.00  0.00     0.019 C 
HETATM    9  N   UNL     1     -44.648  54.526 -50.299  1.00  0.00    -0.096 N 
HETATM   10  H   UNL     1     -39.735  57.317 -49.597  1.00  0.00     0.166 HD
ENDROOT
BRANCH   1  11
HETATM   11  C   UNL     1     -42.918  56.783 -53.057  1.00  0.00    -0.044 A 
HETATM   12  C   UNL     1     -44.038  56.806 -53.908  1.00  0.00     0.011 A 
HETATM   13  C   UNL     1     -43.970  56.266 -55.195  1.00  0.00     0.037 A 
HETATM   14  C   UNL     1     -42.772  55.741 -55.673  1.00  0.00     0.068 A 
HETATM   15  C   UNL     1     -41.671  55.665 -54.821  1.00  0.00     0.037 A 
HETATM   16  C   UNL     1     -41.741  56.176 -53.522  1.00  0.00     0.011 A 
BRANCH  14  17
HETATM   17  O   UNL     1     -42.568  55.278 -56.944  1.00  0.00    -0.352 OA
BRANCH  17  18
HETATM   18  C   UNL     1     -42.977  56.153 -57.996  1.00  0.00     0.171 C 
HETATM   19  C   UNL     1     -43.738  55.340 -59.027  1.00  0.00     0.034 C 
ENDBRANCH  17  18
ENDBRANCH  14  17
ENDBRANCH   1  11
BRANCH   6  20
HETATM   20  S   UNL     1     -41.147  55.105 -48.863  1.00  0.00    -0.102 SA
BRANCH  20  21
HETATM   21  C   UNL     1     -39.859  54.305 -49.882  1.00  0.00     0.184 C 
BRANCH  21  22
HETATM   22  C   UNL     1     -40.412  53.264 -50.860  1.00  0.00     0.231 C 
HETATM   23  N   UNL     1     -39.398  52.495 -51.422  1.00  0.00    -0.326 N 
HETATM   24  H   UNL     1     -38.525  52.489 -50.908  1.00  0.00     0.169 HD
HETATM   25  O   UNL     1     -41.613  53.135 -51.083  1.00  0.00    -0.272 OA
BRANCH  23  26
HETATM   26  C   UNL     1     -39.514  51.486 -52.410  1.00  0.00     0.040 A 
HETATM   27  C   UNL     1     -39.485  50.097 -52.194  1.00  0.00    -0.035 A 
HETATM   28  C   UNL     1     -39.479  49.436 -50.844  1.00  0.00     0.050 C 
HETATM   29  C   UNL     1     -39.528  49.232 -53.311  1.00  0.00     0.009 A 
HETATM   30  C   UNL     1     -39.670  49.721 -54.607  1.00  0.00     0.001 A 
HETATM   31  C   UNL     1     -39.787  51.088 -54.812  1.00  0.00     0.002 A 
HETATM   32  C   UNL     1     -39.723  51.956 -53.720  1.00  0.00     0.030 A 
ENDBRANCH  23  26
ENDBRANCH  21  22
ENDBRANCH  20  21
ENDBRANCH   6  20
BRANCH   2  33
HETATM   33  C   UNL     1     -42.111  59.800 -52.603  1.00  0.00     0.255 C 
HETATM   34  N   UNL     1     -43.221  60.534 -52.238  1.00  0.00    -0.323 N 
HETATM   35  H   UNL     1     -43.698  60.246 -51.393  1.00  0.00     0.169 HD
HETATM   36  O   UNL     1     -41.340  60.011 -53.530  1.00  0.00    -0.268 OA
BRANCH  34  37
HETATM   37  C   UNL     1     -43.826  61.594 -52.940  1.00  0.00     0.035 A 
HETATM   38  C   UNL     1     -44.984  61.462 -53.706  1.00  0.00     0.029 A 
HETATM   39  C   UNL     1     -45.538  62.577 -54.343  1.00  0.00     0.002 A 
HETATM   40  C   UNL     1     -44.944  63.831 -54.214  1.00  0.00     0.000 A 
HETATM   41  C   UNL     1     -43.788  63.972 -53.454  1.00  0.00     0.002 A 
HETATM   42  C   UNL     1     -43.228  62.857 -52.824  1.00  0.00     0.029 A 
ENDBRANCH  34  37
ENDBRANCH   2  33
TORSDOF 9
ENDMDL
MODEL 8
REMARK VINA RESULT:      -8.3      2.589      8.400
REMARK  9 active torsions:
REMARK  status: ('A' for Active; 'I' for Inactive)
REMARK    1  A    between atoms: C_2  and  O_3 
REMARK    2  A    between atoms: O_3  and  C_4 
REMARK    3  A    between atoms: C_7  and  C_8 
REMARK    4  A    between atoms: C_9  and  C_10 
REMARK       I    between atoms: C_10  and  N_11 
REMARK    5  A    between atoms: N_11  and  C_12 
REMARK    6  A    between atoms: C_22  and  S_23 
REMARK    7  A    between atoms: S_23  and  C_24 
REMARK    8  A    between atoms: C_24  and  C_25 
REMARK       I    between atoms: C_25  and  N_26 
REMARK    9  A    between atoms: N_26  and  C_27 
ROOT
HETATM    1  C   UNL     1     -43.140  57.055 -54.871  1.00  0.00     0.104 C 
HETATM    2  C   UNL     1     -42.806  58.040 -55.993  1.00  0.00     0.046 C 
HETATM    3  C   UNL     1     -42.289  59.261 -55.723  1.00  0.00     0.019 C 
HETATM    4  C   UNL     1     -42.008  60.344 -56.734  1.00  0.00     0.069 C 
HETATM    5  N   UNL     1     -42.011  59.592 -54.414  1.00  0.00    -0.353 N 
HETATM    6  C   UNL     1     -42.361  58.852 -53.306  1.00  0.00     0.087 C 
HETATM    7  C   UNL     1     -43.003  57.674 -53.471  1.00  0.00     0.055 C 
HETATM    8  C   UNL     1     -43.442  56.840 -52.278  1.00  0.00     0.019 C 
HETATM    9  N   UNL     1     -43.807  56.149 -51.288  1.00  0.00    -0.096 N 
HETATM   10  H   UNL     1     -41.435  60.415 -54.222  1.00  0.00     0.166 HD
ENDROOT
BRANCH   1  11
HETATM   11  C   UNL     1     -42.245  55.804 -54.913  1.00  0.00    -0.044 A 
HETATM   12  C   UNL     1     -40.842  55.901 -54.912  1.00  0.00     0.011 A 
HETATM   13  C   UNL     1     -40.045  54.761 -54.772  1.00  0.00     0.037 A 
HETATM   14  C   UNL     1     -40.634  53.513 -54.580  1.00  0.00     0.068 A 
HETATM   15  C   UNL     1     -42.023  53.398 -54.633  1.00  0.00     0.037 A 
HETATM   16  C   UNL     1     -42.824  54.530 -54.802  1.00  0.00     0.011 A 
BRANCH  14  17
HETATM   17  O   UNL     1     -39.953  52.353 -54.337  1.00  0.00    -0.352 OA
BRANCH  17  18
HETATM   18  C   UNL     1     -40.747  51.165 -54.292  1.00  0.00     0.171 C 
HETATM   19  C   UNL     1     -39.820  49.966 -54.378  1.00  0.00     0.034 C 
ENDBRANCH  17  18
ENDBRANCH  14  17
ENDBRANCH   1  11
BRANCH   6  20
HETATM   20  S   UNL     1     -41.900  59.440 -51.719  1.00  0.00    -0.102 SA
BRANCH  20  21
HETATM   21  C   UNL     1     -43.031  60.868 -51.585  1.00  0.00     0.184 C 
BRANCH  21  22
HETATM   22  C   UNL     1     -44.180  60.649 -50.595  1.00  0.00     0.231 C 
HETATM   23  N   UNL     1     -44.298  61.707 -49.701  1.00  0.00    -0.326 N 
HETATM   24  H   UNL     1     -43.868  62.575 -49.998  1.00  0.00     0.169 HD
HETATM   25  O   UNL     1     -44.903  59.657 -50.628  1.00  0.00    -0.272 OA
BRANCH  23  26
HETATM   26  C   UNL     1     -45.193  61.831 -48.609  1.00  0.00     0.040 A 
HETATM   27  C   UNL     1     -46.440  62.480 -48.619  1.00  0.00    -0.035 A 
HETATM   28  C   UNL     1     -47.114  63.028 -49.846  1.00  0.00     0.050 C 
HETATM   29  C   UNL     1     -47.167  62.582 -47.412  1.00  0.00     0.009 A 
HETATM   30  C   UNL     1     -46.709  61.995 -46.234  1.00  0.00     0.001 A 
HETATM   31  C   UNL     1     -45.521  61.281 -46.244  1.00  0.00     0.002 A 
HETATM   32  C   UNL     1     -44.781  61.191 -47.426  1.00  0.00     0.030 A 
ENDBRANCH  23  26
ENDBRANCH  21  22
ENDBRANCH  20  21
ENDBRANCH   6  20
BRANCH   2  33
HETATM   33  C   UNL     1     -43.117  57.574 -57.376  1.00  0.00     0.255 C 
HETATM   34  N   UNL     1     -44.473  57.458 -57.603  1.00  0.00    -0.323 N 
HETATM   35  H   UNL     1     -45.085  57.734 -56.846  1.00  0.00     0.169 HD
HETATM   36  O   UNL     1     -42.202  57.377 -58.164  1.00  0.00    -0.268 OA
BRANCH  34  37
HETATM   37  C   UNL     1     -45.118  56.923 -58.736  1.00  0.00     0.035 A 
HETATM   38  C   UNL     1     -44.612  55.870 -59.496  1.00  0.00     0.029 A 
HETATM   39  C   UNL     1     -45.337  55.377 -60.586  1.00  0.00     0.002 A 
HETATM   40  C   UNL     1     -46.572  55.928 -60.920  1.00  0.00     0.000 A 
HETATM   41  C   UNL     1     -47.083  56.981 -60.168  1.00  0.00     0.002 A 
HETATM   42  C   UNL     1     -46.357  57.480 -59.084  1.00  0.00     0.029 A 
ENDBRANCH  34  37
ENDBRANCH   2  33
TORSDOF 9
ENDMDL
MODEL 9
REMARK VINA RESULT:      -7.9      3.481      8.158
REMARK  9 active torsions:
REMARK  status: ('A' for Active; 'I' for Inactive)
REMARK    1  A    between atoms: C_2  and  O_3 
REMARK    2  A    between atoms: O_3  and  C_4 
REMARK    3  A    between atoms: C_7  and  C_8 
REMARK    4  A    between atoms: C_9  and  C_10 
REMARK       I    between atoms: C_10  and  N_11 
REMARK    5  A    between atoms: N_11  and  C_12 
REMARK    6  A    between atoms: C_22  and  S_23 
REMARK    7  A    between atoms: S_23  and  C_24 
REMARK    8  A    between atoms: C_24  and  C_25 
REMARK       I    between atoms: C_25  and  N_26 
REMARK    9  A    between atoms: N_26  and  C_27 
ROOT
HETATM    1  C   UNL     1     -43.960  57.433 -54.188  1.00  0.00     0.104 C 
HETATM    2  C   UNL     1     -43.305  56.352 -55.051  1.00  0.00     0.046 C 
HETATM    3  C   UNL     1     -43.049  56.562 -56.363  1.00  0.00     0.019 C 
HETATM    4  C   UNL     1     -42.495  55.545 -57.328  1.00  0.00     0.069 C 
HETATM    5  N   UNL     1     -43.339  57.794 -56.910  1.00  0.00    -0.353 N 
HETATM    6  C   UNL     1     -44.026  58.810 -56.282  1.00  0.00     0.087 C 
HETATM    7  C   UNL     1     -44.441  58.641 -55.006  1.00  0.00     0.055 C 
HETATM    8  C   UNL     1     -45.234  59.719 -54.285  1.00  0.00     0.019 C 
HETATM    9  N   UNL     1     -45.892  60.613 -53.687  1.00  0.00    -0.096 N 
HETATM   10  H   UNL     1     -42.963  58.030 -57.830  1.00  0.00     0.166 HD
ENDROOT
BRANCH   1  11
HETATM   11  C   UNL     1     -43.010  57.960 -53.099  1.00  0.00    -0.044 A 
HETATM   12  C   UNL     1     -43.216  57.670 -51.738  1.00  0.00     0.011 A 
HETATM   13  C   UNL     1     -42.253  58.005 -50.781  1.00  0.00     0.037 A 
HETATM   14  C   UNL     1     -41.049  58.587 -51.171  1.00  0.00     0.068 A 
HETATM   15  C   UNL     1     -40.857  58.927 -52.510  1.00  0.00     0.037 A 
HETATM   16  C   UNL     1     -41.828  58.622 -53.468  1.00  0.00     0.011 A 
BRANCH  14  17
HETATM   17  O   UNL     1     -40.004  58.865 -50.335  1.00  0.00    -0.352 OA
BRANCH  17  18
HETATM   18  C   UNL     1     -38.803  59.309 -50.969  1.00  0.00     0.171 C 
HETATM   19  C   UNL     1     -37.896  59.909 -49.910  1.00  0.00     0.034 C 
ENDBRANCH  17  18
ENDBRANCH  14  17
ENDBRANCH   1  11
BRANCH   6  20
HETATM   20  S   UNL     1     -44.281  60.315 -57.146  1.00  0.00    -0.102 SA
BRANCH  20  21
HETATM   21  C   UNL     1     -43.380  59.935 -58.688  1.00  0.00     0.184 C 
BRANCH  21  22
HETATM   22  C   UNL     1     -44.298  59.593 -59.866  1.00  0.00     0.231 C 
HETATM   23  N   UNL     1     -45.385  58.824 -59.464  1.00  0.00    -0.326 N 
HETATM   24  H   UNL     1     -45.602  58.864 -58.476  1.00  0.00     0.169 HD
HETATM   25  O   UNL     1     -44.083  59.983 -61.010  1.00  0.00    -0.272 OA
BRANCH  23  26
HETATM   26  C   UNL     1     -46.405  58.265 -60.275  1.00  0.00     0.040 A 
HETATM   27  C   UNL     1     -46.583  56.904 -60.578  1.00  0.00    -0.035 A 
HETATM   28  C   UNL     1     -45.801  55.778 -59.963  1.00  0.00     0.050 C 
HETATM   29  C   UNL     1     -47.608  56.533 -61.477  1.00  0.00     0.009 A 
HETATM   30  C   UNL     1     -48.486  57.475 -62.010  1.00  0.00     0.001 A 
HETATM   31  C   UNL     1     -48.366  58.806 -61.642  1.00  0.00     0.002 A 
HETATM   32  C   UNL     1     -47.342  59.191 -60.772  1.00  0.00     0.030 A 
ENDBRANCH  23  26
ENDBRANCH  21  22
ENDBRANCH  20  21
ENDBRANCH   6  20
BRANCH   2  33
HETATM   33  C   UNL     1     -43.004  55.066 -54.357  1.00  0.00     0.255 C 
HETATM   34  N   UNL     1     -41.674  54.951 -54.008  1.00  0.00    -0.323 N 
HETATM   35  H   UNL     1     -41.080  55.744 -54.216  1.00  0.00     0.169 HD
HETATM   36  O   UNL     1     -43.912  54.276 -54.134  1.00  0.00    -0.268 OA
BRANCH  34  37
HETATM   37  C   UNL     1     -41.015  53.829 -53.468  1.00  0.00     0.035 A 
HETATM   38  C   UNL     1     -40.564  52.749 -54.226  1.00  0.00     0.029 A 
HETATM   39  C   UNL     1     -39.887  51.691 -53.612  1.00  0.00     0.002 A 
HETATM   40  C   UNL     1     -39.651  51.708 -52.239  1.00  0.00     0.000 A 
HETATM   41  C   UNL     1     -40.099  52.780 -51.474  1.00  0.00     0.002 A 
HETATM   42  C   UNL     1     -40.783  53.833 -52.085  1.00  0.00     0.029 A 
ENDBRANCH  34  37
ENDBRANCH   2  33
TORSDOF 9
ENDMDL
MODEL 10
REMARK VINA RESULT:      -7.8      3.245      7.822
REMARK  9 active torsions:
REMARK  status: ('A' for Active; 'I' for Inactive)
REMARK    1  A    between atoms: C_2  and  O_3 
REMARK    2  A    between atoms: O_3  and  C_4 
REMARK    3  A    between atoms: C_7  and  C_8 
REMARK    4  A    between atoms: C_9  and  C_10 
REMARK       I    between atoms: C_10  and  N_11 
REMARK    5  A    between atoms: N_11  and  C_12 
REMARK    6  A    between atoms: C_22  and  S_23 
REMARK    7  A    between atoms: S_23  and  C_24 
REMARK    8  A    between atoms: C_24  and  C_25 
REMARK       I    between atoms: C_25  and  N_26 
REMARK    9  A    between atoms: N_26  and  C_27 
ROOT
HETATM    1  C   UNL     1     -43.882  61.035 -52.809  1.00  0.00     0.104 C 
HETATM    2  C   UNL     1     -45.151  61.597 -52.165  1.00  0.00     0.046 C 
HETATM    3  C   UNL     1     -46.328  61.612 -52.832  1.00  0.00     0.019 C 
HETATM    4  C   UNL     1     -47.616  62.220 -52.337  1.00  0.00     0.069 C 
HETATM    5  N   UNL     1     -46.386  61.059 -54.094  1.00  0.00    -0.353 N 
HETATM    6  C   UNL     1     -45.307  60.624 -54.831  1.00  0.00     0.087 C 
HETATM    7  C   UNL     1     -44.067  60.692 -54.295  1.00  0.00     0.055 C 
HETATM    8  C   UNL     1     -42.842  60.259 -55.084  1.00  0.00     0.019 C 
HETATM    9  N   UNL     1     -41.826  59.899 -55.739  1.00  0.00    -0.096 N 
HETATM   10  H   UNL     1     -47.300  60.878 -54.515  1.00  0.00     0.166 HD
ENDROOT
BRANCH   1  11
HETATM   11  C   UNL     1     -43.386  59.763 -52.100  1.00  0.00    -0.044 A 
HETATM   12  C   UNL     1     -44.191  58.614 -52.000  1.00  0.00     0.011 A 
HETATM   13  C   UNL     1     -43.667  57.414 -51.511  1.00  0.00     0.037 A 
HETATM   14  C   UNL     1     -42.321  57.325 -51.164  1.00  0.00     0.068 A 
HETATM   15  C   UNL     1     -41.528  58.471 -51.208  1.00  0.00     0.037 A 
HETATM   16  C   UNL     1     -42.053  59.682 -51.667  1.00  0.00     0.011 A 
BRANCH  14  17
HETATM   17  O   UNL     1     -41.685  56.181 -50.769  1.00  0.00    -0.352 OA
BRANCH  17  18
HETATM   18  C   UNL     1     -42.535  55.104 -50.370  1.00  0.00     0.171 C 
HETATM   19  C   UNL     1     -42.315  53.943 -51.322  1.00  0.00     0.034 C 
ENDBRANCH  17  18
ENDBRANCH  14  17
ENDBRANCH   1  11
BRANCH   6  20
HETATM   20  S   UNL     1     -45.593  59.933 -56.418  1.00  0.00    -0.102 SA
BRANCH  20  21
HETATM   21  C   UNL     1     -45.668  58.165 -55.969  1.00  0.00     0.184 C 
BRANCH  21  22
HETATM   22  C   UNL     1     -44.360  57.411 -56.227  1.00  0.00     0.231 C 
HETATM   23  N   UNL     1     -43.973  56.659 -55.123  1.00  0.00    -0.326 N 
HETATM   24  H   UNL     1     -44.711  56.449 -54.462  1.00  0.00     0.169 HD
HETATM   25  O   UNL     1     -43.760  57.470 -57.297  1.00  0.00    -0.272 OA
BRANCH  23  26
HETATM   26  C   UNL     1     -42.795  55.888 -54.962  1.00  0.00     0.040 A 
HETATM   27  C   UNL     1     -42.636  54.526 -55.275  1.00  0.00    -0.035 A 
HETATM   28  C   UNL     1     -43.658  53.683 -55.984  1.00  0.00     0.050 C 
HETATM   29  C   UNL     1     -41.411  53.893 -54.969  1.00  0.00     0.009 A 
HETATM   30  C   UNL     1     -40.338  54.602 -54.432  1.00  0.00     0.001 A 
HETATM   31  C   UNL     1     -40.465  55.964 -54.205  1.00  0.00     0.002 A 
HETATM   32  C   UNL     1     -41.679  56.599 -54.482  1.00  0.00     0.030 A 
ENDBRANCH  23  26
ENDBRANCH  21  22
ENDBRANCH  20  21
ENDBRANCH   6  20
BRANCH   2  33
HETATM   33  C   UNL     1     -44.988  62.144 -50.787  1.00  0.00     0.255 C 
HETATM   34  N   UNL     1     -45.541  61.325 -49.823  1.00  0.00    -0.323 N 
HETATM   35  H   UNL     1     -45.943  60.454 -50.144  1.00  0.00     0.169 HD
HETATM   36  O   UNL     1     -44.382  63.195 -50.624  1.00  0.00    -0.268 OA
BRANCH  34  37
HETATM   37  C   UNL     1     -45.690  61.587 -48.447  1.00  0.00     0.035 A 
HETATM   38  C   UNL     1     -44.816  61.120 -47.465  1.00  0.00     0.029 A 
HETATM   39  C   UNL     1     -45.019  61.458 -46.124  1.00  0.00     0.002 A 
HETATM   40  C   UNL     1     -46.091  62.269 -45.755  1.00  0.00     0.000 A 
HETATM   41  C   UNL     1     -46.969  62.737 -46.727  1.00  0.00     0.002 A 
HETATM   42  C   UNL     1     -46.772  62.392 -48.067  1.00  0.00     0.029 A 
ENDBRANCH  34  37
ENDBRANCH   2  33
TORSDOF 9
ENDMDL
