MODEL 1
REMARK VINA RESULT:      -8.4      0.000      0.000
REMARK  3 active torsions:
REMARK  status: ('A' for Active; 'I' for Inactive)
REMARK    1  A    between atoms: C_4  and  C_5 
REMARK    2  A    between atoms: C_9  and  C_10 
REMARK       I    between atoms: C_10  and  N_11 
REMARK    3  A    between atoms: N_11  and  N_12 
ROOT
HETATM    1  C   UNL     1     -43.625  57.191 -52.495  1.00  0.00     0.289 C 
HETATM    2  N   UNL     1     -43.679  55.855 -52.132  1.00  0.00    -0.241 N 
HETATM    3  O   UNL     1     -42.988  57.615 -53.457  1.00  0.00    -0.264 OA
HETATM    4  H   UNL     1     -44.222  55.553 -51.325  1.00  0.00     0.192 HD
ENDROOT
BRANCH   1   5
HETATM    5  C   UNL     1     -44.381  58.086 -51.657  1.00  0.00     0.121 A 
HETATM    6  N   UNL     1     -45.636  57.743 -51.228  1.00  0.00    -0.272 N 
HETATM    7  N   UNL     1     -46.228  58.667 -50.454  1.00  0.00    -0.172 NA
HETATM    8  H   UNL     1     -46.132  56.882 -51.439  1.00  0.00     0.189 HD
HETATM    9  C   UNL     1     -45.319  59.647 -50.380  1.00  0.00     0.113 A 
HETATM   10  C   UNL     1     -44.149  59.335 -51.113  1.00  0.00     0.073 A 
BRANCH   9  11
HETATM   11  C   UNL     1     -45.553  60.902 -49.608  1.00  0.00     0.106 A 
HETATM   12  O   UNL     1     -46.264  60.981 -48.441  1.00  0.00    -0.313 OA
HETATM   13  C   UNL     1     -46.253  62.286 -48.046  1.00  0.00     0.050 A 
HETATM   14  C   UNL     1     -46.968  62.608 -46.795  1.00  0.00     0.076 C 
HETATM   15  C   UNL     1     -45.541  63.049 -48.944  1.00  0.00     0.035 A 
HETATM   16  C   UNL     1     -45.091  62.159 -49.948  1.00  0.00     0.042 A 
ENDBRANCH   9  11
ENDBRANCH   1   5
BRANCH   2  17
HETATM   17  N   UNL     1     -42.994  54.921 -52.861  1.00  0.00    -0.165 NA
HETATM   18  C   UNL     1     -42.073  54.254 -52.245  1.00  0.00     0.157 A 
HETATM   19  C   UNL     1     -41.630  54.362 -50.784  1.00  0.00     0.277 A 
HETATM   20  C   UNL     1     -41.235  53.221 -52.840  1.00  0.00     0.027 A 
HETATM   21  O   UNL     1     -42.110  55.126 -49.973  1.00  0.00    -0.266 OA
HETATM   22  N   UNL     1     -40.620  53.437 -50.633  1.00  0.00    -0.321 N 
HETATM   23  C   UNL     1     -40.385  52.767 -51.833  1.00  0.00     0.048 A 
HETATM   24  H   UNL     1     -40.131  53.283 -49.764  1.00  0.00     0.169 HD
HETATM   25  C   UNL     1     -39.457  51.777 -52.074  1.00  0.00     0.030 A 
HETATM   26  C   UNL     1     -39.403  51.249 -53.370  1.00  0.00     0.002 A 
HETATM   27  C   UNL     1     -40.267  51.713 -54.385  1.00  0.00     0.001 A 
HETATM   28  C   UNL     1     -41.202  52.717 -54.124  1.00  0.00     0.016 A 
ENDBRANCH   2  17
TORSDOF 3
ENDMDL
MODEL 2
REMARK VINA RESULT:      -8.3      2.258      2.643
REMARK  3 active torsions:
REMARK  status: ('A' for Active; 'I' for Inactive)
REMARK    1  A    between atoms: C_4  and  C_5 
REMARK    2  A    between atoms: C_9  and  C_10 
REMARK       I    between atoms: C_10  and  N_11 
REMARK    3  A    between atoms: N_11  and  N_12 
ROOT
HETATM    1  C   UNL     1     -41.606  56.716 -54.010  1.00  0.00     0.289 C 
HETATM    2  N   UNL     1     -41.272  55.689 -53.142  1.00  0.00    -0.241 N 
HETATM    3  O   UNL     1     -41.668  56.590 -55.230  1.00  0.00    -0.264 OA
HETATM    4  H   UNL     1     -41.234  55.844 -52.136  1.00  0.00     0.192 HD
ENDROOT
BRANCH   1   5
HETATM    5  C   UNL     1     -41.885  57.983 -53.383  1.00  0.00     0.121 A 
HETATM    6  N   UNL     1     -41.374  59.143 -53.902  1.00  0.00    -0.272 N 
HETATM    7  N   UNL     1     -41.711  60.250 -53.222  1.00  0.00    -0.172 NA
HETATM    8  H   UNL     1     -40.785  59.228 -54.726  1.00  0.00     0.189 HD
HETATM    9  C   UNL     1     -42.472  59.787 -52.222  1.00  0.00     0.113 A 
HETATM   10  C   UNL     1     -42.612  58.380 -52.277  1.00  0.00     0.073 A 
BRANCH   9  11
HETATM   11  C   UNL     1     -43.079  60.682 -51.195  1.00  0.00     0.106 A 
HETATM   12  O   UNL     1     -43.993  60.287 -50.255  1.00  0.00    -0.313 OA
HETATM   13  C   UNL     1     -44.306  61.382 -49.506  1.00  0.00     0.050 A 
HETATM   14  C   UNL     1     -45.285  61.186 -48.419  1.00  0.00     0.076 C 
HETATM   15  C   UNL     1     -43.603  62.479 -49.950  1.00  0.00     0.035 A 
HETATM   16  C   UNL     1     -42.815  62.029 -51.037  1.00  0.00     0.042 A 
ENDBRANCH   9  11
ENDBRANCH   1   5
BRANCH   2  17
HETATM   17  N   UNL     1     -40.987  54.445 -53.635  1.00  0.00    -0.165 NA
HETATM   18  C   UNL     1     -40.588  53.554 -52.786  1.00  0.00     0.157 A 
HETATM   19  C   UNL     1     -40.386  53.696 -51.275  1.00  0.00     0.277 A 
HETATM   20  C   UNL     1     -40.235  52.177 -53.107  1.00  0.00     0.027 A 
HETATM   21  O   UNL     1     -40.583  54.715 -50.646  1.00  0.00    -0.266 OA
HETATM   22  N   UNL     1     -39.953  52.462 -50.841  1.00  0.00    -0.321 N 
HETATM   23  C   UNL     1     -39.864  51.570 -51.908  1.00  0.00     0.048 A 
HETATM   24  H   UNL     1     -39.736  52.255 -49.877  1.00  0.00     0.169 HD
HETATM   25  C   UNL     1     -39.469  50.250 -51.869  1.00  0.00     0.030 A 
HETATM   26  C   UNL     1     -39.457  49.547 -53.080  1.00  0.00     0.002 A 
HETATM   27  C   UNL     1     -39.835  50.167 -54.290  1.00  0.00     0.001 A 
HETATM   28  C   UNL     1     -40.232  51.506 -54.312  1.00  0.00     0.016 A 
ENDBRANCH   2  17
TORSDOF 3
ENDMDL
MODEL 3
REMARK VINA RESULT:      -7.9      5.805     10.093
REMARK  3 active torsions:
REMARK  status: ('A' for Active; 'I' for Inactive)
REMARK    1  A    between atoms: C_4  and  C_5 
REMARK    2  A    between atoms: C_9  and  C_10 
REMARK       I    between atoms: C_10  and  N_11 
REMARK    3  A    between atoms: N_11  and  N_12 
ROOT
HETATM    1  C   UNL     1     -43.008  55.895 -55.347  1.00  0.00     0.289 C 
HETATM    2  N   UNL     1     -42.928  56.429 -56.623  1.00  0.00    -0.241 N 
HETATM    3  O   UNL     1     -43.829  56.250 -54.505  1.00  0.00    -0.264 OA
HETATM    4  H   UNL     1     -42.228  56.100 -57.287  1.00  0.00     0.192 HD
ENDROOT
BRANCH   1   5
HETATM    5  C   UNL     1     -42.045  54.865 -55.051  1.00  0.00     0.121 A 
HETATM    6  N   UNL     1     -40.765  54.951 -55.533  1.00  0.00    -0.272 N 
HETATM    7  N   UNL     1     -39.972  53.926 -55.183  1.00  0.00    -0.172 NA
HETATM    8  H   UNL     1     -40.386  55.696 -56.110  1.00  0.00     0.189 HD
HETATM    9  C   UNL     1     -40.771  53.146 -54.444  1.00  0.00     0.113 A 
HETATM   10  C   UNL     1     -42.074  53.686 -54.330  1.00  0.00     0.073 A 
BRANCH   9  11
HETATM   11  C   UNL     1     -40.303  51.868 -53.832  1.00  0.00     0.106 A 
HETATM   12  O   UNL     1     -40.096  51.672 -52.493  1.00  0.00    -0.313 OA
HETATM   13  C   UNL     1     -39.675  50.386 -52.331  1.00  0.00     0.050 A 
HETATM   14  C   UNL     1     -39.388  49.949 -50.951  1.00  0.00     0.076 C 
HETATM   15  C   UNL     1     -39.609  49.749 -53.551  1.00  0.00     0.035 A 
HETATM   16  C   UNL     1     -40.012  50.703 -54.516  1.00  0.00     0.042 A 
ENDBRANCH   9  11
ENDBRANCH   1   5
BRANCH   2  17
HETATM   17  N   UNL     1     -43.797  57.415 -57.006  1.00  0.00    -0.165 NA
HETATM   18  C   UNL     1     -44.465  57.218 -58.096  1.00  0.00     0.157 A 
HETATM   19  C   UNL     1     -44.423  56.012 -59.039  1.00  0.00     0.277 A 
HETATM   20  C   UNL     1     -45.435  58.140 -58.672  1.00  0.00     0.027 A 
HETATM   21  O   UNL     1     -43.721  55.036 -58.878  1.00  0.00    -0.266 OA
HETATM   22  N   UNL     1     -45.320  56.297 -60.045  1.00  0.00    -0.321 N 
HETATM   23  C   UNL     1     -45.915  57.540 -59.835  1.00  0.00     0.048 A 
HETATM   24  H   UNL     1     -45.505  55.676 -60.818  1.00  0.00     0.169 HD
HETATM   25  C   UNL     1     -46.857  58.163 -60.623  1.00  0.00     0.030 A 
HETATM   26  C   UNL     1     -47.312  59.422 -60.208  1.00  0.00     0.002 A 
HETATM   27  C   UNL     1     -46.822  60.023 -59.030  1.00  0.00     0.001 A 
HETATM   28  C   UNL     1     -45.866  59.378 -58.242  1.00  0.00     0.016 A 
ENDBRANCH   2  17
TORSDOF 3
ENDMDL
MODEL 4
REMARK VINA RESULT:      -7.8     18.249     20.271
REMARK  3 active torsions:
REMARK  status: ('A' for Active; 'I' for Inactive)
REMARK    1  A    between atoms: C_4  and  C_5 
REMARK    2  A    between atoms: C_9  and  C_10 
REMARK       I    between atoms: C_10  and  N_11 
REMARK    3  A    between atoms: N_11  and  N_12 
ROOT
HETATM    1  C   UNL     1     -34.663  41.179 -53.199  1.00  0.00     0.289 C 
HETATM    2  N   UNL     1     -34.127  41.294 -54.472  1.00  0.00    -0.241 N 
HETATM    3  O   UNL     1     -35.841  41.398 -52.929  1.00  0.00    -0.264 OA
HETATM    4  H   UNL     1     -33.142  41.102 -54.646  1.00  0.00     0.192 HD
ENDROOT
BRANCH   1   5
HETATM    5  C   UNL     1     -33.732  40.777 -52.175  1.00  0.00     0.121 A 
HETATM    6  N   UNL     1     -32.386  40.753 -52.430  1.00  0.00    -0.272 N 
HETATM    7  N   UNL     1     -31.634  40.360 -51.391  1.00  0.00    -0.172 NA
HETATM    8  H   UNL     1     -31.933  40.998 -53.305  1.00  0.00     0.189 HD
HETATM    9  C   UNL     1     -32.529  40.120 -50.424  1.00  0.00     0.113 A 
HETATM   10  C   UNL     1     -33.853  40.366 -50.862  1.00  0.00     0.073 A 
BRANCH   9  11
HETATM   11  C   UNL     1     -32.136  39.652 -49.064  1.00  0.00     0.106 A 
HETATM   12  O   UNL     1     -31.182  40.242 -48.278  1.00  0.00    -0.313 OA
HETATM   13  C   UNL     1     -31.113  39.529 -47.119  1.00  0.00     0.050 A 
HETATM   14  C   UNL     1     -30.138  39.991 -46.111  1.00  0.00     0.076 C 
HETATM   15  C   UNL     1     -32.011  38.486 -47.146  1.00  0.00     0.035 A 
HETATM   16  C   UNL     1     -32.669  38.565 -48.397  1.00  0.00     0.042 A 
ENDBRANCH   9  11
ENDBRANCH   1   5
BRANCH   2  17
HETATM   17  N   UNL     1     -34.926  41.672 -55.517  1.00  0.00    -0.165 NA
HETATM   18  C   UNL     1     -35.127  40.796 -56.449  1.00  0.00     0.157 A 
HETATM   19  C   UNL     1     -34.588  39.367 -56.550  1.00  0.00     0.277 A 
HETATM   20  C   UNL     1     -35.942  41.000 -57.640  1.00  0.00     0.027 A 
HETATM   21  O   UNL     1     -33.865  38.844 -55.729  1.00  0.00    -0.266 OA
HETATM   22  N   UNL     1     -35.095  38.863 -57.727  1.00  0.00    -0.321 N 
HETATM   23  C   UNL     1     -35.888  39.814 -58.368  1.00  0.00     0.048 A 
HETATM   24  H   UNL     1     -34.906  37.929 -58.061  1.00  0.00     0.169 HD
HETATM   25  C   UNL     1     -36.561  39.678 -59.563  1.00  0.00     0.030 A 
HETATM   26  C   UNL     1     -37.299  40.780 -60.013  1.00  0.00     0.002 A 
HETATM   27  C   UNL     1     -37.349  41.979 -59.270  1.00  0.00     0.001 A 
HETATM   28  C   UNL     1     -36.661  42.100 -58.061  1.00  0.00     0.016 A 
ENDBRANCH   2  17
TORSDOF 3
ENDMDL
MODEL 5
REMARK VINA RESULT:      -7.8     18.387     20.174
REMARK  3 active torsions:
REMARK  status: ('A' for Active; 'I' for Inactive)
REMARK    1  A    between atoms: C_4  and  C_5 
REMARK    2  A    between atoms: C_9  and  C_10 
REMARK       I    between atoms: C_10  and  N_11 
REMARK    3  A    between atoms: N_11  and  N_12 
ROOT
HETATM    1  C   UNL     1     -33.372  40.600 -53.950  1.00  0.00     0.289 C 
HETATM    2  N   UNL     1     -33.737  41.108 -52.714  1.00  0.00    -0.241 N 
HETATM    3  O   UNL     1     -32.422  39.841 -54.126  1.00  0.00    -0.264 OA
HETATM    4  H   UNL     1     -34.535  41.735 -52.619  1.00  0.00     0.192 HD
ENDROOT
BRANCH   1   5
HETATM    5  C   UNL     1     -34.194  41.024 -55.055  1.00  0.00     0.121 A 
HETATM    6  N   UNL     1     -34.657  42.312 -55.123  1.00  0.00    -0.272 N 
HETATM    7  N   UNL     1     -35.409  42.572 -56.203  1.00  0.00    -0.172 NA
HETATM    8  H   UNL     1     -34.482  43.053 -54.450  1.00  0.00     0.189 HD
HETATM    9  C   UNL     1     -35.435  41.406 -56.860  1.00  0.00     0.113 A 
HETATM   10  C   UNL     1     -34.692  40.407 -56.187  1.00  0.00     0.073 A 
BRANCH   9  11
HETATM   11  C   UNL     1     -36.171  41.225 -58.145  1.00  0.00     0.106 A 
HETATM   12  O   UNL     1     -36.167  40.078 -58.893  1.00  0.00    -0.313 OA
HETATM   13  C   UNL     1     -36.950  40.303 -59.986  1.00  0.00     0.050 A 
HETATM   14  C   UNL     1     -37.091  39.188 -60.943  1.00  0.00     0.076 C 
HETATM   15  C   UNL     1     -37.460  41.581 -59.951  1.00  0.00     0.035 A 
HETATM   16  C   UNL     1     -36.958  42.174 -58.768  1.00  0.00     0.042 A 
ENDBRANCH   9  11
ENDBRANCH   1   5
BRANCH   2  17
HETATM   17  N   UNL     1     -33.021  40.768 -51.597  1.00  0.00    -0.165 NA
HETATM   18  C   UNL     1     -33.591  39.967 -50.755  1.00  0.00     0.157 A 
HETATM   19  C   UNL     1     -34.981  39.332 -50.831  1.00  0.00     0.277 A 
HETATM   20  C   UNL     1     -33.000  39.488 -49.512  1.00  0.00     0.027 A 
HETATM   21  O   UNL     1     -35.769  39.505 -51.736  1.00  0.00    -0.266 OA
HETATM   22  N   UNL     1     -35.101  38.568 -49.691  1.00  0.00    -0.321 N 
HETATM   23  C   UNL     1     -33.946  38.655 -48.917  1.00  0.00     0.048 A 
HETATM   24  H   UNL     1     -35.923  38.026 -49.468  1.00  0.00     0.169 HD
HETATM   25  C   UNL     1     -33.693  38.035 -47.713  1.00  0.00     0.030 A 
HETATM   26  C   UNL     1     -32.449  38.276 -47.114  1.00  0.00     0.002 A 
HETATM   27  C   UNL     1     -31.497  39.120 -47.723  1.00  0.00     0.001 A 
HETATM   28  C   UNL     1     -31.769  39.742 -48.943  1.00  0.00     0.016 A 
ENDBRANCH   2  17
TORSDOF 3
ENDMDL
MODEL 6
REMARK VINA RESULT:      -7.7      1.737      2.348
REMARK  3 active torsions:
REMARK  status: ('A' for Active; 'I' for Inactive)
REMARK    1  A    between atoms: C_4  and  C_5 
REMARK    2  A    between atoms: C_9  and  C_10 
REMARK       I    between atoms: C_10  and  N_11 
REMARK    3  A    between atoms: N_11  and  N_12 
ROOT
HETATM    1  C   UNL     1     -43.076  59.549 -51.625  1.00  0.00     0.289 C 
HETATM    2  N   UNL     1     -42.958  58.171 -51.551  1.00  0.00    -0.241 N 
HETATM    3  O   UNL     1     -42.523  60.241 -52.477  1.00  0.00    -0.264 OA
HETATM    4  H   UNL     1     -43.437  57.642 -50.825  1.00  0.00     0.192 HD
ENDROOT
BRANCH   1   5
HETATM    5  C   UNL     1     -43.909  60.149 -50.614  1.00  0.00     0.121 A 
HETATM    6  N   UNL     1     -45.049  59.519 -50.189  1.00  0.00    -0.272 N 
HETATM    7  N   UNL     1     -45.731  60.187 -49.245  1.00  0.00    -0.172 NA
HETATM    8  H   UNL     1     -45.403  58.625 -50.517  1.00  0.00     0.189 HD
HETATM    9  C   UNL     1     -45.003  61.294 -49.052  1.00  0.00     0.113 A 
HETATM   10  C   UNL     1     -43.856  61.320 -49.881  1.00  0.00     0.073 A 
BRANCH   9  11
HETATM   11  C   UNL     1     -45.390  62.349 -48.071  1.00  0.00     0.106 A 
HETATM   12  O   UNL     1     -46.469  62.278 -47.231  1.00  0.00    -0.313 OA
HETATM   13  C   UNL     1     -46.487  63.425 -46.495  1.00  0.00     0.050 A 
HETATM   14  C   UNL     1     -47.578  63.567 -45.511  1.00  0.00     0.076 C 
HETATM   15  C   UNL     1     -45.431  64.235 -46.849  1.00  0.00     0.035 A 
HETATM   16  C   UNL     1     -44.726  63.543 -47.863  1.00  0.00     0.042 A 
ENDBRANCH   9  11
ENDBRANCH   1   5
BRANCH   2  17
HETATM   17  N   UNL     1     -42.188  57.502 -52.464  1.00  0.00    -0.165 NA
HETATM   18  C   UNL     1     -42.253  56.210 -52.453  1.00  0.00     0.157 A 
HETATM   19  C   UNL     1     -43.087  55.302 -51.545  1.00  0.00     0.277 A 
HETATM   20  C   UNL     1     -41.516  55.318 -53.338  1.00  0.00     0.027 A 
HETATM   21  O   UNL     1     -43.833  55.698 -50.673  1.00  0.00    -0.266 OA
HETATM   22  N   UNL     1     -42.796  54.015 -51.939  1.00  0.00    -0.321 N 
HETATM   23  C   UNL     1     -41.878  54.018 -52.988  1.00  0.00     0.048 A 
HETATM   24  H   UNL     1     -43.204  53.196 -51.513  1.00  0.00     0.169 HD
HETATM   25  C   UNL     1     -41.350  52.929 -53.645  1.00  0.00     0.030 A 
HETATM   26  C   UNL     1     -40.435  53.181 -54.676  1.00  0.00     0.002 A 
HETATM   27  C   UNL     1     -40.073  54.499 -55.025  1.00  0.00     0.001 A 
HETATM   28  C   UNL     1     -40.618  55.592 -54.349  1.00  0.00     0.016 A 
ENDBRANCH   2  17
TORSDOF 3
ENDMDL
MODEL 7
REMARK VINA RESULT:      -7.6      2.333      2.933
REMARK  3 active torsions:
REMARK  status: ('A' for Active; 'I' for Inactive)
REMARK    1  A    between atoms: C_4  and  C_5 
REMARK    2  A    between atoms: C_9  and  C_10 
REMARK       I    between atoms: C_10  and  N_11 
REMARK    3  A    between atoms: N_11  and  N_12 
ROOT
HETATM    1  C   UNL     1     -43.033  57.319 -51.296  1.00  0.00     0.289 C 
HETATM    2  N   UNL     1     -43.369  55.982 -51.436  1.00  0.00    -0.241 N 
HETATM    3  O   UNL     1     -41.889  57.722 -51.097  1.00  0.00    -0.264 OA
HETATM    4  H   UNL     1     -44.333  55.698 -51.600  1.00  0.00     0.192 HD
ENDROOT
BRANCH   1   5
HETATM    5  C   UNL     1     -44.134  58.243 -51.399  1.00  0.00     0.121 A 
HETATM    6  N   UNL     1     -45.132  58.241 -50.460  1.00  0.00    -0.272 N 
HETATM    7  N   UNL     1     -46.095  59.151 -50.676  1.00  0.00    -0.172 NA
HETATM    8  H   UNL     1     -45.198  57.633 -49.649  1.00  0.00     0.189 HD
HETATM    9  C   UNL     1     -45.704  59.766 -51.799  1.00  0.00     0.113 A 
HETATM   10  C   UNL     1     -44.486  59.237 -52.291  1.00  0.00     0.073 A 
BRANCH   9  11
HETATM   11  C   UNL     1     -46.487  60.871 -52.424  1.00  0.00     0.106 A 
HETATM   12  O   UNL     1     -47.556  61.498 -51.843  1.00  0.00    -0.313 OA
HETATM   13  C   UNL     1     -47.998  62.444 -52.720  1.00  0.00     0.050 A 
HETATM   14  C   UNL     1     -49.158  63.253 -52.296  1.00  0.00     0.076 C 
HETATM   15  C   UNL     1     -47.227  62.434 -53.860  1.00  0.00     0.035 A 
HETATM   16  C   UNL     1     -46.255  61.422 -53.670  1.00  0.00     0.042 A 
ENDBRANCH   9  11
ENDBRANCH   1   5
BRANCH   2  17
HETATM   17  N   UNL     1     -42.397  55.022 -51.354  1.00  0.00    -0.165 NA
HETATM   18  C   UNL     1     -42.126  54.365 -52.436  1.00  0.00     0.157 A 
HETATM   19  C   UNL     1     -42.752  54.513 -53.825  1.00  0.00     0.277 A 
HETATM   20  C   UNL     1     -41.131  53.309 -52.557  1.00  0.00     0.027 A 
HETATM   21  O   UNL     1     -43.627  55.305 -54.106  1.00  0.00    -0.266 OA
HETATM   22  N   UNL     1     -42.115  53.584 -54.618  1.00  0.00    -0.321 N 
HETATM   23  C   UNL     1     -41.165  52.878 -53.882  1.00  0.00     0.048 A 
HETATM   24  H   UNL     1     -42.323  53.451 -55.597  1.00  0.00     0.169 HD
HETATM   25  C   UNL     1     -40.334  51.873 -54.328  1.00  0.00     0.030 A 
HETATM   26  C   UNL     1     -39.455  51.305 -53.397  1.00  0.00     0.002 A 
HETATM   27  C   UNL     1     -39.425  51.746 -52.057  1.00  0.00     0.001 A 
HETATM   28  C   UNL     1     -40.275  52.765 -51.621  1.00  0.00     0.016 A 
ENDBRANCH   2  17
TORSDOF 3
ENDMDL
MODEL 8
REMARK VINA RESULT:      -7.6      2.298      9.232
REMARK  3 active torsions:
REMARK  status: ('A' for Active; 'I' for Inactive)
REMARK    1  A    between atoms: C_4  and  C_5 
REMARK    2  A    between atoms: C_9  and  C_10 
REMARK       I    between atoms: C_10  and  N_11 
REMARK    3  A    between atoms: N_11  and  N_12 
ROOT
HETATM    1  C   UNL     1     -44.325  57.048 -53.368  1.00  0.00     0.289 C 
HETATM    2  N   UNL     1     -44.050  57.629 -52.141  1.00  0.00    -0.241 N 
HETATM    3  O   UNL     1     -45.184  57.459 -54.144  1.00  0.00    -0.264 OA
HETATM    4  H   UNL     1     -43.326  57.251 -51.532  1.00  0.00     0.192 HD
ENDROOT
BRANCH   1   5
HETATM    5  C   UNL     1     -43.523  55.896 -53.695  1.00  0.00     0.121 A 
HETATM    6  N   UNL     1     -43.555  55.364 -54.957  1.00  0.00    -0.272 N 
HETATM    7  N   UNL     1     -42.762  54.294 -55.126  1.00  0.00    -0.172 NA
HETATM    8  H   UNL     1     -44.107  55.700 -55.741  1.00  0.00     0.189 HD
HETATM    9  C   UNL     1     -42.194  54.128 -53.925  1.00  0.00     0.113 A 
HETATM   10  C   UNL     1     -42.635  55.101 -52.996  1.00  0.00     0.073 A 
BRANCH   9  11
HETATM   11  C   UNL     1     -41.219  53.035 -53.642  1.00  0.00     0.106 A 
HETATM   12  O   UNL     1     -41.039  51.925 -54.422  1.00  0.00    -0.313 OA
HETATM   13  C   UNL     1     -40.069  51.169 -53.836  1.00  0.00     0.050 A 
HETATM   14  C   UNL     1     -39.707  49.909 -54.515  1.00  0.00     0.076 C 
HETATM   15  C   UNL     1     -39.619  51.779 -52.687  1.00  0.00     0.035 A 
HETATM   16  C   UNL     1     -40.359  52.979 -52.562  1.00  0.00     0.042 A 
ENDBRANCH   9  11
ENDBRANCH   1   5
BRANCH   2  17
HETATM   17  N   UNL     1     -44.756  58.729 -51.733  1.00  0.00    -0.165 NA
HETATM   18  C   UNL     1     -44.078  59.706 -51.222  1.00  0.00     0.157 A 
HETATM   19  C   UNL     1     -42.566  59.810 -51.006  1.00  0.00     0.277 A 
HETATM   20  C   UNL     1     -44.639  60.957 -50.730  1.00  0.00     0.027 A 
HETATM   21  O   UNL     1     -41.767  58.946 -51.299  1.00  0.00    -0.266 OA
HETATM   22  N   UNL     1     -42.359  61.046 -50.433  1.00  0.00    -0.321 N 
HETATM   23  C   UNL     1     -43.567  61.721 -50.270  1.00  0.00     0.048 A 
HETATM   24  H   UNL     1     -41.447  61.394 -50.176  1.00  0.00     0.169 HD
HETATM   25  C   UNL     1     -43.763  62.975 -49.734  1.00  0.00     0.030 A 
HETATM   26  C   UNL     1     -45.079  63.449 -49.672  1.00  0.00     0.002 A 
HETATM   27  C   UNL     1     -46.159  62.671 -50.139  1.00  0.00     0.001 A 
HETATM   28  C   UNL     1     -45.944  61.401 -50.679  1.00  0.00     0.016 A 
ENDBRANCH   2  17
TORSDOF 3
ENDMDL
MODEL 9
REMARK VINA RESULT:      -7.5      2.473      3.090
REMARK  3 active torsions:
REMARK  status: ('A' for Active; 'I' for Inactive)
REMARK    1  A    between atoms: C_4  and  C_5 
REMARK    2  A    between atoms: C_9  and  C_10 
REMARK       I    between atoms: C_10  and  N_11 
REMARK    3  A    between atoms: N_11  and  N_12 
ROOT
HETATM    1  C   UNL     1     -42.486  56.472 -51.286  1.00  0.00     0.289 C 
HETATM    2  N   UNL     1     -41.310  56.038 -51.875  1.00  0.00    -0.241 N 
HETATM    3  O   UNL     1     -43.190  55.773 -50.561  1.00  0.00    -0.264 OA
HETATM    4  H   UNL     1     -40.761  56.657 -52.469  1.00  0.00     0.192 HD
ENDROOT
BRANCH   1   5
HETATM    5  C   UNL     1     -42.853  57.835 -51.579  1.00  0.00     0.121 A 
HETATM    6  N   UNL     1     -43.779  58.111 -52.550  1.00  0.00    -0.272 N 
HETATM    7  N   UNL     1     -44.027  59.419 -52.721  1.00  0.00    -0.172 NA
HETATM    8  H   UNL     1     -44.271  57.434 -53.126  1.00  0.00     0.189 HD
HETATM    9  C   UNL     1     -43.229  60.013 -51.824  1.00  0.00     0.113 A 
HETATM   10  C   UNL     1     -42.476  59.069 -51.086  1.00  0.00     0.073 A 
BRANCH   9  11
HETATM   11  C   UNL     1     -43.172  61.494 -51.656  1.00  0.00     0.106 A 
HETATM   12  O   UNL     1     -42.990  62.139 -50.463  1.00  0.00    -0.313 OA
HETATM   13  C   UNL     1     -42.995  63.478 -50.719  1.00  0.00     0.050 A 
HETATM   14  C   UNL     1     -42.812  64.377 -49.563  1.00  0.00     0.076 C 
HETATM   15  C   UNL     1     -43.178  63.704 -52.065  1.00  0.00     0.035 A 
HETATM   16  C   UNL     1     -43.292  62.428 -52.667  1.00  0.00     0.042 A 
ENDBRANCH   9  11
ENDBRANCH   1   5
BRANCH   2  17
HETATM   17  N   UNL     1     -40.872  54.758 -51.661  1.00  0.00    -0.165 NA
HETATM   18  C   UNL     1     -40.750  53.998 -52.701  1.00  0.00     0.157 A 
HETATM   19  C   UNL     1     -41.032  54.333 -54.168  1.00  0.00     0.277 A 
HETATM   20  C   UNL     1     -40.302  52.612 -52.688  1.00  0.00     0.027 A 
HETATM   21  O   UNL     1     -41.426  55.409 -54.566  1.00  0.00    -0.266 OA
HETATM   22  N   UNL     1     -40.745  53.184 -54.872  1.00  0.00    -0.321 N 
HETATM   23  C   UNL     1     -40.317  52.174 -54.011  1.00  0.00     0.048 A 
HETATM   24  H   UNL     1     -40.839  53.106 -55.874  1.00  0.00     0.169 HD
HETATM   25  C   UNL     1     -39.943  50.890 -54.342  1.00  0.00     0.030 A 
HETATM   26  C   UNL     1     -39.548  50.046 -53.297  1.00  0.00     0.002 A 
HETATM   27  C   UNL     1     -39.535  50.495 -51.960  1.00  0.00     0.001 A 
HETATM   28  C   UNL     1     -39.917  51.800 -51.641  1.00  0.00     0.016 A 
ENDBRANCH   2  17
TORSDOF 3
ENDMDL
MODEL 10
REMARK VINA RESULT:      -7.5     18.040     19.761
REMARK  3 active torsions:
REMARK  status: ('A' for Active; 'I' for Inactive)
REMARK    1  A    between atoms: C_4  and  C_5 
REMARK    2  A    between atoms: C_9  and  C_10 
REMARK       I    between atoms: C_10  and  N_11 
REMARK    3  A    between atoms: N_11  and  N_12 
ROOT
HETATM    1  C   UNL     1     -35.790  40.617 -52.722  1.00  0.00     0.289 C 
HETATM    2  N   UNL     1     -34.858  39.626 -52.456  1.00  0.00    -0.241 N 
HETATM    3  O   UNL     1     -36.528  41.110 -51.873  1.00  0.00    -0.264 OA
HETATM    4  H   UNL     1     -34.268  39.249 -53.196  1.00  0.00     0.192 HD
ENDROOT
BRANCH   1   5
HETATM    5  C   UNL     1     -35.847  41.053 -54.094  1.00  0.00     0.121 A 
HETATM    6  N   UNL     1     -35.110  42.128 -54.513  1.00  0.00    -0.272 N 
HETATM    7  N   UNL     1     -35.257  42.427 -55.814  1.00  0.00    -0.172 NA
HETATM    8  H   UNL     1     -34.487  42.693 -53.943  1.00  0.00     0.189 HD
HETATM    9  C   UNL     1     -36.125  41.507 -56.253  1.00  0.00     0.113 A 
HETATM   10  C   UNL     1     -36.524  40.626 -55.221  1.00  0.00     0.073 A 
BRANCH   9  11
HETATM   11  C   UNL     1     -36.589  41.454 -57.670  1.00  0.00     0.106 A 
HETATM   12  O   UNL     1     -36.774  42.546 -58.474  1.00  0.00    -0.313 OA
HETATM   13  C   UNL     1     -37.201  42.091 -59.687  1.00  0.00     0.050 A 
HETATM   14  C   UNL     1     -37.466  43.108 -60.723  1.00  0.00     0.076 C 
HETATM   15  C   UNL     1     -37.292  40.717 -59.674  1.00  0.00     0.035 A 
HETATM   16  C   UNL     1     -36.899  40.308 -58.377  1.00  0.00     0.042 A 
ENDBRANCH   9  11
ENDBRANCH   1   5
BRANCH   2  17
HETATM   17  N   UNL     1     -34.723  39.140 -51.184  1.00  0.00    -0.165 NA
HETATM   18  C   UNL     1     -33.602  39.372 -50.582  1.00  0.00     0.157 A 
HETATM   19  C   UNL     1     -32.377  40.130 -51.101  1.00  0.00     0.277 A 
HETATM   20  C   UNL     1     -33.261  38.942 -49.232  1.00  0.00     0.027 A 
HETATM   21  O   UNL     1     -32.296  40.637 -52.200  1.00  0.00    -0.266 OA
HETATM   22  N   UNL     1     -31.457  40.093 -50.077  1.00  0.00    -0.321 N 
HETATM   23  C   UNL     1     -31.969  39.400 -48.981  1.00  0.00     0.048 A 
HETATM   24  H   UNL     1     -30.543  40.517 -50.134  1.00  0.00     0.169 HD
HETATM   25  C   UNL     1     -31.346  39.155 -47.777  1.00  0.00     0.030 A 
HETATM   26  C   UNL     1     -32.064  38.429 -46.818  1.00  0.00     0.002 A 
HETATM   27  C   UNL     1     -33.372  37.969 -47.078  1.00  0.00     0.001 A 
HETATM   28  C   UNL     1     -33.989  38.225 -48.305  1.00  0.00     0.016 A 
ENDBRANCH   2  17
TORSDOF 3
ENDMDL
