MODEL 1
REMARK VINA RESULT:      -8.0      0.000      0.000
REMARK  6 active torsions:
REMARK  status: ('A' for Active; 'I' for Inactive)
REMARK    1  A    between atoms: C_3  and  C_4 
REMARK       I    between atoms: C_4  and  N_5 
REMARK    2  A    between atoms: N_5  and  C_6 
REMARK    3  A    between atoms: C_6  and  C_7 
REMARK    4  A    between atoms: C_7  and  N_8 
REMARK    5  A    between atoms: C_7  and  C_14 
REMARK    6  A    between atoms: C_21  and  C_22 
ROOT
HETATM    1  C   UNL     1     -42.098  56.581 -54.609  1.00  0.00     0.272 C 
HETATM    2  N   UNL     1     -42.939  56.429 -55.695  1.00  0.00    -0.354 N 
HETATM    3  O   UNL     1     -41.632  57.665 -54.277  1.00  0.00    -0.266 OA
HETATM    4  H   UNL     1     -43.118  55.451 -55.923  1.00  0.00     0.162 HD
ENDROOT
BRANCH   1   5
HETATM    5  C   UNL     1     -41.876  55.318 -53.884  1.00  0.00     0.152 A 
HETATM    6  C   UNL     1     -40.997  54.245 -54.222  1.00  0.00     0.003 A 
HETATM    7  C   UNL     1     -40.135  54.147 -55.430  1.00  0.00     0.053 C 
HETATM    8  C   UNL     1     -41.143  53.324 -53.194  1.00  0.00     0.069 A 
HETATM    9  N   UNL     1     -42.084  53.863 -52.357  1.00  0.00    -0.276 N 
HETATM   10  N   UNL     1     -42.552  55.064 -52.743  1.00  0.00    -0.168 NA
HETATM   11  H   UNL     1     -42.433  53.457 -51.494  1.00  0.00     0.189 HD
BRANCH   8  12
HETATM   12  C   UNL     1     -40.501  52.040 -52.922  1.00  0.00    -0.007 A 
HETATM   13  C   UNL     1     -40.351  51.084 -53.937  1.00  0.00     0.014 A 
HETATM   14  C   UNL     1     -39.751  49.852 -53.667  1.00  0.00     0.001 A 
HETATM   15  C   UNL     1     -39.295  49.562 -52.383  1.00  0.00     0.000 A 
HETATM   16  C   UNL     1     -39.437  50.505 -51.367  1.00  0.00     0.001 A 
HETATM   17  C   UNL     1     -40.039  51.736 -51.635  1.00  0.00     0.014 A 
ENDBRANCH   8  12
ENDBRANCH   1   5
BRANCH   2  18
HETATM   18  C   UNL     1     -43.143  57.472 -56.674  1.00  0.00     0.156 C 
BRANCH  18  19
HETATM   19  C   UNL     1     -43.053  57.014 -58.162  1.00  0.00     0.209 C 
BRANCH  19  20
HETATM   20  N   UNL     1     -44.294  56.239 -58.637  1.00  0.00    -0.065 N 
HETATM   21  H   UNL     1     -44.770  55.912 -57.791  1.00  0.00     0.280 HD
HETATM   22  C   UNL     1     -44.068  54.982 -59.462  1.00  0.00     0.235 C 
HETATM   23  C   UNL     1     -44.949  55.152 -60.687  1.00  0.00     0.029 C 
HETATM   24  C   UNL     1     -46.074  56.050 -60.216  1.00  0.00     0.029 C 
HETATM   25  C   UNL     1     -45.370  57.056 -59.329  1.00  0.00     0.235 C 
ENDBRANCH  19  20
BRANCH  19  26
HETATM   26  C   UNL     1     -42.791  58.213 -59.127  1.00  0.00     0.010 C 
HETATM   27  C   UNL     1     -42.159  59.409 -58.398  1.00  0.00     0.011 C 
HETATM   28  C   UNL     1     -41.880  57.842 -60.306  1.00  0.00     0.011 C 
ENDBRANCH  19  26
ENDBRANCH  18  19
ENDBRANCH   2  18
TORSDOF 6
ENDMDL
MODEL 2
REMARK VINA RESULT:      -7.9      3.902      5.952
REMARK  6 active torsions:
REMARK  status: ('A' for Active; 'I' for Inactive)
REMARK    1  A    between atoms: C_3  and  C_4 
REMARK       I    between atoms: C_4  and  N_5 
REMARK    2  A    between atoms: N_5  and  C_6 
REMARK    3  A    between atoms: C_6  and  C_7 
REMARK    4  A    between atoms: C_7  and  N_8 
REMARK    5  A    between atoms: C_7  and  C_14 
REMARK    6  A    between atoms: C_21  and  C_22 
ROOT
HETATM    1  C   UNL     1     -42.119  56.799 -53.887  1.00  0.00     0.272 C 
HETATM    2  N   UNL     1     -41.268  57.883 -53.790  1.00  0.00    -0.354 N 
HETATM    3  O   UNL     1     -43.339  56.912 -53.904  1.00  0.00    -0.266 OA
HETATM    4  H   UNL     1     -40.296  57.610 -53.641  1.00  0.00     0.162 HD
ENDROOT
BRANCH   1   5
HETATM    5  C   UNL     1     -41.397  55.521 -54.016  1.00  0.00     0.152 A 
HETATM    6  C   UNL     1     -41.415  54.400 -53.132  1.00  0.00     0.003 A 
HETATM    7  C   UNL     1     -42.144  54.297 -51.839  1.00  0.00     0.053 C 
HETATM    8  C   UNL     1     -40.598  53.454 -53.735  1.00  0.00     0.069 A 
HETATM    9  N   UNL     1     -40.135  54.052 -54.877  1.00  0.00    -0.276 N 
HETATM   10  N   UNL     1     -40.592  55.301 -55.078  1.00  0.00    -0.168 NA
HETATM   11  H   UNL     1     -39.512  53.643 -55.567  1.00  0.00     0.189 HD
BRANCH   8  12
HETATM   12  C   UNL     1     -40.233  52.088 -53.366  1.00  0.00    -0.007 A 
HETATM   13  C   UNL     1     -39.833  51.782 -52.057  1.00  0.00     0.014 A 
HETATM   14  C   UNL     1     -39.468  50.477 -51.715  1.00  0.00     0.001 A 
HETATM   15  C   UNL     1     -39.500  49.467 -52.674  1.00  0.00     0.000 A 
HETATM   16  C   UNL     1     -39.897  49.760 -53.976  1.00  0.00     0.001 A 
HETATM   17  C   UNL     1     -40.259  51.064 -54.321  1.00  0.00     0.014 A 
ENDBRANCH   8  12
ENDBRANCH   1   5
BRANCH   2  18
HETATM   18  C   UNL     1     -41.731  59.209 -53.453  1.00  0.00     0.156 C 
BRANCH  18  19
HETATM   19  C   UNL     1     -41.384  59.686 -52.009  1.00  0.00     0.209 C 
BRANCH  19  20
HETATM   20  N   UNL     1     -42.618  59.835 -51.103  1.00  0.00    -0.065 N 
HETATM   21  H   UNL     1     -42.515  59.136 -50.361  1.00  0.00     0.280 HD
HETATM   22  C   UNL     1     -43.980  59.549 -51.714  1.00  0.00     0.235 C 
HETATM   23  C   UNL     1     -44.830  60.757 -51.365  1.00  0.00     0.029 C 
HETATM   24  C   UNL     1     -44.215  61.290 -50.088  1.00  0.00     0.029 C 
HETATM   25  C   UNL     1     -42.726  61.134 -50.325  1.00  0.00     0.235 C 
ENDBRANCH  19  20
BRANCH  19  26
HETATM   26  C   UNL     1     -40.346  58.747 -51.319  1.00  0.00     0.010 C 
HETATM   27  C   UNL     1     -39.311  59.536 -50.503  1.00  0.00     0.011 C 
HETATM   28  C   UNL     1     -41.000  57.718 -50.385  1.00  0.00     0.011 C 
ENDBRANCH  19  26
ENDBRANCH  18  19
ENDBRANCH   2  18
TORSDOF 6
ENDMDL
MODEL 3
REMARK VINA RESULT:      -7.9      1.502      2.470
REMARK  6 active torsions:
REMARK  status: ('A' for Active; 'I' for Inactive)
REMARK    1  A    between atoms: C_3  and  C_4 
REMARK       I    between atoms: C_4  and  N_5 
REMARK    2  A    between atoms: N_5  and  C_6 
REMARK    3  A    between atoms: C_6  and  C_7 
REMARK    4  A    between atoms: C_7  and  N_8 
REMARK    5  A    between atoms: C_7  and  C_14 
REMARK    6  A    between atoms: C_21  and  C_22 
ROOT
HETATM    1  C   UNL     1     -42.818  56.613 -54.419  1.00  0.00     0.272 C 
HETATM    2  N   UNL     1     -43.669  56.524 -55.505  1.00  0.00    -0.354 N 
HETATM    3  O   UNL     1     -42.883  57.521 -53.598  1.00  0.00    -0.266 OA
HETATM    4  H   UNL     1     -43.390  55.799 -56.167  1.00  0.00     0.162 HD
ENDROOT
BRANCH   1   5
HETATM    5  C   UNL     1     -41.877  55.482 -54.342  1.00  0.00     0.152 A 
HETATM    6  C   UNL     1     -41.951  54.323 -53.513  1.00  0.00     0.003 A 
HETATM    7  C   UNL     1     -42.990  54.024 -52.491  1.00  0.00     0.053 C 
HETATM    8  C   UNL     1     -40.843  53.562 -53.857  1.00  0.00     0.069 A 
HETATM    9  N   UNL     1     -40.184  54.296 -54.808  1.00  0.00    -0.276 N 
HETATM   10  N   UNL     1     -40.776  55.462 -55.123  1.00  0.00    -0.168 NA
HETATM   11  H   UNL     1     -39.328  54.037 -55.289  1.00  0.00     0.189 HD
BRANCH   8  12
HETATM   12  C   UNL     1     -40.365  52.256 -53.410  1.00  0.00    -0.007 A 
HETATM   13  C   UNL     1     -40.357  51.159 -54.283  1.00  0.00     0.014 A 
HETATM   14  C   UNL     1     -39.914  49.908 -53.845  1.00  0.00     0.001 A 
HETATM   15  C   UNL     1     -39.475  49.741 -52.534  1.00  0.00     0.000 A 
HETATM   16  C   UNL     1     -39.477  50.825 -51.658  1.00  0.00     0.001 A 
HETATM   17  C   UNL     1     -39.922  52.075 -52.094  1.00  0.00     0.014 A 
ENDBRANCH   8  12
ENDBRANCH   1   5
BRANCH   2  18
HETATM   18  C   UNL     1     -44.535  57.608 -55.907  1.00  0.00     0.156 C 
BRANCH  18  19
HETATM   19  C   UNL     1     -44.230  58.216 -57.310  1.00  0.00     0.209 C 
BRANCH  19  20
HETATM   20  N   UNL     1     -43.095  57.492 -58.054  1.00  0.00    -0.065 N 
HETATM   21  H   UNL     1     -42.599  56.937 -57.351  1.00  0.00     0.280 HD
HETATM   22  C   UNL     1     -42.017  58.348 -58.700  1.00  0.00     0.235 C 
HETATM   23  C   UNL     1     -41.915  57.842 -60.128  1.00  0.00     0.029 C 
HETATM   24  C   UNL     1     -42.362  56.398 -60.045  1.00  0.00     0.029 C 
HETATM   25  C   UNL     1     -43.519  56.445 -59.068  1.00  0.00     0.235 C 
ENDBRANCH  19  20
BRANCH  19  26
HETATM   26  C   UNL     1     -45.501  58.255 -58.217  1.00  0.00     0.010 C 
HETATM   27  C   UNL     1     -46.795  58.155 -57.396  1.00  0.00     0.011 C 
HETATM   28  C   UNL     1     -45.582  59.525 -59.077  1.00  0.00     0.011 C 
ENDBRANCH  19  26
ENDBRANCH  18  19
ENDBRANCH   2  18
TORSDOF 6
ENDMDL
MODEL 4
REMARK VINA RESULT:      -7.8      1.924      3.517
REMARK  6 active torsions:
REMARK  status: ('A' for Active; 'I' for Inactive)
REMARK    1  A    between atoms: C_3  and  C_4 
REMARK       I    between atoms: C_4  and  N_5 
REMARK    2  A    between atoms: N_5  and  C_6 
REMARK    3  A    between atoms: C_6  and  C_7 
REMARK    4  A    between atoms: C_7  and  N_8 
REMARK    5  A    between atoms: C_7  and  C_14 
REMARK    6  A    between atoms: C_21  and  C_22 
ROOT
HETATM    1  C   UNL     1     -42.819  56.139 -56.349  1.00  0.00     0.272 C 
HETATM    2  N   UNL     1     -43.600  55.354 -57.176  1.00  0.00    -0.354 N 
HETATM    3  O   UNL     1     -42.254  57.155 -56.739  1.00  0.00    -0.266 OA
HETATM    4  H   UNL     1     -43.874  54.472 -56.740  1.00  0.00     0.162 HD
ENDROOT
BRANCH   1   5
HETATM    5  C   UNL     1     -42.788  55.645 -54.961  1.00  0.00     0.152 A 
HETATM    6  C   UNL     1     -41.665  55.189 -54.208  1.00  0.00     0.003 A 
HETATM    7  C   UNL     1     -40.262  55.064 -54.688  1.00  0.00     0.053 C 
HETATM    8  C   UNL     1     -42.175  54.876 -52.956  1.00  0.00     0.069 A 
HETATM    9  N   UNL     1     -43.519  55.123 -53.042  1.00  0.00    -0.276 N 
HETATM   10  N   UNL     1     -43.927  55.584 -54.239  1.00  0.00    -0.168 NA
HETATM   11  H   UNL     1     -44.207  55.007 -52.303  1.00  0.00     0.189 HD
BRANCH   8  12
HETATM   12  C   UNL     1     -41.547  54.399 -51.726  1.00  0.00    -0.007 A 
HETATM   13  C   UNL     1     -41.606  55.159 -50.550  1.00  0.00     0.014 A 
HETATM   14  C   UNL     1     -40.989  54.706 -49.381  1.00  0.00     0.001 A 
HETATM   15  C   UNL     1     -40.309  53.490 -49.375  1.00  0.00     0.000 A 
HETATM   16  C   UNL     1     -40.246  52.725 -50.538  1.00  0.00     0.001 A 
HETATM   17  C   UNL     1     -40.860  53.178 -51.707  1.00  0.00     0.014 A 
ENDBRANCH   8  12
ENDBRANCH   1   5
BRANCH   2  18
HETATM   18  C   UNL     1     -43.621  55.514 -58.611  1.00  0.00     0.156 C 
BRANCH  18  19
HETATM   19  C   UNL     1     -44.479  56.706 -59.134  1.00  0.00     0.209 C 
BRANCH  19  20
HETATM   20  N   UNL     1     -43.661  57.986 -59.377  1.00  0.00    -0.065 N 
HETATM   21  H   UNL     1     -43.282  58.262 -58.466  1.00  0.00     0.280 HD
HETATM   22  C   UNL     1     -44.406  59.216 -59.871  1.00  0.00     0.235 C 
HETATM   23  C   UNL     1     -43.621  59.692 -61.081  1.00  0.00     0.029 C 
HETATM   24  C   UNL     1     -42.209  59.211 -60.822  1.00  0.00     0.029 C 
HETATM   25  C   UNL     1     -42.412  57.833 -60.226  1.00  0.00     0.235 C 
ENDBRANCH  19  20
BRANCH  19  26
HETATM   26  C   UNL     1     -45.260  56.337 -60.435  1.00  0.00     0.010 C 
HETATM   27  C   UNL     1     -44.851  54.959 -60.977  1.00  0.00     0.011 C 
HETATM   28  C   UNL     1     -46.783  56.336 -60.238  1.00  0.00     0.011 C 
ENDBRANCH  19  26
ENDBRANCH  18  19
ENDBRANCH   2  18
TORSDOF 6
ENDMDL
MODEL 5
REMARK VINA RESULT:      -7.6      1.471      2.394
REMARK  6 active torsions:
REMARK  status: ('A' for Active; 'I' for Inactive)
REMARK    1  A    between atoms: C_3  and  C_4 
REMARK       I    between atoms: C_4  and  N_5 
REMARK    2  A    between atoms: N_5  and  C_6 
REMARK    3  A    between atoms: C_6  and  C_7 
REMARK    4  A    between atoms: C_7  and  N_8 
REMARK    5  A    between atoms: C_7  and  C_14 
REMARK    6  A    between atoms: C_21  and  C_22 
ROOT
HETATM    1  C   UNL     1     -41.229  57.182 -53.552  1.00  0.00     0.272 C 
HETATM    2  N   UNL     1     -42.095  57.339 -54.618  1.00  0.00    -0.354 N 
HETATM    3  O   UNL     1     -40.640  58.122 -53.032  1.00  0.00    -0.266 OA
HETATM    4  H   UNL     1     -42.386  56.449 -55.025  1.00  0.00     0.162 HD
ENDROOT
BRANCH   1   5
HETATM    5  C   UNL     1     -41.140  55.784 -53.095  1.00  0.00     0.152 A 
HETATM    6  C   UNL     1     -40.592  54.660 -53.782  1.00  0.00     0.003 A 
HETATM    7  C   UNL     1     -40.024  54.647 -55.157  1.00  0.00     0.053 C 
HETATM    8  C   UNL     1     -40.725  53.598 -52.899  1.00  0.00     0.069 A 
HETATM    9  N   UNL     1     -41.347  54.122 -51.797  1.00  0.00    -0.276 N 
HETATM   10  N   UNL     1     -41.618  55.437 -51.880  1.00  0.00    -0.168 NA
HETATM   11  H   UNL     1     -41.598  53.624 -50.947  1.00  0.00     0.189 HD
BRANCH   8  12
HETATM   12  C   UNL     1     -40.328  52.194 -52.977  1.00  0.00    -0.007 A 
HETATM   13  C   UNL     1     -39.792  51.538 -51.860  1.00  0.00     0.014 A 
HETATM   14  C   UNL     1     -39.399  50.200 -51.945  1.00  0.00     0.001 A 
HETATM   15  C   UNL     1     -39.537  49.505 -53.144  1.00  0.00     0.000 A 
HETATM   16  C   UNL     1     -40.070  50.146 -54.260  1.00  0.00     0.001 A 
HETATM   17  C   UNL     1     -40.461  51.484 -54.177  1.00  0.00     0.014 A 
ENDBRANCH   8  12
ENDBRANCH   1   5
BRANCH   2  18
HETATM   18  C   UNL     1     -42.193  58.570 -55.367  1.00  0.00     0.156 C 
BRANCH  18  19
HETATM   19  C   UNL     1     -42.977  58.469 -56.711  1.00  0.00     0.209 C 
BRANCH  19  20
HETATM   20  N   UNL     1     -42.377  57.445 -57.691  1.00  0.00    -0.065 N 
HETATM   21  H   UNL     1     -41.529  57.084 -57.245  1.00  0.00     0.280 HD
HETATM   22  C   UNL     1     -41.913  57.954 -59.046  1.00  0.00     0.235 C 
HETATM   23  C   UNL     1     -42.566  57.032 -60.059  1.00  0.00     0.029 C 
HETATM   24  C   UNL     1     -42.762  55.732 -59.307  1.00  0.00     0.029 C 
HETATM   25  C   UNL     1     -43.192  56.186 -57.927  1.00  0.00     0.235 C 
ENDBRANCH  19  20
BRANCH  19  26
HETATM   26  C   UNL     1     -44.486  58.142 -56.483  1.00  0.00     0.010 C 
HETATM   27  C   UNL     1     -45.000  58.706 -55.149  1.00  0.00     0.011 C 
HETATM   28  C   UNL     1     -45.390  58.679 -57.603  1.00  0.00     0.011 C 
ENDBRANCH  19  26
ENDBRANCH  18  19
ENDBRANCH   2  18
TORSDOF 6
ENDMDL
MODEL 6
REMARK VINA RESULT:      -7.5      1.874      2.700
REMARK  6 active torsions:
REMARK  status: ('A' for Active; 'I' for Inactive)
REMARK    1  A    between atoms: C_3  and  C_4 
REMARK       I    between atoms: C_4  and  N_5 
REMARK    2  A    between atoms: N_5  and  C_6 
REMARK    3  A    between atoms: C_6  and  C_7 
REMARK    4  A    between atoms: C_7  and  N_8 
REMARK    5  A    between atoms: C_7  and  C_14 
REMARK    6  A    between atoms: C_21  and  C_22 
ROOT
HETATM    1  C   UNL     1     -42.629  56.742 -54.038  1.00  0.00     0.272 C 
HETATM    2  N   UNL     1     -43.896  56.475 -54.522  1.00  0.00    -0.354 N 
HETATM    3  O   UNL     1     -42.305  57.839 -53.597  1.00  0.00    -0.266 OA
HETATM    4  H   UNL     1     -43.958  55.567 -54.985  1.00  0.00     0.162 HD
ENDROOT
BRANCH   1   5
HETATM    5  C   UNL     1     -41.749  55.561 -54.069  1.00  0.00     0.152 A 
HETATM    6  C   UNL     1     -41.832  54.374 -53.282  1.00  0.00     0.003 A 
HETATM    7  C   UNL     1     -42.817  54.087 -52.204  1.00  0.00     0.053 C 
HETATM    8  C   UNL     1     -40.793  53.571 -53.731  1.00  0.00     0.069 A 
HETATM    9  N   UNL     1     -40.159  54.309 -54.695  1.00  0.00    -0.276 N 
HETATM   10  N   UNL     1     -40.704  55.517 -54.924  1.00  0.00    -0.168 NA
HETATM   11  H   UNL     1     -39.351  54.025 -55.243  1.00  0.00     0.189 HD
BRANCH   8  12
HETATM   12  C   UNL     1     -40.360  52.224 -53.368  1.00  0.00    -0.007 A 
HETATM   13  C   UNL     1     -39.925  51.937 -52.066  1.00  0.00     0.014 A 
HETATM   14  C   UNL     1     -39.495  50.651 -51.729  1.00  0.00     0.001 A 
HETATM   15  C   UNL     1     -39.497  49.640 -52.687  1.00  0.00     0.000 A 
HETATM   16  C   UNL     1     -39.929  49.913 -53.984  1.00  0.00     0.001 A 
HETATM   17  C   UNL     1     -40.355  51.198 -54.322  1.00  0.00     0.014 A 
ENDBRANCH   8  12
ENDBRANCH   1   5
BRANCH   2  18
HETATM   18  C   UNL     1     -44.866  57.513 -54.782  1.00  0.00     0.156 C 
BRANCH  18  19
HETATM   19  C   UNL     1     -44.679  58.274 -56.131  1.00  0.00     0.209 C 
BRANCH  19  20
HETATM   20  N   UNL     1     -45.400  57.604 -57.313  1.00  0.00    -0.065 N 
HETATM   21  H   UNL     1     -45.623  56.651 -57.011  1.00  0.00     0.280 HD
HETATM   22  C   UNL     1     -44.621  57.426 -58.606  1.00  0.00     0.235 C 
HETATM   23  C   UNL     1     -45.518  57.998 -59.689  1.00  0.00     0.029 C 
HETATM   24  C   UNL     1     -46.919  57.828 -59.141  1.00  0.00     0.029 C 
HETATM   25  C   UNL     1     -46.764  58.167 -57.672  1.00  0.00     0.235 C 
ENDBRANCH  19  20
BRANCH  19  26
HETATM   26  C   UNL     1     -45.131  59.765 -56.027  1.00  0.00     0.010 C 
HETATM   27  C   UNL     1     -45.324  60.205 -54.568  1.00  0.00     0.011 C 
HETATM   28  C   UNL     1     -44.142  60.736 -56.688  1.00  0.00     0.011 C 
ENDBRANCH  19  26
ENDBRANCH  18  19
ENDBRANCH   2  18
TORSDOF 6
ENDMDL
MODEL 7
REMARK VINA RESULT:      -7.4      1.485      3.027
REMARK  6 active torsions:
REMARK  status: ('A' for Active; 'I' for Inactive)
REMARK    1  A    between atoms: C_3  and  C_4 
REMARK       I    between atoms: C_4  and  N_5 
REMARK    2  A    between atoms: N_5  and  C_6 
REMARK    3  A    between atoms: C_6  and  C_7 
REMARK    4  A    between atoms: C_7  and  N_8 
REMARK    5  A    between atoms: C_7  and  C_14 
REMARK    6  A    between atoms: C_21  and  C_22 
ROOT
HETATM    1  C   UNL     1     -42.777  56.398 -54.936  1.00  0.00     0.272 C 
HETATM    2  N   UNL     1     -43.395  56.376 -56.172  1.00  0.00    -0.354 N 
HETATM    3  O   UNL     1     -43.017  57.251 -54.090  1.00  0.00    -0.266 OA
HETATM    4  H   UNL     1     -42.980  55.695 -56.809  1.00  0.00     0.162 HD
ENDROOT
BRANCH   1   5
HETATM    5  C   UNL     1     -41.852  55.267 -54.744  1.00  0.00     0.152 A 
HETATM    6  C   UNL     1     -41.923  54.218 -53.780  1.00  0.00     0.003 A 
HETATM    7  C   UNL     1     -42.942  54.063 -52.706  1.00  0.00     0.053 C 
HETATM    8  C   UNL     1     -40.836  53.401 -54.055  1.00  0.00     0.069 A 
HETATM    9  N   UNL     1     -40.189  54.003 -55.102  1.00  0.00    -0.276 N 
HETATM   10  N   UNL     1     -40.771  55.133 -55.542  1.00  0.00    -0.168 NA
HETATM   11  H   UNL     1     -39.349  53.672 -55.568  1.00  0.00     0.189 HD
BRANCH   8  12
HETATM   12  C   UNL     1     -40.368  52.150 -53.465  1.00  0.00    -0.007 A 
HETATM   13  C   UNL     1     -39.967  52.097 -52.122  1.00  0.00     0.014 A 
HETATM   14  C   UNL     1     -39.503  50.901 -51.567  1.00  0.00     0.001 A 
HETATM   15  C   UNL     1     -39.437  49.748 -52.346  1.00  0.00     0.000 A 
HETATM   16  C   UNL     1     -39.835  49.788 -53.680  1.00  0.00     0.001 A 
HETATM   17  C   UNL     1     -40.296  50.983 -54.237  1.00  0.00     0.014 A 
ENDBRANCH   8  12
ENDBRANCH   1   5
BRANCH   2  18
HETATM   18  C   UNL     1     -44.182  57.480 -56.670  1.00  0.00     0.156 C 
BRANCH  18  19
HETATM   19  C   UNL     1     -44.110  57.706 -58.211  1.00  0.00     0.209 C 
BRANCH  19  20
HETATM   20  N   UNL     1     -42.874  58.510 -58.652  1.00  0.00    -0.065 N 
HETATM   21  H   UNL     1     -42.252  57.845 -59.122  1.00  0.00     0.280 HD
HETATM   22  C   UNL     1     -42.016  59.137 -57.565  1.00  0.00     0.235 C 
HETATM   23  C   UNL     1     -41.857  60.589 -57.977  1.00  0.00     0.029 C 
HETATM   24  C   UNL     1     -41.995  60.566 -59.485  1.00  0.00     0.029 C 
HETATM   25  C   UNL     1     -43.106  59.563 -59.720  1.00  0.00     0.235 C 
ENDBRANCH  19  20
BRANCH  19  26
HETATM   26  C   UNL     1     -44.159  56.360 -59.000  1.00  0.00     0.010 C 
HETATM   27  C   UNL     1     -45.205  56.393 -60.125  1.00  0.00     0.011 C 
HETATM   28  C   UNL     1     -42.807  55.982 -59.622  1.00  0.00     0.011 C 
ENDBRANCH  19  26
ENDBRANCH  18  19
ENDBRANCH   2  18
TORSDOF 6
ENDMDL
MODEL 8
REMARK VINA RESULT:      -7.3      1.434      2.169
REMARK  6 active torsions:
REMARK  status: ('A' for Active; 'I' for Inactive)
REMARK    1  A    between atoms: C_3  and  C_4 
REMARK       I    between atoms: C_4  and  N_5 
REMARK    2  A    between atoms: N_5  and  C_6 
REMARK    3  A    between atoms: C_6  and  C_7 
REMARK    4  A    between atoms: C_7  and  N_8 
REMARK    5  A    between atoms: C_7  and  C_14 
REMARK    6  A    between atoms: C_21  and  C_22 
ROOT
HETATM    1  C   UNL     1     -43.385  57.148 -55.646  1.00  0.00     0.272 C 
HETATM    2  N   UNL     1     -42.970  57.282 -56.957  1.00  0.00    -0.354 N 
HETATM    3  O   UNL     1     -44.443  57.610 -55.235  1.00  0.00    -0.266 OA
HETATM    4  H   UNL     1     -42.007  56.973 -57.100  1.00  0.00     0.162 HD
ENDROOT
BRANCH   1   5
HETATM    5  C   UNL     1     -42.447  56.355 -54.832  1.00  0.00     0.152 A 
HETATM    6  C   UNL     1     -42.373  54.937 -54.693  1.00  0.00     0.003 A 
HETATM    7  C   UNL     1     -43.278  53.933 -55.315  1.00  0.00     0.053 C 
HETATM    8  C   UNL     1     -41.297  54.714 -53.847  1.00  0.00     0.069 A 
HETATM    9  N   UNL     1     -40.832  55.960 -53.518  1.00  0.00    -0.276 N 
HETATM   10  N   UNL     1     -41.503  56.975 -54.090  1.00  0.00    -0.168 NA
HETATM   11  H   UNL     1     -40.042  56.174 -52.916  1.00  0.00     0.189 HD
BRANCH   8  12
HETATM   12  C   UNL     1     -40.674  53.491 -53.344  1.00  0.00    -0.007 A 
HETATM   13  C   UNL     1     -40.526  53.278 -51.966  1.00  0.00     0.014 A 
HETATM   14  C   UNL     1     -39.914  52.114 -51.491  1.00  0.00     0.001 A 
HETATM   15  C   UNL     1     -39.448  51.154 -52.386  1.00  0.00     0.000 A 
HETATM   16  C   UNL     1     -39.592  51.355 -53.756  1.00  0.00     0.001 A 
HETATM   17  C   UNL     1     -40.200  52.518 -54.233  1.00  0.00     0.014 A 
ENDBRANCH   8  12
ENDBRANCH   1   5
BRANCH   2  18
HETATM   18  C   UNL     1     -43.611  58.179 -57.890  1.00  0.00     0.156 C 
BRANCH  18  19
HETATM   19  C   UNL     1     -43.101  58.086 -59.360  1.00  0.00     0.209 C 
BRANCH  19  20
HETATM   20  N   UNL     1     -44.053  57.312 -60.288  1.00  0.00    -0.065 N 
HETATM   21  H   UNL     1     -43.765  57.537 -61.246  1.00  0.00     0.280 HD
HETATM   22  C   UNL     1     -45.530  57.666 -60.237  1.00  0.00     0.235 C 
HETATM   23  C   UNL     1     -46.247  56.340 -60.060  1.00  0.00     0.029 C 
HETATM   24  C   UNL     1     -45.314  55.325 -60.685  1.00  0.00     0.029 C 
HETATM   25  C   UNL     1     -43.941  55.799 -60.252  1.00  0.00     0.235 C 
ENDBRANCH  19  20
BRANCH  19  26
HETATM   26  C   UNL     1     -42.817  59.496 -59.969  1.00  0.00     0.010 C 
HETATM   27  C   UNL     1     -42.190  60.450 -58.941  1.00  0.00     0.011 C 
HETATM   28  C   UNL     1     -41.891  59.442 -61.193  1.00  0.00     0.011 C 
ENDBRANCH  19  26
ENDBRANCH  18  19
ENDBRANCH   2  18
TORSDOF 6
ENDMDL
MODEL 9
REMARK VINA RESULT:      -7.1      3.573      5.337
REMARK  6 active torsions:
REMARK  status: ('A' for Active; 'I' for Inactive)
REMARK    1  A    between atoms: C_3  and  C_4 
REMARK       I    between atoms: C_4  and  N_5 
REMARK    2  A    between atoms: N_5  and  C_6 
REMARK    3  A    between atoms: C_6  and  C_7 
REMARK    4  A    between atoms: C_7  and  N_8 
REMARK    5  A    between atoms: C_7  and  C_14 
REMARK    6  A    between atoms: C_21  and  C_22 
ROOT
HETATM    1  C   UNL     1     -42.824  56.590 -54.275  1.00  0.00     0.272 C 
HETATM    2  N   UNL     1     -42.267  57.747 -53.762  1.00  0.00    -0.354 N 
HETATM    3  O   UNL     1     -43.958  56.548 -54.736  1.00  0.00    -0.266 OA
HETATM    4  H   UNL     1     -41.380  57.581 -53.286  1.00  0.00     0.162 HD
ENDROOT
BRANCH   1   5
HETATM    5  C   UNL     1     -41.890  55.451 -54.246  1.00  0.00     0.152 A 
HETATM    6  C   UNL     1     -41.931  54.292 -53.414  1.00  0.00     0.003 A 
HETATM    7  C   UNL     1     -42.919  54.001 -52.341  1.00  0.00     0.053 C 
HETATM    8  C   UNL     1     -40.849  53.522 -53.816  1.00  0.00     0.069 A 
HETATM    9  N   UNL     1     -40.233  54.251 -54.799  1.00  0.00    -0.276 N 
HETATM   10  N   UNL     1     -40.830  55.423 -55.083  1.00  0.00    -0.168 NA
HETATM   11  H   UNL     1     -39.405  53.985 -55.323  1.00  0.00     0.189 HD
BRANCH   8  12
HETATM   12  C   UNL     1     -40.360  52.212 -53.394  1.00  0.00    -0.007 A 
HETATM   13  C   UNL     1     -39.918  52.000 -52.080  1.00  0.00     0.014 A 
HETATM   14  C   UNL     1     -39.436  50.749 -51.687  1.00  0.00     0.001 A 
HETATM   15  C   UNL     1     -39.391  49.699 -52.600  1.00  0.00     0.000 A 
HETATM   16  C   UNL     1     -39.829  49.896 -53.908  1.00  0.00     0.001 A 
HETATM   17  C   UNL     1     -40.309  51.147 -54.303  1.00  0.00     0.014 A 
ENDBRANCH   8  12
ENDBRANCH   1   5
BRANCH   2  18
HETATM   18  C   UNL     1     -43.046  58.934 -53.495  1.00  0.00     0.156 C 
BRANCH  18  19
HETATM   19  C   UNL     1     -42.229  60.167 -53.001  1.00  0.00     0.209 C 
BRANCH  19  20
HETATM   20  N   UNL     1     -42.425  61.418 -53.876  1.00  0.00    -0.065 N 
HETATM   21  H   UNL     1     -41.487  61.720 -54.158  1.00  0.00     0.280 HD
HETATM   22  C   UNL     1     -43.044  62.644 -53.225  1.00  0.00     0.235 C 
HETATM   23  C   UNL     1     -44.174  63.054 -54.152  1.00  0.00     0.029 C 
HETATM   24  C   UNL     1     -43.740  62.552 -55.513  1.00  0.00     0.029 C 
HETATM   25  C   UNL     1     -43.121  61.203 -55.207  1.00  0.00     0.235 C 
ENDBRANCH  19  20
BRANCH  19  26
HETATM   26  C   UNL     1     -42.550  60.521 -51.515  1.00  0.00     0.010 C 
HETATM   27  C   UNL     1     -43.893  59.930 -51.061  1.00  0.00     0.011 C 
HETATM   28  C   UNL     1     -41.466  60.039 -50.539  1.00  0.00     0.011 C 
ENDBRANCH  19  26
ENDBRANCH  18  19
ENDBRANCH   2  18
TORSDOF 6
ENDMDL
MODEL 10
REMARK VINA RESULT:      -7.1     14.380     17.798
REMARK  6 active torsions:
REMARK  status: ('A' for Active; 'I' for Inactive)
REMARK    1  A    between atoms: C_3  and  C_4 
REMARK       I    between atoms: C_4  and  N_5 
REMARK    2  A    between atoms: N_5  and  C_6 
REMARK    3  A    between atoms: C_6  and  C_7 
REMARK    4  A    between atoms: C_7  and  N_8 
REMARK    5  A    between atoms: C_7  and  C_14 
REMARK    6  A    between atoms: C_21  and  C_22 
ROOT
HETATM    1  C   UNL     1     -35.625  41.793 -52.708  1.00  0.00     0.272 C 
HETATM    2  N   UNL     1     -35.311  40.599 -52.087  1.00  0.00    -0.354 N 
HETATM    3  O   UNL     1     -35.232  42.879 -52.297  1.00  0.00    -0.266 OA
HETATM    4  H   UNL     1     -35.835  39.808 -52.464  1.00  0.00     0.162 HD
ENDROOT
BRANCH   1   5
HETATM    5  C   UNL     1     -36.432  41.604 -53.927  1.00  0.00     0.152 A 
HETATM    6  C   UNL     1     -35.992  41.575 -55.284  1.00  0.00     0.003 A 
HETATM    7  C   UNL     1     -34.603  41.783 -55.775  1.00  0.00     0.053 C 
HETATM    8  C   UNL     1     -37.138  41.332 -56.028  1.00  0.00     0.069 A 
HETATM    9  N   UNL     1     -38.155  41.265 -55.113  1.00  0.00    -0.276 N 
HETATM   10  N   UNL     1     -37.767  41.429 -53.835  1.00  0.00    -0.168 NA
HETATM   11  H   UNL     1     -39.137  41.093 -55.307  1.00  0.00     0.189 HD
BRANCH   8  12
HETATM   12  C   UNL     1     -37.364  41.149 -57.460  1.00  0.00    -0.007 A 
HETATM   13  C   UNL     1     -37.885  39.944 -57.955  1.00  0.00     0.014 A 
HETATM   14  C   UNL     1     -38.083  39.769 -59.327  1.00  0.00     0.001 A 
HETATM   15  C   UNL     1     -37.765  40.792 -60.216  1.00  0.00     0.000 A 
HETATM   16  C   UNL     1     -37.249  41.994 -59.736  1.00  0.00     0.001 A 
HETATM   17  C   UNL     1     -37.048  42.170 -58.365  1.00  0.00     0.014 A 
ENDBRANCH   8  12
ENDBRANCH   1   5
BRANCH   2  18
HETATM   18  C   UNL     1     -34.709  40.538 -50.775  1.00  0.00     0.156 C 
BRANCH  18  19
HETATM   19  C   UNL     1     -33.798  39.299 -50.520  1.00  0.00     0.209 C 
BRANCH  19  20
HETATM   20  N   UNL     1     -32.567  39.247 -51.441  1.00  0.00    -0.065 N 
HETATM   21  H   UNL     1     -31.767  39.030 -50.839  1.00  0.00     0.280 HD
HETATM   22  C   UNL     1     -32.171  40.526 -52.161  1.00  0.00     0.235 C 
HETATM   23  C   UNL     1     -32.023  40.128 -53.618  1.00  0.00     0.029 C 
HETATM   24  C   UNL     1     -31.660  38.658 -53.569  1.00  0.00     0.029 C 
HETATM   25  C   UNL     1     -32.536  38.119 -52.456  1.00  0.00     0.235 C 
ENDBRANCH  19  20
BRANCH  19  26
HETATM   26  C   UNL     1     -33.334  39.214 -49.031  1.00  0.00     0.010 C 
HETATM   27  C   UNL     1     -33.508  37.800 -48.456  1.00  0.00     0.011 C 
HETATM   28  C   UNL     1     -31.867  39.625 -48.839  1.00  0.00     0.011 C 
ENDBRANCH  19  26
ENDBRANCH  18  19
ENDBRANCH   2  18
TORSDOF 6
ENDMDL
