MODEL 1
REMARK VINA RESULT:      -9.3      0.000      0.000
REMARK  7 active torsions:
REMARK  status: ('A' for Active; 'I' for Inactive)
REMARK    1  A    between atoms: N_1  and  C_2 
REMARK    2  A    between atoms: C_2  and  C_3 
REMARK    3  A    between atoms: C_6  and  C_24 
REMARK    4  A    between atoms: C_8  and  C_9 
REMARK    5  A    between atoms: C_13  and  C_15 
REMARK       I    between atoms: C_15  and  N_17 
REMARK    6  A    between atoms: N_17  and  C_18 
REMARK       I    between atoms: C_24  and  N_26 
REMARK    7  A    between atoms: N_26  and  C_27 
ROOT
HETATM    1  C   UNL     1     -41.336  58.257 -51.357  1.00  0.00    -0.020 A 
HETATM    2  C   UNL     1     -40.964  57.397 -50.307  1.00  0.00     0.011 A 
HETATM    3  C   UNL     1     -40.954  56.014 -50.480  1.00  0.00     0.017 A 
HETATM    4  C   UNL     1     -41.305  55.454 -51.712  1.00  0.00     0.033 A 
HETATM    5  C   UNL     1     -41.666  56.299 -52.770  1.00  0.00     0.030 A 
HETATM    6  C   UNL     1     -41.674  57.702 -52.619  1.00  0.00    -0.017 A 
ENDROOT
BRANCH   6   7
HETATM    7  C   UNL     1     -42.042  58.543 -53.774  1.00  0.00    -0.024 A 
HETATM    8  C   UNL     1     -42.021  59.944 -53.696  1.00  0.00     0.012 A 
HETATM    9  C   UNL     1     -42.326  60.728 -54.811  1.00  0.00     0.002 A 
HETATM   10  C   UNL     1     -42.622  60.121 -56.031  1.00  0.00     0.017 A 
HETATM   11  C   UNL     1     -42.633  58.727 -56.134  1.00  0.00     0.033 A 
HETATM   12  C   UNL     1     -42.400  57.950 -54.994  1.00  0.00     0.029 A 
BRANCH  11  13
HETATM   13  C   UNL     1     -42.849  58.105 -57.473  1.00  0.00     0.256 C 
HETATM   14  O   UNL     1     -41.958  58.206 -58.308  1.00  0.00    -0.267 OA
HETATM   15  N   UNL     1     -44.045  57.419 -57.608  1.00  0.00    -0.323 N 
HETATM   16  H   UNL     1     -44.658  57.388 -56.800  1.00  0.00     0.169 HD
BRANCH  15  17
HETATM   17  C   UNL     1     -44.491  56.680 -58.724  1.00  0.00     0.035 A 
HETATM   18  C   UNL     1     -45.558  57.060 -59.541  1.00  0.00     0.029 A 
HETATM   19  C   UNL     1     -45.921  56.277 -60.642  1.00  0.00     0.002 A 
HETATM   20  C   UNL     1     -45.225  55.106 -60.933  1.00  0.00     0.000 A 
HETATM   21  C   UNL     1     -44.164  54.715 -60.122  1.00  0.00     0.002 A 
HETATM   22  C   UNL     1     -43.799  55.499 -59.023  1.00  0.00     0.029 A 
ENDBRANCH  15  17
ENDBRANCH  11  13
ENDBRANCH   6   7
BRANCH   1  23
HETATM   23  C   UNL     1     -41.386  59.744 -51.068  1.00  0.00     0.306 C 
BRANCH  23  24
HETATM   24  N   UNL     1     -42.338  60.070 -50.004  1.00  0.00     0.082 N 
HETATM   25  H   UNL     1     -41.864  59.942 -49.109  1.00  0.00     0.313 HD
HETATM   26  H   UNL     1     -42.549  61.067 -50.059  1.00  0.00     0.313 HD
ENDBRANCH  23  24
ENDBRANCH   1  23
BRANCH   4  27
HETATM   27  C   UNL     1     -41.329  53.965 -51.822  1.00  0.00     0.256 C 
HETATM   28  O   UNL     1     -42.371  53.381 -51.539  1.00  0.00    -0.267 OA
HETATM   29  N   UNL     1     -40.150  53.365 -52.220  1.00  0.00    -0.320 N 
HETATM   30  H   UNL     1     -39.323  53.944 -52.316  1.00  0.00     0.169 HD
BRANCH  29  31
HETATM   31  C   UNL     1     -39.932  51.986 -52.457  1.00  0.00     0.076 A 
HETATM   32  C   UNL     1     -39.686  51.045 -51.461  1.00  0.00     0.052 A 
HETATM   33  C   UNL     1     -39.496  49.719 -51.834  1.00  0.00     0.118 A 
HETATM   34  N   UNL     1     -39.538  49.277 -53.111  1.00  0.00    -0.270 NA
HETATM   35  C   UNL     1     -39.783  50.208 -54.061  1.00  0.00     0.160 A 
HETATM   36  C   UNL     1     -39.980  51.548 -53.780  1.00  0.00     0.160 A 
HETATM   37  F   UNL     1     -40.223  52.417 -54.773  1.00  0.00    -0.202 F 
ENDBRANCH  29  31
ENDBRANCH   4  27
TORSDOF 7
ENDMDL
MODEL 2
REMARK VINA RESULT:      -9.2      2.558      3.456
REMARK  7 active torsions:
REMARK  status: ('A' for Active; 'I' for Inactive)
REMARK    1  A    between atoms: N_1  and  C_2 
REMARK    2  A    between atoms: C_2  and  C_3 
REMARK    3  A    between atoms: C_6  and  C_24 
REMARK    4  A    between atoms: C_8  and  C_9 
REMARK    5  A    between atoms: C_13  and  C_15 
REMARK       I    between atoms: C_15  and  N_17 
REMARK    6  A    between atoms: N_17  and  C_18 
REMARK       I    between atoms: C_24  and  N_26 
REMARK    7  A    between atoms: N_26  and  C_27 
ROOT
HETATM    1  C   UNL     1     -41.559  58.300 -51.549  1.00  0.00    -0.020 A 
HETATM    2  C   UNL     1     -40.923  57.495 -50.586  1.00  0.00     0.011 A 
HETATM    3  C   UNL     1     -40.889  56.107 -50.718  1.00  0.00     0.017 A 
HETATM    4  C   UNL     1     -41.480  55.489 -51.824  1.00  0.00     0.033 A 
HETATM    5  C   UNL     1     -42.106  56.280 -52.798  1.00  0.00     0.030 A 
HETATM    6  C   UNL     1     -42.144  57.687 -52.687  1.00  0.00    -0.017 A 
ENDROOT
BRANCH   6   7
HETATM    7  C   UNL     1     -42.798  58.469 -53.753  1.00  0.00    -0.024 A 
HETATM    8  C   UNL     1     -44.014  59.134 -53.531  1.00  0.00     0.012 A 
HETATM    9  C   UNL     1     -44.599  59.910 -54.535  1.00  0.00     0.002 A 
HETATM   10  C   UNL     1     -43.957  60.062 -55.763  1.00  0.00     0.017 A 
HETATM   11  C   UNL     1     -42.738  59.420 -55.998  1.00  0.00     0.033 A 
HETATM   12  C   UNL     1     -42.197  58.585 -55.015  1.00  0.00     0.029 A 
BRANCH  11  13
HETATM   13  C   UNL     1     -42.022  59.683 -57.281  1.00  0.00     0.256 C 
HETATM   14  O   UNL     1     -41.673  58.722 -57.956  1.00  0.00    -0.267 OA
HETATM   15  N   UNL     1     -41.874  61.023 -57.599  1.00  0.00    -0.323 N 
HETATM   16  H   UNL     1     -42.265  61.701 -56.953  1.00  0.00     0.169 HD
BRANCH  15  17
HETATM   17  C   UNL     1     -41.306  61.572 -58.768  1.00  0.00     0.035 A 
HETATM   18  C   UNL     1     -41.806  61.364 -60.055  1.00  0.00     0.029 A 
HETATM   19  C   UNL     1     -41.192  61.964 -61.159  1.00  0.00     0.002 A 
HETATM   20  C   UNL     1     -40.071  62.773 -60.988  1.00  0.00     0.000 A 
HETATM   21  C   UNL     1     -39.561  62.982 -59.710  1.00  0.00     0.002 A 
HETATM   22  C   UNL     1     -40.176  62.385 -58.606  1.00  0.00     0.029 A 
ENDBRANCH  15  17
ENDBRANCH  11  13
ENDBRANCH   6   7
BRANCH   1  23
HETATM   23  C   UNL     1     -41.611  59.794 -51.296  1.00  0.00     0.306 C 
BRANCH  23  24
HETATM   24  N   UNL     1     -42.534  60.142 -50.215  1.00  0.00     0.082 N 
HETATM   25  H   UNL     1     -42.760  59.285 -49.708  1.00  0.00     0.313 HD
HETATM   26  H   UNL     1     -42.035  60.729 -49.546  1.00  0.00     0.313 HD
ENDBRANCH  23  24
ENDBRANCH   1  23
BRANCH   4  27
HETATM   27  C   UNL     1     -41.461  53.997 -51.884  1.00  0.00     0.256 C 
HETATM   28  O   UNL     1     -42.484  53.393 -51.581  1.00  0.00    -0.267 OA
HETATM   29  N   UNL     1     -40.264  53.420 -52.265  1.00  0.00    -0.320 N 
HETATM   30  H   UNL     1     -39.455  54.019 -52.381  1.00  0.00     0.169 HD
BRANCH  29  31
HETATM   31  C   UNL     1     -40.006  52.041 -52.457  1.00  0.00     0.076 A 
HETATM   32  C   UNL     1     -39.699  51.147 -51.434  1.00  0.00     0.052 A 
HETATM   33  C   UNL     1     -39.475  49.815 -51.763  1.00  0.00     0.118 A 
HETATM   34  N   UNL     1     -39.538  49.323 -53.020  1.00  0.00    -0.270 NA
HETATM   35  C   UNL     1     -39.842  50.208 -53.996  1.00  0.00     0.160 A 
HETATM   36  C   UNL     1     -40.077  51.550 -53.761  1.00  0.00     0.160 A 
HETATM   37  F   UNL     1     -40.378  52.373 -54.777  1.00  0.00    -0.202 F 
ENDBRANCH  29  31
ENDBRANCH   4  27
TORSDOF 7
ENDMDL
MODEL 3
REMARK VINA RESULT:      -9.0      2.401      3.676
REMARK  7 active torsions:
REMARK  status: ('A' for Active; 'I' for Inactive)
REMARK    1  A    between atoms: N_1  and  C_2 
REMARK    2  A    between atoms: C_2  and  C_3 
REMARK    3  A    between atoms: C_6  and  C_24 
REMARK    4  A    between atoms: C_8  and  C_9 
REMARK    5  A    between atoms: C_13  and  C_15 
REMARK       I    between atoms: C_15  and  N_17 
REMARK    6  A    between atoms: N_17  and  C_18 
REMARK       I    between atoms: C_24  and  N_26 
REMARK    7  A    between atoms: N_26  and  C_27 
ROOT
HETATM    1  C   UNL     1     -42.021  58.543 -54.897  1.00  0.00    -0.020 A 
HETATM    2  C   UNL     1     -41.593  58.181 -53.606  1.00  0.00     0.011 A 
HETATM    3  C   UNL     1     -41.505  56.842 -53.227  1.00  0.00     0.017 A 
HETATM    4  C   UNL     1     -41.830  55.829 -54.134  1.00  0.00     0.033 A 
HETATM    5  C   UNL     1     -42.245  56.175 -55.427  1.00  0.00     0.030 A 
HETATM    6  C   UNL     1     -42.333  57.524 -55.834  1.00  0.00    -0.017 A 
ENDROOT
BRANCH   6   7
HETATM    7  C   UNL     1     -42.756  57.828 -57.214  1.00  0.00    -0.024 A 
HETATM    8  C   UNL     1     -41.818  58.062 -58.232  1.00  0.00     0.012 A 
HETATM    9  C   UNL     1     -42.232  58.302 -59.545  1.00  0.00     0.002 A 
HETATM   10  C   UNL     1     -43.589  58.275 -59.865  1.00  0.00     0.017 A 
HETATM   11  C   UNL     1     -44.538  58.029 -58.868  1.00  0.00     0.033 A 
HETATM   12  C   UNL     1     -44.119  57.864 -57.543  1.00  0.00     0.029 A 
BRANCH  11  13
HETATM   13  C   UNL     1     -45.973  57.902 -59.256  1.00  0.00     0.256 C 
HETATM   14  O   UNL     1     -46.794  57.694 -58.372  1.00  0.00    -0.267 OA
HETATM   15  N   UNL     1     -46.228  58.092 -60.604  1.00  0.00    -0.323 N 
HETATM   16  H   UNL     1     -45.437  58.306 -61.203  1.00  0.00     0.169 HD
BRANCH  15  17
HETATM   17  C   UNL     1     -47.484  58.100 -61.249  1.00  0.00     0.035 A 
HETATM   18  C   UNL     1     -48.282  59.236 -61.395  1.00  0.00     0.029 A 
HETATM   19  C   UNL     1     -49.507  59.160 -62.067  1.00  0.00     0.002 A 
HETATM   20  C   UNL     1     -49.945  57.948 -62.594  1.00  0.00     0.000 A 
HETATM   21  C   UNL     1     -49.160  56.808 -62.448  1.00  0.00     0.002 A 
HETATM   22  C   UNL     1     -47.935  56.884 -61.779  1.00  0.00     0.029 A 
ENDBRANCH  15  17
ENDBRANCH  11  13
ENDBRANCH   6   7
BRANCH   1  23
HETATM   23  C   UNL     1     -42.155  60.021 -55.207  1.00  0.00     0.306 C 
BRANCH  23  24
HETATM   24  N   UNL     1     -42.189  60.841 -53.994  1.00  0.00     0.082 N 
HETATM   25  H   UNL     1     -41.795  60.289 -53.231  1.00  0.00     0.313 HD
HETATM   26  H   UNL     1     -41.548  61.625 -54.121  1.00  0.00     0.313 HD
ENDBRANCH  23  24
ENDBRANCH   1  23
BRANCH   4  27
HETATM   27  C   UNL     1     -41.769  54.416 -53.655  1.00  0.00     0.256 C 
HETATM   28  O   UNL     1     -42.780  53.930 -53.158  1.00  0.00    -0.267 OA
HETATM   29  N   UNL     1     -40.553  53.777 -53.800  1.00  0.00    -0.320 N 
HETATM   30  H   UNL     1     -39.758  54.319 -54.121  1.00  0.00     0.169 HD
BRANCH  29  31
HETATM   31  C   UNL     1     -40.254  52.430 -53.483  1.00  0.00     0.076 A 
HETATM   32  C   UNL     1     -40.346  51.370 -54.382  1.00  0.00     0.052 A 
HETATM   33  C   UNL     1     -40.014  50.094 -53.940  1.00  0.00     0.118 A 
HETATM   34  N   UNL     1     -39.600  49.811 -52.684  1.00  0.00    -0.270 NA
HETATM   35  C   UNL     1     -39.514  50.856 -51.830  1.00  0.00     0.160 A 
HETATM   36  C   UNL     1     -39.827  52.156 -52.184  1.00  0.00     0.160 A 
HETATM   37  F   UNL     1     -39.714  53.146 -51.285  1.00  0.00    -0.202 F 
ENDBRANCH  29  31
ENDBRANCH   4  27
TORSDOF 7
ENDMDL
MODEL 4
REMARK VINA RESULT:      -8.9      1.917      7.789
REMARK  7 active torsions:
REMARK  status: ('A' for Active; 'I' for Inactive)
REMARK    1  A    between atoms: N_1  and  C_2 
REMARK    2  A    between atoms: C_2  and  C_3 
REMARK    3  A    between atoms: C_6  and  C_24 
REMARK    4  A    between atoms: C_8  and  C_9 
REMARK    5  A    between atoms: C_13  and  C_15 
REMARK       I    between atoms: C_15  and  N_17 
REMARK    6  A    between atoms: N_17  and  C_18 
REMARK       I    between atoms: C_24  and  N_26 
REMARK    7  A    between atoms: N_26  and  C_27 
ROOT
HETATM    1  C   UNL     1     -44.260  59.715 -53.149  1.00  0.00    -0.020 A 
HETATM    2  C   UNL     1     -45.153  60.341 -54.038  1.00  0.00     0.011 A 
HETATM    3  C   UNL     1     -45.257  59.924 -55.365  1.00  0.00     0.017 A 
HETATM    4  C   UNL     1     -44.479  58.862 -55.834  1.00  0.00     0.033 A 
HETATM    5  C   UNL     1     -43.594  58.220 -54.956  1.00  0.00     0.030 A 
HETATM    6  C   UNL     1     -43.480  58.621 -53.607  1.00  0.00    -0.017 A 
ENDROOT
BRANCH   6   7
HETATM    7  C   UNL     1     -42.548  57.896 -52.723  1.00  0.00    -0.024 A 
HETATM    8  C   UNL     1     -41.812  58.562 -51.731  1.00  0.00     0.012 A 
HETATM    9  C   UNL     1     -40.968  57.856 -50.870  1.00  0.00     0.002 A 
HETATM   10  C   UNL     1     -40.875  56.468 -50.966  1.00  0.00     0.017 A 
HETATM   11  C   UNL     1     -41.611  55.784 -51.938  1.00  0.00     0.033 A 
HETATM   12  C   UNL     1     -42.396  56.507 -52.844  1.00  0.00     0.029 A 
BRANCH  11  13
HETATM   13  C   UNL     1     -41.575  54.293 -51.951  1.00  0.00     0.256 C 
HETATM   14  O   UNL     1     -42.506  53.687 -51.435  1.00  0.00    -0.267 OA
HETATM   15  N   UNL     1     -40.487  53.745 -52.611  1.00  0.00    -0.323 N 
HETATM   16  H   UNL     1     -39.824  54.389 -53.031  1.00  0.00     0.169 HD
BRANCH  15  17
HETATM   17  C   UNL     1     -40.221  52.379 -52.844  1.00  0.00     0.035 A 
HETATM   18  C   UNL     1     -40.396  51.745 -54.075  1.00  0.00     0.029 A 
HETATM   19  C   UNL     1     -40.088  50.388 -54.224  1.00  0.00     0.002 A 
HETATM   20  C   UNL     1     -39.607  49.654 -53.143  1.00  0.00     0.000 A 
HETATM   21  C   UNL     1     -39.435  50.275 -51.910  1.00  0.00     0.002 A 
HETATM   22  C   UNL     1     -39.740  51.631 -51.761  1.00  0.00     0.029 A 
ENDBRANCH  15  17
ENDBRANCH  11  13
ENDBRANCH   6   7
BRANCH   1  23
HETATM   23  C   UNL     1     -44.158  60.272 -51.743  1.00  0.00     0.306 C 
BRANCH  23  24
HETATM   24  N   UNL     1     -45.165  59.701 -50.846  1.00  0.00     0.082 N 
HETATM   25  H   UNL     1     -45.142  60.230 -49.973  1.00  0.00     0.313 HD
HETATM   26  H   UNL     1     -46.087  59.880 -51.247  1.00  0.00     0.313 HD
ENDBRANCH  23  24
ENDBRANCH   1  23
BRANCH   4  27
HETATM   27  C   UNL     1     -44.592  58.495 -57.277  1.00  0.00     0.256 C 
HETATM   28  O   UNL     1     -44.148  59.279 -58.110  1.00  0.00    -0.267 OA
HETATM   29  N   UNL     1     -45.217  57.294 -57.552  1.00  0.00    -0.320 N 
HETATM   30  H   UNL     1     -45.644  56.786 -56.785  1.00  0.00     0.169 HD
BRANCH  29  31
HETATM   31  C   UNL     1     -45.395  56.696 -58.823  1.00  0.00     0.076 A 
HETATM   32  C   UNL     1     -46.531  56.848 -59.613  1.00  0.00     0.052 A 
HETATM   33  C   UNL     1     -46.571  56.209 -60.848  1.00  0.00     0.118 A 
HETATM   34  N   UNL     1     -45.569  55.446 -61.339  1.00  0.00    -0.270 NA
HETATM   35  C   UNL     1     -44.474  55.316 -60.557  1.00  0.00     0.160 A 
HETATM   36  C   UNL     1     -44.350  55.913 -59.315  1.00  0.00     0.160 A 
HETATM   37  F   UNL     1     -43.231  55.746 -58.593  1.00  0.00    -0.202 F 
ENDBRANCH  29  31
ENDBRANCH   4  27
TORSDOF 7
ENDMDL
MODEL 5
REMARK VINA RESULT:      -8.9      4.675      9.432
REMARK  7 active torsions:
REMARK  status: ('A' for Active; 'I' for Inactive)
REMARK    1  A    between atoms: N_1  and  C_2 
REMARK    2  A    between atoms: C_2  and  C_3 
REMARK    3  A    between atoms: C_6  and  C_24 
REMARK    4  A    between atoms: C_8  and  C_9 
REMARK    5  A    between atoms: C_13  and  C_15 
REMARK       I    between atoms: C_15  and  N_17 
REMARK    6  A    between atoms: N_17  and  C_18 
REMARK       I    between atoms: C_24  and  N_26 
REMARK    7  A    between atoms: N_26  and  C_27 
ROOT
HETATM    1  C   UNL     1     -42.259  59.737 -52.205  1.00  0.00    -0.020 A 
HETATM    2  C   UNL     1     -42.189  60.930 -51.462  1.00  0.00     0.011 A 
HETATM    3  C   UNL     1     -43.180  61.261 -50.537  1.00  0.00     0.017 A 
HETATM    4  C   UNL     1     -44.260  60.401 -50.323  1.00  0.00     0.033 A 
HETATM    5  C   UNL     1     -44.336  59.203 -51.047  1.00  0.00     0.030 A 
HETATM    6  C   UNL     1     -43.340  58.845 -51.981  1.00  0.00    -0.017 A 
ENDROOT
BRANCH   6   7
HETATM    7  C   UNL     1     -43.461  57.562 -52.698  1.00  0.00    -0.024 A 
HETATM    8  C   UNL     1     -44.119  57.474 -53.935  1.00  0.00     0.012 A 
HETATM    9  C   UNL     1     -44.186  56.262 -54.626  1.00  0.00     0.002 A 
HETATM   10  C   UNL     1     -43.564  55.127 -54.107  1.00  0.00     0.017 A 
HETATM   11  C   UNL     1     -42.890  55.197 -52.884  1.00  0.00     0.033 A 
HETATM   12  C   UNL     1     -42.893  56.397 -52.163  1.00  0.00     0.029 A 
BRANCH  11  13
HETATM   13  C   UNL     1     -42.145  53.997 -52.403  1.00  0.00     0.256 C 
HETATM   14  O   UNL     1     -42.254  53.684 -51.224  1.00  0.00    -0.267 OA
HETATM   15  N   UNL     1     -41.436  53.323 -53.383  1.00  0.00    -0.323 N 
HETATM   16  H   UNL     1     -41.489  53.686 -54.329  1.00  0.00     0.169 HD
BRANCH  15  17
HETATM   17  C   UNL     1     -40.700  52.128 -53.243  1.00  0.00     0.035 A 
HETATM   18  C   UNL     1     -40.064  51.732 -52.065  1.00  0.00     0.029 A 
HETATM   19  C   UNL     1     -39.371  50.518 -52.007  1.00  0.00     0.002 A 
HETATM   20  C   UNL     1     -39.302  49.693 -53.126  1.00  0.00     0.000 A 
HETATM   21  C   UNL     1     -39.927  50.081 -54.308  1.00  0.00     0.002 A 
HETATM   22  C   UNL     1     -40.622  51.292 -54.365  1.00  0.00     0.029 A 
ENDBRANCH  15  17
ENDBRANCH  11  13
ENDBRANCH   6   7
BRANCH   1  23
HETATM   23  C   UNL     1     -41.179  59.485 -53.237  1.00  0.00     0.306 C 
BRANCH  23  24
HETATM   24  N   UNL     1     -39.971  58.906 -52.646  1.00  0.00     0.082 N 
HETATM   25  H   UNL     1     -39.181  59.501 -52.902  1.00  0.00     0.313 HD
HETATM   26  H   UNL     1     -40.047  58.979 -51.631  1.00  0.00     0.313 HD
ENDBRANCH  23  24
ENDBRANCH   1  23
BRANCH   4  27
HETATM   27  C   UNL     1     -45.318  60.833 -49.361  1.00  0.00     0.256 C 
HETATM   28  O   UNL     1     -46.023  59.968 -48.850  1.00  0.00    -0.267 OA
HETATM   29  N   UNL     1     -45.423  62.193 -49.144  1.00  0.00    -0.320 N 
HETATM   30  H   UNL     1     -44.860  62.817 -49.711  1.00  0.00     0.169 HD
BRANCH  29  31
HETATM   31  C   UNL     1     -46.297  62.848 -48.242  1.00  0.00     0.076 A 
HETATM   32  C   UNL     1     -47.506  63.436 -48.603  1.00  0.00     0.052 A 
HETATM   33  C   UNL     1     -48.272  64.040 -47.613  1.00  0.00     0.118 A 
HETATM   34  N   UNL     1     -47.920  64.093 -46.308  1.00  0.00    -0.270 NA
HETATM   35  C   UNL     1     -46.744  63.511 -45.980  1.00  0.00     0.160 A 
HETATM   36  C   UNL     1     -45.918  62.891 -46.901  1.00  0.00     0.160 A 
HETATM   37  F   UNL     1     -44.766  62.330 -46.504  1.00  0.00    -0.202 F 
ENDBRANCH  29  31
ENDBRANCH   4  27
TORSDOF 7
ENDMDL
MODEL 6
REMARK VINA RESULT:      -8.8      2.525      7.955
REMARK  7 active torsions:
REMARK  status: ('A' for Active; 'I' for Inactive)
REMARK    1  A    between atoms: N_1  and  C_2 
REMARK    2  A    between atoms: C_2  and  C_3 
REMARK    3  A    between atoms: C_6  and  C_24 
REMARK    4  A    between atoms: C_8  and  C_9 
REMARK    5  A    between atoms: C_13  and  C_15 
REMARK       I    between atoms: C_15  and  N_17 
REMARK    6  A    between atoms: N_17  and  C_18 
REMARK       I    between atoms: C_24  and  N_26 
REMARK    7  A    between atoms: N_26  and  C_27 
ROOT
HETATM    1  C   UNL     1     -43.000  60.204 -54.184  1.00  0.00    -0.020 A 
HETATM    2  C   UNL     1     -42.875  60.959 -55.365  1.00  0.00     0.011 A 
HETATM    3  C   UNL     1     -43.193  60.409 -56.607  1.00  0.00     0.017 A 
HETATM    4  C   UNL     1     -43.657  59.094 -56.698  1.00  0.00     0.033 A 
HETATM    5  C   UNL     1     -43.800  58.335 -55.528  1.00  0.00     0.030 A 
HETATM    6  C   UNL     1     -43.491  58.875 -54.261  1.00  0.00    -0.017 A 
ENDROOT
BRANCH   6   7
HETATM    7  C   UNL     1     -43.679  58.037 -53.063  1.00  0.00    -0.024 A 
HETATM    8  C   UNL     1     -44.724  58.278 -52.157  1.00  0.00     0.012 A 
HETATM    9  C   UNL     1     -44.920  57.447 -51.051  1.00  0.00     0.002 A 
HETATM   10  C   UNL     1     -44.095  56.340 -50.855  1.00  0.00     0.017 A 
HETATM   11  C   UNL     1     -43.058  56.073 -51.754  1.00  0.00     0.033 A 
HETATM   12  C   UNL     1     -42.823  56.953 -52.816  1.00  0.00     0.029 A 
BRANCH  11  13
HETATM   13  C   UNL     1     -42.257  54.826 -51.580  1.00  0.00     0.256 C 
HETATM   14  O   UNL     1     -42.237  54.303 -50.473  1.00  0.00    -0.267 OA
HETATM   15  N   UNL     1     -41.653  54.359 -52.735  1.00  0.00    -0.323 N 
HETATM   16  H   UNL     1     -41.809  54.885 -53.589  1.00  0.00     0.169 HD
BRANCH  15  17
HETATM   17  C   UNL     1     -40.897  53.177 -52.893  1.00  0.00     0.035 A 
HETATM   18  C   UNL     1     -40.047  52.655 -51.917  1.00  0.00     0.029 A 
HETATM   19  C   UNL     1     -39.349  51.464 -52.148  1.00  0.00     0.002 A 
HETATM   20  C   UNL     1     -39.491  50.790 -53.358  1.00  0.00     0.000 A 
HETATM   21  C   UNL     1     -40.331  51.306 -54.340  1.00  0.00     0.002 A 
HETATM   22  C   UNL     1     -41.031  52.493 -54.108  1.00  0.00     0.029 A 
ENDBRANCH  15  17
ENDBRANCH  11  13
ENDBRANCH   6   7
BRANCH   1  23
HETATM   23  C   UNL     1     -42.569  60.853 -52.884  1.00  0.00     0.306 C 
BRANCH  23  24
HETATM   24  N   UNL     1     -43.082  62.218 -52.748  1.00  0.00     0.082 N 
HETATM   25  H   UNL     1     -43.225  62.401 -51.754  1.00  0.00     0.313 HD
HETATM   26  H   UNL     1     -42.349  62.865 -53.040  1.00  0.00     0.313 HD
ENDBRANCH  23  24
ENDBRANCH   1  23
BRANCH   4  27
HETATM   27  C   UNL     1     -43.930  58.542 -58.059  1.00  0.00     0.256 C 
HETATM   28  O   UNL     1     -43.347  59.043 -59.014  1.00  0.00    -0.267 OA
HETATM   29  N   UNL     1     -44.847  57.510 -58.122  1.00  0.00    -0.320 N 
HETATM   30  H   UNL     1     -45.348  57.257 -57.278  1.00  0.00     0.169 HD
BRANCH  29  31
HETATM   31  C   UNL     1     -45.231  56.780 -59.274  1.00  0.00     0.076 A 
HETATM   32  C   UNL     1     -44.425  55.847 -59.921  1.00  0.00     0.052 A 
HETATM   33  C   UNL     1     -44.931  55.196 -61.040  1.00  0.00     0.118 A 
HETATM   34  N   UNL     1     -46.168  55.406 -61.545  1.00  0.00    -0.270 NA
HETATM   35  C   UNL     1     -46.934  56.312 -60.897  1.00  0.00     0.160 A 
HETATM   36  C   UNL     1     -46.511  57.008 -59.780  1.00  0.00     0.160 A 
HETATM   37  F   UNL     1     -47.327  57.892 -59.184  1.00  0.00    -0.202 F 
ENDBRANCH  29  31
ENDBRANCH   4  27
TORSDOF 7
ENDMDL
MODEL 7
REMARK VINA RESULT:      -8.8      3.430      7.246
REMARK  7 active torsions:
REMARK  status: ('A' for Active; 'I' for Inactive)
REMARK    1  A    between atoms: N_1  and  C_2 
REMARK    2  A    between atoms: C_2  and  C_3 
REMARK    3  A    between atoms: C_6  and  C_24 
REMARK    4  A    between atoms: C_8  and  C_9 
REMARK    5  A    between atoms: C_13  and  C_15 
REMARK       I    between atoms: C_15  and  N_17 
REMARK    6  A    between atoms: N_17  and  C_18 
REMARK       I    between atoms: C_24  and  N_26 
REMARK    7  A    between atoms: N_26  and  C_27 
ROOT
HETATM    1  C   UNL     1     -42.020  58.127 -54.781  1.00  0.00    -0.020 A 
HETATM    2  C   UNL     1     -42.246  57.252 -55.859  1.00  0.00     0.011 A 
HETATM    3  C   UNL     1     -42.155  55.870 -55.694  1.00  0.00     0.017 A 
HETATM    4  C   UNL     1     -41.849  55.327 -54.443  1.00  0.00     0.033 A 
HETATM    5  C   UNL     1     -41.634  56.187 -53.357  1.00  0.00     0.030 A 
HETATM    6  C   UNL     1     -41.729  57.589 -53.500  1.00  0.00    -0.017 A 
ENDROOT
BRANCH   6   7
HETATM    7  C   UNL     1     -41.514  58.444 -52.318  1.00  0.00    -0.024 A 
HETATM    8  C   UNL     1     -40.238  58.610 -51.758  1.00  0.00     0.012 A 
HETATM    9  C   UNL     1     -40.039  59.460 -50.667  1.00  0.00     0.002 A 
HETATM   10  C   UNL     1     -41.110  60.185 -50.144  1.00  0.00     0.017 A 
HETATM   11  C   UNL     1     -42.386  60.045 -50.697  1.00  0.00     0.033 A 
HETATM   12  C   UNL     1     -42.589  59.135 -51.741  1.00  0.00     0.029 A 
BRANCH  11  13
HETATM   13  C   UNL     1     -43.491  60.909 -50.187  1.00  0.00     0.256 C 
HETATM   14  O   UNL     1     -44.088  61.616 -50.988  1.00  0.00    -0.267 OA
HETATM   15  N   UNL     1     -43.758  60.770 -48.835  1.00  0.00    -0.323 N 
HETATM   16  H   UNL     1     -43.200  60.099 -48.316  1.00  0.00     0.169 HD
BRANCH  15  17
HETATM   17  C   UNL     1     -44.779  61.398 -48.091  1.00  0.00     0.035 A 
HETATM   18  C   UNL     1     -45.713  60.716 -47.310  1.00  0.00     0.029 A 
HETATM   19  C   UNL     1     -46.682  61.421 -46.587  1.00  0.00     0.002 A 
HETATM   20  C   UNL     1     -46.729  62.811 -46.643  1.00  0.00     0.000 A 
HETATM   21  C   UNL     1     -45.806  63.501 -47.424  1.00  0.00     0.002 A 
HETATM   22  C   UNL     1     -44.836  62.797 -48.144  1.00  0.00     0.029 A 
ENDBRANCH  15  17
ENDBRANCH  11  13
ENDBRANCH   6   7
BRANCH   1  23
HETATM   23  C   UNL     1     -42.071  59.617 -55.059  1.00  0.00     0.306 C 
BRANCH  23  24
HETATM   24  N   UNL     1     -42.731  59.921 -56.330  1.00  0.00     0.082 N 
HETATM   25  H   UNL     1     -42.751  60.936 -56.438  1.00  0.00     0.313 HD
HETATM   26  H   UNL     1     -42.137  59.580 -57.087  1.00  0.00     0.313 HD
ENDBRANCH  23  24
ENDBRANCH   1  23
BRANCH   4  27
HETATM   27  C   UNL     1     -41.711  53.844 -54.338  1.00  0.00     0.256 C 
HETATM   28  O   UNL     1     -42.581  53.145 -54.849  1.00  0.00    -0.267 OA
HETATM   29  N   UNL     1     -40.607  53.383 -53.647  1.00  0.00    -0.320 N 
HETATM   30  H   UNL     1     -40.019  54.059 -53.172  1.00  0.00     0.169 HD
BRANCH  29  31
HETATM   31  C   UNL     1     -40.220  52.034 -53.460  1.00  0.00     0.076 A 
HETATM   32  C   UNL     1     -40.177  51.079 -54.472  1.00  0.00     0.052 A 
HETATM   33  C   UNL     1     -39.770  49.789 -54.151  1.00  0.00     0.118 A 
HETATM   34  N   UNL     1     -39.404  49.397 -52.910  1.00  0.00    -0.270 NA
HETATM   35  C   UNL     1     -39.449  50.342 -51.944  1.00  0.00     0.160 A 
HETATM   36  C   UNL     1     -39.844  51.647 -52.174  1.00  0.00     0.160 A 
HETATM   37  F   UNL     1     -39.861  52.536 -51.168  1.00  0.00    -0.202 F 
ENDBRANCH  29  31
ENDBRANCH   4  27
TORSDOF 7
ENDMDL
MODEL 8
REMARK VINA RESULT:      -8.7      3.320      8.470
REMARK  7 active torsions:
REMARK  status: ('A' for Active; 'I' for Inactive)
REMARK    1  A    between atoms: N_1  and  C_2 
REMARK    2  A    between atoms: C_2  and  C_3 
REMARK    3  A    between atoms: C_6  and  C_24 
REMARK    4  A    between atoms: C_8  and  C_9 
REMARK    5  A    between atoms: C_13  and  C_15 
REMARK       I    between atoms: C_15  and  N_17 
REMARK    6  A    between atoms: N_17  and  C_18 
REMARK       I    between atoms: C_24  and  N_26 
REMARK    7  A    between atoms: N_26  and  C_27 
ROOT
HETATM    1  C   UNL     1     -44.869  59.363 -52.347  1.00  0.00    -0.020 A 
HETATM    2  C   UNL     1     -45.729  60.211 -53.069  1.00  0.00     0.011 A 
HETATM    3  C   UNL     1     -45.330  60.779 -54.278  1.00  0.00     0.017 A 
HETATM    4  C   UNL     1     -44.064  60.505 -54.803  1.00  0.00     0.033 A 
HETATM    5  C   UNL     1     -43.201  59.652 -54.100  1.00  0.00     0.030 A 
HETATM    6  C   UNL     1     -43.589  59.060 -52.879  1.00  0.00    -0.017 A 
ENDROOT
BRANCH   6   7
HETATM    7  C   UNL     1     -42.648  58.154 -52.194  1.00  0.00    -0.024 A 
HETATM    8  C   UNL     1     -41.836  58.602 -51.140  1.00  0.00     0.012 A 
HETATM    9  C   UNL     1     -40.983  57.723 -50.469  1.00  0.00     0.002 A 
HETATM   10  C   UNL     1     -40.956  56.373 -50.819  1.00  0.00     0.017 A 
HETATM   11  C   UNL     1     -41.768  55.904 -51.856  1.00  0.00     0.033 A 
HETATM   12  C   UNL     1     -42.563  56.806 -52.572  1.00  0.00     0.029 A 
BRANCH  11  13
HETATM   13  C   UNL     1     -41.797  54.439 -52.141  1.00  0.00     0.256 C 
HETATM   14  O   UNL     1     -42.886  53.879 -52.177  1.00  0.00    -0.267 OA
HETATM   15  N   UNL     1     -40.558  53.872 -52.391  1.00  0.00    -0.323 N 
HETATM   16  H   UNL     1     -39.751  54.487 -52.370  1.00  0.00     0.169 HD
BRANCH  15  17
HETATM   17  C   UNL     1     -40.281  52.537 -52.753  1.00  0.00     0.035 A 
HETATM   18  C   UNL     1     -40.462  52.019 -54.037  1.00  0.00     0.029 A 
HETATM   19  C   UNL     1     -40.142  50.686 -54.316  1.00  0.00     0.002 A 
HETATM   20  C   UNL     1     -39.645  49.858 -53.312  1.00  0.00     0.000 A 
HETATM   21  C   UNL     1     -39.467  50.362 -52.028  1.00  0.00     0.002 A 
HETATM   22  C   UNL     1     -39.783  51.695 -51.750  1.00  0.00     0.029 A 
ENDBRANCH  15  17
ENDBRANCH  11  13
ENDBRANCH   6   7
BRANCH   1  23
HETATM   23  C   UNL     1     -45.353  58.841 -51.008  1.00  0.00     0.306 C 
BRANCH  23  24
HETATM   24  N   UNL     1     -45.060  59.767 -49.913  1.00  0.00     0.082 N 
HETATM   25  H   UNL     1     -44.949  59.218 -49.060  1.00  0.00     0.313 HD
HETATM   26  H   UNL     1     -44.146  60.187 -50.086  1.00  0.00     0.313 HD
ENDBRANCH  23  24
ENDBRANCH   1  23
BRANCH   4  27
HETATM   27  C   UNL     1     -43.671  61.185 -56.073  1.00  0.00     0.256 C 
HETATM   28  O   UNL     1     -44.235  62.234 -56.366  1.00  0.00    -0.267 OA
HETATM   29  N   UNL     1     -42.702  60.551 -56.827  1.00  0.00    -0.320 N 
HETATM   30  H   UNL     1     -42.391  59.631 -56.538  1.00  0.00     0.169 HD
BRANCH  29  31
HETATM   31  C   UNL     1     -42.118  61.016 -58.030  1.00  0.00     0.076 A 
HETATM   32  C   UNL     1     -41.027  61.879 -58.094  1.00  0.00     0.052 A 
HETATM   33  C   UNL     1     -40.548  62.251 -59.345  1.00  0.00     0.118 A 
HETATM   34  N   UNL     1     -41.072  61.824 -60.516  1.00  0.00    -0.270 NA
HETATM   35  C   UNL     1     -42.128  60.983 -60.429  1.00  0.00     0.160 A 
HETATM   36  C   UNL     1     -42.671  60.563 -59.228  1.00  0.00     0.160 A 
HETATM   37  F   UNL     1     -43.717  59.723 -59.216  1.00  0.00    -0.202 F 
ENDBRANCH  29  31
ENDBRANCH   4  27
TORSDOF 7
ENDMDL
MODEL 9
REMARK VINA RESULT:      -8.5      3.653      8.160
REMARK  7 active torsions:
REMARK  status: ('A' for Active; 'I' for Inactive)
REMARK    1  A    between atoms: N_1  and  C_2 
REMARK    2  A    between atoms: C_2  and  C_3 
REMARK    3  A    between atoms: C_6  and  C_24 
REMARK    4  A    between atoms: C_8  and  C_9 
REMARK    5  A    between atoms: C_13  and  C_15 
REMARK       I    between atoms: C_15  and  N_17 
REMARK    6  A    between atoms: N_17  and  C_18 
REMARK       I    between atoms: C_24  and  N_26 
REMARK    7  A    between atoms: N_26  and  C_27 
ROOT
HETATM    1  C   UNL     1     -41.435  55.030 -51.756  1.00  0.00    -0.020 A 
HETATM    2  C   UNL     1     -41.527  53.808 -52.448  1.00  0.00     0.011 A 
HETATM    3  C   UNL     1     -41.961  53.763 -53.772  1.00  0.00     0.017 A 
HETATM    4  C   UNL     1     -42.302  54.941 -54.443  1.00  0.00     0.033 A 
HETATM    5  C   UNL     1     -42.202  56.166 -53.770  1.00  0.00     0.030 A 
HETATM    6  C   UNL     1     -41.757  56.235 -52.432  1.00  0.00    -0.017 A 
ENDROOT
BRANCH   6   7
HETATM    7  C   UNL     1     -41.652  57.554 -51.781  1.00  0.00    -0.024 A 
HETATM    8  C   UNL     1     -40.411  58.184 -51.601  1.00  0.00     0.012 A 
HETATM    9  C   UNL     1     -40.330  59.455 -51.025  1.00  0.00     0.002 A 
HETATM   10  C   UNL     1     -41.494  60.129 -50.655  1.00  0.00     0.017 A 
HETATM   11  C   UNL     1     -42.741  59.524 -50.841  1.00  0.00     0.033 A 
HETATM   12  C   UNL     1     -42.807  58.222 -51.348  1.00  0.00     0.029 A 
BRANCH  11  13
HETATM   13  C   UNL     1     -43.973  60.307 -50.534  1.00  0.00     0.256 C 
HETATM   14  O   UNL     1     -44.781  60.491 -51.436  1.00  0.00    -0.267 OA
HETATM   15  N   UNL     1     -44.094  60.705 -49.213  1.00  0.00    -0.323 N 
HETATM   16  H   UNL     1     -43.355  60.429 -48.574  1.00  0.00     0.169 HD
BRANCH  15  17
HETATM   17  C   UNL     1     -45.172  61.393 -48.617  1.00  0.00     0.035 A 
HETATM   18  C   UNL     1     -45.863  62.444 -49.223  1.00  0.00     0.029 A 
HETATM   19  C   UNL     1     -46.936  63.058 -48.568  1.00  0.00     0.002 A 
HETATM   20  C   UNL     1     -47.325  62.630 -47.301  1.00  0.00     0.000 A 
HETATM   21  C   UNL     1     -46.639  61.588 -46.685  1.00  0.00     0.002 A 
HETATM   22  C   UNL     1     -45.568  60.972 -47.340  1.00  0.00     0.029 A 
ENDBRANCH  15  17
ENDBRANCH  11  13
ENDBRANCH   6   7
BRANCH   1  23
HETATM   23  C   UNL     1     -41.020  54.985 -50.298  1.00  0.00     0.306 C 
BRANCH  23  24
HETATM   24  N   UNL     1     -39.838  54.147 -50.084  1.00  0.00     0.082 N 
HETATM   25  H   UNL     1     -40.113  53.175 -50.230  1.00  0.00     0.313 HD
HETATM   26  H   UNL     1     -39.164  54.352 -50.822  1.00  0.00     0.313 HD
ENDBRANCH  23  24
ENDBRANCH   1  23
BRANCH   4  27
HETATM   27  C   UNL     1     -42.812  54.826 -55.842  1.00  0.00     0.256 C 
HETATM   28  O   UNL     1     -43.443  53.819 -56.147  1.00  0.00    -0.267 OA
HETATM   29  N   UNL     1     -42.506  55.874 -56.688  1.00  0.00    -0.320 N 
HETATM   30  H   UNL     1     -41.881  56.599 -56.353  1.00  0.00     0.169 HD
BRANCH  29  31
HETATM   31  C   UNL     1     -42.920  56.034 -58.033  1.00  0.00     0.076 A 
HETATM   32  C   UNL     1     -43.700  55.116 -58.732  1.00  0.00     0.052 A 
HETATM   33  C   UNL     1     -44.041  55.402 -60.049  1.00  0.00     0.118 A 
HETATM   34  N   UNL     1     -43.667  56.525 -60.702  1.00  0.00    -0.270 NA
HETATM   35  C   UNL     1     -42.914  57.404 -60.003  1.00  0.00     0.160 A 
HETATM   36  C   UNL     1     -42.526  57.199 -58.691  1.00  0.00     0.160 A 
HETATM   37  F   UNL     1     -41.782  58.117 -58.055  1.00  0.00    -0.202 F 
ENDBRANCH  29  31
ENDBRANCH   4  27
TORSDOF 7
ENDMDL
MODEL 10
REMARK VINA RESULT:      -8.3     15.944     19.881
REMARK  7 active torsions:
REMARK  status: ('A' for Active; 'I' for Inactive)
REMARK    1  A    between atoms: N_1  and  C_2 
REMARK    2  A    between atoms: C_2  and  C_3 
REMARK    3  A    between atoms: C_6  and  C_24 
REMARK    4  A    between atoms: C_8  and  C_9 
REMARK    5  A    between atoms: C_13  and  C_15 
REMARK       I    between atoms: C_15  and  N_17 
REMARK    6  A    between atoms: N_17  and  C_18 
REMARK       I    between atoms: C_24  and  N_26 
REMARK    7  A    between atoms: N_26  and  C_27 
ROOT
HETATM    1  C   UNL     1     -36.446  41.222 -55.794  1.00  0.00    -0.020 A 
HETATM    2  C   UNL     1     -37.788  41.338 -56.200  1.00  0.00     0.011 A 
HETATM    3  C   UNL     1     -38.361  40.406 -57.065  1.00  0.00     0.017 A 
HETATM    4  C   UNL     1     -37.609  39.325 -57.535  1.00  0.00     0.033 A 
HETATM    5  C   UNL     1     -36.275  39.190 -57.128  1.00  0.00     0.030 A 
HETATM    6  C   UNL     1     -35.678  40.117 -56.247  1.00  0.00    -0.017 A 
ENDROOT
BRANCH   6   7
HETATM    7  C   UNL     1     -34.277  39.913 -55.837  1.00  0.00    -0.024 A 
HETATM    8  C   UNL     1     -33.209  40.361 -56.630  1.00  0.00     0.012 A 
HETATM    9  C   UNL     1     -31.887  40.203 -56.207  1.00  0.00     0.002 A 
HETATM   10  C   UNL     1     -31.615  39.626 -54.966  1.00  0.00     0.017 A 
HETATM   11  C   UNL     1     -32.665  39.188 -54.154  1.00  0.00     0.033 A 
HETATM   12  C   UNL     1     -33.982  39.282 -54.619  1.00  0.00     0.029 A 
BRANCH  11  13
HETATM   13  C   UNL     1     -32.353  38.671 -52.790  1.00  0.00     0.256 C 
HETATM   14  O   UNL     1     -31.583  37.723 -52.693  1.00  0.00    -0.267 OA
HETATM   15  N   UNL     1     -32.944  39.375 -51.754  1.00  0.00    -0.323 N 
HETATM   16  H   UNL     1     -33.520  40.173 -52.002  1.00  0.00     0.169 HD
BRANCH  15  17
HETATM   17  C   UNL     1     -32.780  39.165 -50.368  1.00  0.00     0.035 A 
HETATM   18  C   UNL     1     -31.762  39.739 -49.604  1.00  0.00     0.029 A 
HETATM   19  C   UNL     1     -31.685  39.493 -48.228  1.00  0.00     0.002 A 
HETATM   20  C   UNL     1     -32.620  38.670 -47.607  1.00  0.00     0.000 A 
HETATM   21  C   UNL     1     -33.635  38.088 -48.361  1.00  0.00     0.002 A 
HETATM   22  C   UNL     1     -33.714  38.335 -49.734  1.00  0.00     0.029 A 
ENDBRANCH  15  17
ENDBRANCH  11  13
ENDBRANCH   6   7
BRANCH   1  23
HETATM   23  C   UNL     1     -35.880  42.314 -54.908  1.00  0.00     0.306 C 
BRANCH  23  24
HETATM   24  N   UNL     1     -36.431  42.269 -53.552  1.00  0.00     0.082 N 
HETATM   25  H   UNL     1     -36.998  43.108 -53.417  1.00  0.00     0.313 HD
HETATM   26  H   UNL     1     -37.086  41.488 -53.500  1.00  0.00     0.313 HD
ENDBRANCH  23  24
ENDBRANCH   1  23
BRANCH   4  27
HETATM   27  C   UNL     1     -38.259  38.389 -58.501  1.00  0.00     0.256 C 
HETATM   28  O   UNL     1     -38.176  37.185 -58.284  1.00  0.00    -0.267 OA
HETATM   29  N   UNL     1     -38.889  38.974 -59.583  1.00  0.00    -0.320 N 
HETATM   30  H   UNL     1     -38.793  39.975 -59.715  1.00  0.00     0.169 HD
BRANCH  29  31
HETATM   31  C   UNL     1     -39.624  38.316 -60.599  1.00  0.00     0.076 A 
HETATM   32  C   UNL     1     -40.913  37.815 -60.441  1.00  0.00     0.052 A 
HETATM   33  C   UNL     1     -41.523  37.197 -61.526  1.00  0.00     0.118 A 
HETATM   34  N   UNL     1     -40.945  37.052 -62.740  1.00  0.00    -0.270 NA
HETATM   35  C   UNL     1     -39.695  37.551 -62.872  1.00  0.00     0.160 A 
HETATM   36  C   UNL     1     -39.012  38.178 -61.845  1.00  0.00     0.160 A 
HETATM   37  F   UNL     1     -37.774  38.654 -62.048  1.00  0.00    -0.202 F 
ENDBRANCH  29  31
ENDBRANCH   4  27
TORSDOF 7
ENDMDL
