MODEL 1
REMARK VINA RESULT:      -8.6      0.000      0.000
REMARK  5 active torsions:
REMARK  status: ('A' for Active; 'I' for Inactive)
REMARK    1  A    between atoms: C_7  and  C_8 
REMARK    2  A    between atoms: N_9  and  C_10 
REMARK    3  A    between atoms: C_10  and  C_11 
REMARK       I    between atoms: C_11  and  N_12 
REMARK    4  A    between atoms: N_12  and  C_13 
REMARK    5  A    between atoms: C_13  and  C_14 
ROOT
HETATM    1  C   UNL     1     -43.840  56.454 -53.605  1.00  0.00     0.158 C 
HETATM    2  N   UNL     1     -43.148  55.181 -53.498  1.00  0.00    -0.326 N 
HETATM    3  C   UNL     1     -42.838  54.681 -54.754  1.00  0.00     0.255 C 
HETATM    4  O   UNL     1     -42.426  53.569 -55.028  1.00  0.00    -0.267 OA
HETATM    5  C   UNL     1     -43.119  55.739 -55.733  1.00  0.00     0.040 A 
HETATM    6  C   UNL     1     -43.701  56.809 -55.055  1.00  0.00    -0.015 A 
HETATM    7  C   UNL     1     -42.908  55.740 -57.098  1.00  0.00     0.017 A 
HETATM    8  C   UNL     1     -43.302  56.878 -57.806  1.00  0.00     0.001 A 
HETATM    9  C   UNL     1     -43.897  57.965 -57.140  1.00  0.00     0.001 A 
HETATM   10  C   UNL     1     -44.106  57.935 -55.757  1.00  0.00     0.011 A 
ENDROOT
BRANCH   1  11
HETATM   11  C   UNL     1     -43.216  57.550 -52.798  1.00  0.00     0.004 A 
HETATM   12  C   UNL     1     -41.847  57.817 -52.721  1.00  0.00     0.017 A 
HETATM   13  C   UNL     1     -40.704  57.149 -53.410  1.00  0.00     0.069 C 
HETATM   14  N   UNL     1     -41.666  58.848 -51.826  1.00  0.00    -0.354 N 
HETATM   15  C   UNL     1     -40.388  59.387 -51.405  1.00  0.00     0.156 C 
HETATM   16  C   UNL     1     -42.883  59.312 -51.370  1.00  0.00     0.045 A 
HETATM   17  C   UNL     1     -43.871  58.517 -51.954  1.00  0.00     0.001 A 
HETATM   18  C   UNL     1     -43.191  60.363 -50.488  1.00  0.00     0.030 A 
HETATM   19  C   UNL     1     -45.219  58.786 -51.627  1.00  0.00     0.014 A 
HETATM   20  C   UNL     1     -45.536  59.828 -50.750  1.00  0.00     0.001 A 
HETATM   21  C   UNL     1     -44.533  60.606 -50.189  1.00  0.00     0.002 A 
ENDBRANCH   1  11
BRANCH   2  22
HETATM   22  C   UNL     1     -43.358  54.325 -52.339  1.00  0.00     0.229 C 
BRANCH  22  23
HETATM   23  C   UNL     1     -42.113  53.986 -51.508  1.00  0.00     0.235 C 
HETATM   24  N   UNL     1     -41.063  53.427 -52.200  1.00  0.00    -0.357 N 
HETATM   25  H   UNL     1     -41.221  53.162 -53.175  1.00  0.00     0.162 HD
HETATM   26  O   UNL     1     -42.125  54.057 -50.278  1.00  0.00    -0.272 OA
BRANCH  24  27
HETATM   27  C   UNL     1     -39.915  52.858 -51.518  1.00  0.00     0.154 C 
BRANCH  27  28
HETATM   28  C   UNL     1     -39.320  51.649 -52.252  1.00  0.00     0.139 C 
HETATM   29  O   UNL     1     -39.716  50.418 -51.616  1.00  0.00    -0.384 OA
HETATM   30  C   UNL     1     -39.558  49.397 -52.605  1.00  0.00     0.168 C 
HETATM   31  C   UNL     1     -39.956  50.032 -53.919  1.00  0.00     0.029 C 
HETATM   32  C   UNL     1     -39.809  51.523 -53.689  1.00  0.00     0.035 C 
ENDBRANCH  27  28
ENDBRANCH  24  27
ENDBRANCH  22  23
ENDBRANCH   2  22
TORSDOF 5
ENDMDL
MODEL 2
REMARK VINA RESULT:      -8.5      2.014      3.205
REMARK  5 active torsions:
REMARK  status: ('A' for Active; 'I' for Inactive)
REMARK    1  A    between atoms: C_7  and  C_8 
REMARK    2  A    between atoms: N_9  and  C_10 
REMARK    3  A    between atoms: C_10  and  C_11 
REMARK       I    between atoms: C_11  and  N_12 
REMARK    4  A    between atoms: N_12  and  C_13 
REMARK    5  A    between atoms: C_13  and  C_14 
ROOT
HETATM    1  C   UNL     1     -43.535  55.689 -53.818  1.00  0.00     0.158 C 
HETATM    2  N   UNL     1     -42.813  55.094 -54.930  1.00  0.00    -0.326 N 
HETATM    3  C   UNL     1     -43.051  55.794 -56.104  1.00  0.00     0.255 C 
HETATM    4  O   UNL     1     -42.752  55.464 -57.236  1.00  0.00    -0.267 OA
HETATM    5  C   UNL     1     -43.767  57.025 -55.746  1.00  0.00     0.040 A 
HETATM    6  C   UNL     1     -44.045  56.982 -54.381  1.00  0.00    -0.015 A 
HETATM    7  C   UNL     1     -44.161  58.070 -56.560  1.00  0.00     0.017 A 
HETATM    8  C   UNL     1     -44.866  59.116 -55.962  1.00  0.00     0.001 A 
HETATM    9  C   UNL     1     -45.162  59.087 -54.587  1.00  0.00     0.001 A 
HETATM   10  C   UNL     1     -44.756  58.013 -53.787  1.00  0.00     0.011 A 
ENDROOT
BRANCH   1  11
HETATM   11  C   UNL     1     -42.669  56.007 -52.637  1.00  0.00     0.004 A 
HETATM   12  C   UNL     1     -42.649  55.295 -51.436  1.00  0.00     0.017 A 
HETATM   13  C   UNL     1     -43.407  54.074 -51.036  1.00  0.00     0.069 C 
HETATM   14  N   UNL     1     -41.783  55.937 -50.578  1.00  0.00    -0.354 N 
HETATM   15  C   UNL     1     -41.524  55.562 -49.202  1.00  0.00     0.156 C 
HETATM   16  C   UNL     1     -41.181  57.006 -51.209  1.00  0.00     0.045 A 
HETATM   17  C   UNL     1     -41.720  57.081 -52.495  1.00  0.00     0.001 A 
HETATM   18  C   UNL     1     -40.212  57.915 -50.749  1.00  0.00     0.030 A 
HETATM   19  C   UNL     1     -41.270  58.117 -53.344  1.00  0.00     0.014 A 
HETATM   20  C   UNL     1     -40.308  59.028 -52.896  1.00  0.00     0.001 A 
HETATM   21  C   UNL     1     -39.786  58.926 -51.613  1.00  0.00     0.002 A 
ENDBRANCH   1  11
BRANCH   2  22
HETATM   22  C   UNL     1     -42.471  53.679 -54.912  1.00  0.00     0.229 C 
BRANCH  22  23
HETATM   23  C   UNL     1     -40.990  53.338 -54.700  1.00  0.00     0.235 C 
HETATM   24  N   UNL     1     -40.732  52.114 -54.127  1.00  0.00    -0.357 N 
HETATM   25  H   UNL     1     -41.525  51.576 -53.772  1.00  0.00     0.162 HD
HETATM   26  O   UNL     1     -40.107  54.180 -54.876  1.00  0.00    -0.272 OA
BRANCH  24  27
HETATM   27  C   UNL     1     -39.403  51.750 -53.669  1.00  0.00     0.154 C 
BRANCH  27  28
HETATM   28  C   UNL     1     -39.281  51.731 -52.139  1.00  0.00     0.139 C 
HETATM   29  O   UNL     1     -40.276  52.581 -51.536  1.00  0.00    -0.384 OA
HETATM   30  C   UNL     1     -40.415  52.125 -50.187  1.00  0.00     0.168 C 
HETATM   31  C   UNL     1     -40.267  50.620 -50.243  1.00  0.00     0.029 C 
HETATM   32  C   UNL     1     -39.525  50.353 -51.538  1.00  0.00     0.035 C 
ENDBRANCH  27  28
ENDBRANCH  24  27
ENDBRANCH  22  23
ENDBRANCH   2  22
TORSDOF 5
ENDMDL
MODEL 3
REMARK VINA RESULT:      -8.4      0.920      2.317
REMARK  5 active torsions:
REMARK  status: ('A' for Active; 'I' for Inactive)
REMARK    1  A    between atoms: C_7  and  C_8 
REMARK    2  A    between atoms: N_9  and  C_10 
REMARK    3  A    between atoms: C_10  and  C_11 
REMARK       I    between atoms: C_11  and  N_12 
REMARK    4  A    between atoms: N_12  and  C_13 
REMARK    5  A    between atoms: C_13  and  C_14 
ROOT
HETATM    1  C   UNL     1     -44.111  56.842 -52.884  1.00  0.00     0.158 C 
HETATM    2  N   UNL     1     -43.236  55.682 -52.866  1.00  0.00    -0.326 N 
HETATM    3  C   UNL     1     -42.861  55.327 -54.154  1.00  0.00     0.255 C 
HETATM    4  O   UNL     1     -42.289  54.312 -54.506  1.00  0.00    -0.267 OA
HETATM    5  C   UNL     1     -43.302  56.400 -55.054  1.00  0.00     0.040 A 
HETATM    6  C   UNL     1     -44.033  57.319 -54.303  1.00  0.00    -0.015 A 
HETATM    7  C   UNL     1     -43.099  56.534 -56.414  1.00  0.00     0.017 A 
HETATM    8  C   UNL     1     -43.663  57.648 -57.039  1.00  0.00     0.001 A 
HETATM    9  C   UNL     1     -44.410  58.583 -56.299  1.00  0.00     0.001 A 
HETATM   10  C   UNL     1     -44.605  58.420 -54.923  1.00  0.00     0.011 A 
ENDROOT
BRANCH   1  11
HETATM   11  C   UNL     1     -43.652  57.957 -51.994  1.00  0.00     0.004 A 
HETATM   12  C   UNL     1     -44.490  58.839 -51.308  1.00  0.00     0.017 A 
HETATM   13  C   UNL     1     -45.981  58.886 -51.245  1.00  0.00     0.069 C 
HETATM   14  N   UNL     1     -43.697  59.761 -50.662  1.00  0.00    -0.354 N 
HETATM   15  C   UNL     1     -44.173  60.892 -49.891  1.00  0.00     0.156 C 
HETATM   16  C   UNL     1     -42.362  59.464 -50.846  1.00  0.00     0.045 A 
HETATM   17  C   UNL     1     -42.301  58.345 -51.680  1.00  0.00     0.001 A 
HETATM   18  C   UNL     1     -41.206  60.092 -50.350  1.00  0.00     0.030 A 
HETATM   19  C   UNL     1     -41.026  57.850 -52.035  1.00  0.00     0.014 A 
HETATM   20  C   UNL     1     -39.870  58.469 -51.548  1.00  0.00     0.001 A 
HETATM   21  C   UNL     1     -39.961  59.577 -50.716  1.00  0.00     0.002 A 
ENDBRANCH   1  11
BRANCH   2  22
HETATM   22  C   UNL     1     -43.310  54.721 -51.774  1.00  0.00     0.229 C 
BRANCH  22  23
HETATM   23  C   UNL     1     -41.978  54.332 -51.119  1.00  0.00     0.235 C 
HETATM   24  N   UNL     1     -41.208  53.427 -51.815  1.00  0.00    -0.357 N 
HETATM   25  H   UNL     1     -41.619  52.987 -52.640  1.00  0.00     0.162 HD
HETATM   26  O   UNL     1     -41.704  54.679 -49.968  1.00  0.00    -0.272 OA
BRANCH  24  27
HETATM   27  C   UNL     1     -40.038  52.805 -51.222  1.00  0.00     0.154 C 
BRANCH  27  28
HETATM   28  C   UNL     1     -39.401  51.742 -52.128  1.00  0.00     0.139 C 
HETATM   29  O   UNL     1     -39.778  50.417 -51.708  1.00  0.00    -0.384 OA
HETATM   30  C   UNL     1     -39.578  49.573 -52.845  1.00  0.00     0.168 C 
HETATM   31  C   UNL     1     -39.968  50.403 -54.048  1.00  0.00     0.029 C 
HETATM   32  C   UNL     1     -39.861  51.841 -53.577  1.00  0.00     0.035 C 
ENDBRANCH  27  28
ENDBRANCH  24  27
ENDBRANCH  22  23
ENDBRANCH   2  22
TORSDOF 5
ENDMDL
MODEL 4
REMARK VINA RESULT:      -8.0      3.187      6.603
REMARK  5 active torsions:
REMARK  status: ('A' for Active; 'I' for Inactive)
REMARK    1  A    between atoms: C_7  and  C_8 
REMARK    2  A    between atoms: N_9  and  C_10 
REMARK    3  A    between atoms: C_10  and  C_11 
REMARK       I    between atoms: C_11  and  N_12 
REMARK    4  A    between atoms: N_12  and  C_13 
REMARK    5  A    between atoms: C_13  and  C_14 
ROOT
HETATM    1  C   UNL     1     -42.476  56.918 -57.571  1.00  0.00     0.158 C 
HETATM    2  N   UNL     1     -42.789  58.318 -57.803  1.00  0.00    -0.326 N 
HETATM    3  C   UNL     1     -43.654  58.459 -58.878  1.00  0.00     0.255 C 
HETATM    4  O   UNL     1     -43.969  59.488 -59.445  1.00  0.00    -0.267 OA
HETATM    5  C   UNL     1     -44.123  57.117 -59.247  1.00  0.00     0.040 A 
HETATM    6  C   UNL     1     -43.440  56.190 -58.460  1.00  0.00    -0.015 A 
HETATM    7  C   UNL     1     -45.045  56.751 -60.208  1.00  0.00     0.017 A 
HETATM    8  C   UNL     1     -45.285  55.386 -60.378  1.00  0.00     0.001 A 
HETATM    9  C   UNL     1     -44.601  54.436 -59.598  1.00  0.00     0.001 A 
HETATM   10  C   UNL     1     -43.667  54.833 -58.636  1.00  0.00     0.011 A 
ENDROOT
BRANCH   1  11
HETATM   11  C   UNL     1     -42.718  56.471 -56.162  1.00  0.00     0.004 A 
HETATM   12  C   UNL     1     -43.744  56.931 -55.334  1.00  0.00     0.017 A 
HETATM   13  C   UNL     1     -44.837  57.906 -55.619  1.00  0.00     0.069 C 
HETATM   14  N   UNL     1     -43.588  56.341 -54.099  1.00  0.00    -0.354 N 
HETATM   15  C   UNL     1     -44.404  56.602 -52.929  1.00  0.00     0.156 C 
HETATM   16  C   UNL     1     -42.534  55.452 -54.117  1.00  0.00     0.045 A 
HETATM   17  C   UNL     1     -41.965  55.515 -55.391  1.00  0.00     0.001 A 
HETATM   18  C   UNL     1     -42.033  54.603 -53.114  1.00  0.00     0.030 A 
HETATM   19  C   UNL     1     -40.843  54.698 -55.658  1.00  0.00     0.014 A 
HETATM   20  C   UNL     1     -40.336  53.852 -54.667  1.00  0.00     0.001 A 
HETATM   21  C   UNL     1     -40.925  53.806 -53.411  1.00  0.00     0.002 A 
ENDBRANCH   1  11
BRANCH   2  22
HETATM   22  C   UNL     1     -41.848  59.357 -57.407  1.00  0.00     0.229 C 
BRANCH  22  23
HETATM   23  C   UNL     1     -42.220  60.173 -56.162  1.00  0.00     0.235 C 
HETATM   24  N   UNL     1     -41.702  59.720 -54.971  1.00  0.00    -0.357 N 
HETATM   25  H   UNL     1     -41.219  58.820 -54.972  1.00  0.00     0.162 HD
HETATM   26  O   UNL     1     -43.063  61.071 -56.212  1.00  0.00    -0.272 OA
BRANCH  24  27
HETATM   27  C   UNL     1     -42.140  60.256 -53.694  1.00  0.00     0.154 C 
BRANCH  27  28
HETATM   28  C   UNL     1     -41.634  59.439 -52.497  1.00  0.00     0.139 C 
HETATM   29  O   UNL     1     -40.194  59.398 -52.476  1.00  0.00    -0.384 OA
HETATM   30  C   UNL     1     -39.830  59.081 -51.130  1.00  0.00     0.168 C 
HETATM   31  C   UNL     1     -40.836  59.794 -50.253  1.00  0.00     0.029 C 
HETATM   32  C   UNL     1     -42.029  60.042 -51.154  1.00  0.00     0.035 C 
ENDBRANCH  27  28
ENDBRANCH  24  27
ENDBRANCH  22  23
ENDBRANCH   2  22
TORSDOF 5
ENDMDL
MODEL 5
REMARK VINA RESULT:      -8.0      1.984      6.049
REMARK  5 active torsions:
REMARK  status: ('A' for Active; 'I' for Inactive)
REMARK    1  A    between atoms: C_7  and  C_8 
REMARK    2  A    between atoms: N_9  and  C_10 
REMARK    3  A    between atoms: C_10  and  C_11 
REMARK       I    between atoms: C_11  and  N_12 
REMARK    4  A    between atoms: N_12  and  C_13 
REMARK    5  A    between atoms: C_13  and  C_14 
ROOT
HETATM    1  C   UNL     1     -40.548  55.487 -52.188  1.00  0.00     0.158 C 
HETATM    2  N   UNL     1     -40.852  54.655 -53.341  1.00  0.00    -0.326 N 
HETATM    3  C   UNL     1     -40.769  53.310 -53.014  1.00  0.00     0.255 C 
HETATM    4  O   UNL     1     -40.786  52.360 -53.775  1.00  0.00    -0.267 OA
HETATM    5  C   UNL     1     -40.630  53.217 -51.555  1.00  0.00     0.040 A 
HETATM    6  C   UNL     1     -40.515  54.512 -51.050  1.00  0.00    -0.015 A 
HETATM    7  C   UNL     1     -40.579  52.092 -50.755  1.00  0.00     0.017 A 
HETATM    8  C   UNL     1     -40.406  52.289 -49.384  1.00  0.00     0.001 A 
HETATM    9  C   UNL     1     -40.281  53.587 -48.857  1.00  0.00     0.001 A 
HETATM   10  C   UNL     1     -40.330  54.710 -49.690  1.00  0.00     0.011 A 
ENDROOT
BRANCH   1  11
HETATM   11  C   UNL     1     -41.598  56.512 -51.890  1.00  0.00     0.004 A 
HETATM   12  C   UNL     1     -42.971  56.339 -52.076  1.00  0.00     0.017 A 
HETATM   13  C   UNL     1     -43.727  55.145 -52.557  1.00  0.00     0.069 C 
HETATM   14  N   UNL     1     -43.595  57.526 -51.760  1.00  0.00    -0.354 N 
HETATM   15  C   UNL     1     -45.014  57.793 -51.882  1.00  0.00     0.156 C 
HETATM   16  C   UNL     1     -42.676  58.447 -51.302  1.00  0.00     0.045 A 
HETATM   17  C   UNL     1     -41.418  57.846 -51.378  1.00  0.00     0.001 A 
HETATM   18  C   UNL     1     -42.852  59.762 -50.833  1.00  0.00     0.030 A 
HETATM   19  C   UNL     1     -40.295  58.604 -50.975  1.00  0.00     0.014 A 
HETATM   20  C   UNL     1     -40.458  59.912 -50.509  1.00  0.00     0.001 A 
HETATM   21  C   UNL     1     -41.722  60.482 -50.439  1.00  0.00     0.002 A 
ENDBRANCH   1  11
BRANCH   2  22
HETATM   22  C   UNL     1     -40.620  55.154 -54.689  1.00  0.00     0.229 C 
BRANCH  22  23
HETATM   23  C   UNL     1     -41.866  55.366 -55.560  1.00  0.00     0.235 C 
HETATM   24  N   UNL     1     -42.199  56.676 -55.822  1.00  0.00    -0.357 N 
HETATM   25  H   UNL     1     -41.683  57.407 -55.329  1.00  0.00     0.162 HD
HETATM   26  O   UNL     1     -42.608  54.428 -55.857  1.00  0.00    -0.272 OA
BRANCH  24  27
HETATM   27  C   UNL     1     -43.462  57.034 -56.442  1.00  0.00     0.154 C 
BRANCH  27  28
HETATM   28  C   UNL     1     -43.322  57.384 -57.930  1.00  0.00     0.139 C 
HETATM   29  O   UNL     1     -42.030  57.961 -58.200  1.00  0.00    -0.384 OA
HETATM   30  C   UNL     1     -41.807  57.785 -59.602  1.00  0.00     0.168 C 
HETATM   31  C   UNL     1     -42.409  56.440 -59.948  1.00  0.00     0.029 C 
HETATM   32  C   UNL     1     -43.406  56.165 -58.840  1.00  0.00     0.035 C 
ENDBRANCH  27  28
ENDBRANCH  24  27
ENDBRANCH  22  23
ENDBRANCH   2  22
TORSDOF 5
ENDMDL
MODEL 6
REMARK VINA RESULT:      -8.0      1.707      3.979
REMARK  5 active torsions:
REMARK  status: ('A' for Active; 'I' for Inactive)
REMARK    1  A    between atoms: C_7  and  C_8 
REMARK    2  A    between atoms: N_9  and  C_10 
REMARK    3  A    between atoms: C_10  and  C_11 
REMARK       I    between atoms: C_11  and  N_12 
REMARK    4  A    between atoms: N_12  and  C_13 
REMARK    5  A    between atoms: C_13  and  C_14 
ROOT
HETATM    1  C   UNL     1     -42.197  56.882 -53.737  1.00  0.00     0.158 C 
HETATM    2  N   UNL     1     -42.925  55.947 -52.895  1.00  0.00    -0.326 N 
HETATM    3  C   UNL     1     -42.444  55.977 -51.595  1.00  0.00     0.255 C 
HETATM    4  O   UNL     1     -42.704  55.204 -50.691  1.00  0.00    -0.267 OA
HETATM    5  C   UNL     1     -41.524  57.116 -51.490  1.00  0.00     0.040 A 
HETATM    6  C   UNL     1     -41.383  57.675 -52.759  1.00  0.00    -0.015 A 
HETATM    7  C   UNL     1     -40.852  57.594 -50.381  1.00  0.00     0.017 A 
HETATM    8  C   UNL     1     -40.002  58.685 -50.568  1.00  0.00     0.001 A 
HETATM    9  C   UNL     1     -39.842  59.258 -51.843  1.00  0.00     0.001 A 
HETATM   10  C   UNL     1     -40.529  58.751 -52.951  1.00  0.00     0.011 A 
ENDROOT
BRANCH   1  11
HETATM   11  C   UNL     1     -43.079  57.834 -54.486  1.00  0.00     0.004 A 
HETATM   12  C   UNL     1     -43.150  57.945 -55.876  1.00  0.00     0.017 A 
HETATM   13  C   UNL     1     -42.439  57.169 -56.934  1.00  0.00     0.069 C 
HETATM   14  N   UNL     1     -44.015  58.975 -56.174  1.00  0.00    -0.354 N 
HETATM   15  C   UNL     1     -44.316  59.466 -57.505  1.00  0.00     0.156 C 
HETATM   16  C   UNL     1     -44.568  59.492 -55.021  1.00  0.00     0.045 A 
HETATM   17  C   UNL     1     -43.997  58.804 -53.948  1.00  0.00     0.001 A 
HETATM   18  C   UNL     1     -45.518  60.512 -54.838  1.00  0.00     0.030 A 
HETATM   19  C   UNL     1     -44.395  59.166 -52.641  1.00  0.00     0.014 A 
HETATM   20  C   UNL     1     -45.338  60.181 -52.447  1.00  0.00     0.001 A 
HETATM   21  C   UNL     1     -45.892  60.844 -53.534  1.00  0.00     0.002 A 
ENDBRANCH   1  11
BRANCH   2  22
HETATM   22  C   UNL     1     -43.552  54.768 -53.477  1.00  0.00     0.229 C 
BRANCH  22  23
HETATM   23  C   UNL     1     -42.673  53.916 -54.403  1.00  0.00     0.235 C 
HETATM   24  N   UNL     1     -41.601  53.294 -53.807  1.00  0.00    -0.357 N 
HETATM   25  H   UNL     1     -41.388  53.533 -52.836  1.00  0.00     0.162 HD
HETATM   26  O   UNL     1     -42.828  53.932 -55.626  1.00  0.00    -0.272 OA
BRANCH  24  27
HETATM   27  C   UNL     1     -40.566  52.640 -54.588  1.00  0.00     0.154 C 
BRANCH  27  28
HETATM   28  C   UNL     1     -39.657  51.738 -53.742  1.00  0.00     0.139 C 
HETATM   29  O   UNL     1     -39.976  51.858 -52.342  1.00  0.00    -0.384 OA
HETATM   30  C   UNL     1     -39.467  50.673 -51.722  1.00  0.00     0.168 C 
HETATM   31  C   UNL     1     -39.689  49.558 -52.720  1.00  0.00     0.029 C 
HETATM   32  C   UNL     1     -39.824  50.257 -54.058  1.00  0.00     0.035 C 
ENDBRANCH  27  28
ENDBRANCH  24  27
ENDBRANCH  22  23
ENDBRANCH   2  22
TORSDOF 5
ENDMDL
MODEL 7
REMARK VINA RESULT:      -8.0      2.121      4.436
REMARK  5 active torsions:
REMARK  status: ('A' for Active; 'I' for Inactive)
REMARK    1  A    between atoms: C_7  and  C_8 
REMARK    2  A    between atoms: N_9  and  C_10 
REMARK    3  A    between atoms: C_10  and  C_11 
REMARK       I    between atoms: C_11  and  N_12 
REMARK    4  A    between atoms: N_12  and  C_13 
REMARK    5  A    between atoms: C_13  and  C_14 
ROOT
HETATM    1  C   UNL     1     -44.682  57.410 -52.200  1.00  0.00     0.158 C 
HETATM    2  N   UNL     1     -44.519  57.586 -53.633  1.00  0.00    -0.326 N 
HETATM    3  C   UNL     1     -45.070  58.790 -54.047  1.00  0.00     0.255 C 
HETATM    4  O   UNL     1     -45.263  59.162 -55.190  1.00  0.00    -0.267 OA
HETATM    5  C   UNL     1     -45.414  59.557 -52.843  1.00  0.00     0.040 A 
HETATM    6  C   UNL     1     -45.169  58.749 -51.734  1.00  0.00    -0.015 A 
HETATM    7  C   UNL     1     -45.923  60.837 -52.742  1.00  0.00     0.017 A 
HETATM    8  C   UNL     1     -46.195  61.319 -51.460  1.00  0.00     0.001 A 
HETATM    9  C   UNL     1     -45.961  60.515 -50.329  1.00  0.00     0.001 A 
HETATM   10  C   UNL     1     -45.450  59.220 -50.460  1.00  0.00     0.011 A 
ENDROOT
BRANCH   1  11
HETATM   11  C   UNL     1     -43.404  57.105 -51.480  1.00  0.00     0.004 A 
HETATM   12  C   UNL     1     -43.145  55.940 -50.755  1.00  0.00     0.017 A 
HETATM   13  C   UNL     1     -44.001  54.736 -50.543  1.00  0.00     0.069 C 
HETATM   14  N   UNL     1     -41.897  56.066 -50.184  1.00  0.00    -0.354 N 
HETATM   15  C   UNL     1     -41.275  55.106 -49.294  1.00  0.00     0.156 C 
HETATM   16  C   UNL     1     -41.304  57.248 -50.575  1.00  0.00     0.045 A 
HETATM   17  C   UNL     1     -42.224  57.923 -51.380  1.00  0.00     0.001 A 
HETATM   18  C   UNL     1     -40.035  57.778 -50.280  1.00  0.00     0.030 A 
HETATM   19  C   UNL     1     -41.852  59.184 -51.898  1.00  0.00     0.014 A 
HETATM   20  C   UNL     1     -40.594  59.722 -51.609  1.00  0.00     0.001 A 
HETATM   21  C   UNL     1     -39.697  59.025 -50.810  1.00  0.00     0.002 A 
ENDBRANCH   1  11
BRANCH   2  22
HETATM   22  C   UNL     1     -44.407  56.429 -54.509  1.00  0.00     0.229 C 
BRANCH  22  23
HETATM   23  C   UNL     1     -42.983  55.963 -54.842  1.00  0.00     0.235 C 
HETATM   24  N   UNL     1     -42.803  54.601 -54.930  1.00  0.00    -0.357 N 
HETATM   25  H   UNL     1     -43.578  53.998 -54.650  1.00  0.00     0.162 HD
HETATM   26  O   UNL     1     -42.038  56.753 -54.861  1.00  0.00    -0.272 OA
BRANCH  24  27
HETATM   27  C   UNL     1     -41.479  54.010 -55.020  1.00  0.00     0.154 C 
BRANCH  27  28
HETATM   28  C   UNL     1     -41.256  52.882 -54.004  1.00  0.00     0.139 C 
HETATM   29  O   UNL     1     -40.138  52.059 -54.390  1.00  0.00    -0.384 OA
HETATM   30  C   UNL     1     -39.709  51.396 -53.197  1.00  0.00     0.168 C 
HETATM   31  C   UNL     1     -39.889  52.402 -52.081  1.00  0.00     0.029 C 
HETATM   32  C   UNL     1     -40.906  53.392 -52.613  1.00  0.00     0.035 C 
ENDBRANCH  27  28
ENDBRANCH  24  27
ENDBRANCH  22  23
ENDBRANCH   2  22
TORSDOF 5
ENDMDL
MODEL 8
REMARK VINA RESULT:      -8.0      1.962      3.129
REMARK  5 active torsions:
REMARK  status: ('A' for Active; 'I' for Inactive)
REMARK    1  A    between atoms: C_7  and  C_8 
REMARK    2  A    between atoms: N_9  and  C_10 
REMARK    3  A    between atoms: C_10  and  C_11 
REMARK       I    between atoms: C_11  and  N_12 
REMARK    4  A    between atoms: N_12  and  C_13 
REMARK    5  A    between atoms: C_13  and  C_14 
ROOT
HETATM    1  C   UNL     1     -43.458  56.818 -54.366  1.00  0.00     0.158 C 
HETATM    2  N   UNL     1     -42.716  56.505 -55.575  1.00  0.00    -0.326 N 
HETATM    3  C   UNL     1     -43.073  57.358 -56.609  1.00  0.00     0.255 C 
HETATM    4  O   UNL     1     -42.781  57.259 -57.786  1.00  0.00    -0.267 OA
HETATM    5  C   UNL     1     -43.909  58.421 -56.035  1.00  0.00     0.040 A 
HETATM    6  C   UNL     1     -44.129  58.118 -54.692  1.00  0.00    -0.015 A 
HETATM    7  C   UNL     1     -44.447  59.534 -56.652  1.00  0.00     0.017 A 
HETATM    8  C   UNL     1     -45.241  60.377 -55.873  1.00  0.00     0.001 A 
HETATM    9  C   UNL     1     -45.481  60.084 -54.518  1.00  0.00     0.001 A 
HETATM   10  C   UNL     1     -44.930  58.946 -53.919  1.00  0.00     0.011 A 
ENDROOT
BRANCH   1  11
HETATM   11  C   UNL     1     -42.591  57.033 -53.164  1.00  0.00     0.004 A 
HETATM   12  C   UNL     1     -41.676  58.076 -53.005  1.00  0.00     0.017 A 
HETATM   13  C   UNL     1     -41.359  59.215 -53.916  1.00  0.00     0.069 C 
HETATM   14  N   UNL     1     -41.024  57.889 -51.806  1.00  0.00    -0.354 N 
HETATM   15  C   UNL     1     -39.947  58.712 -51.293  1.00  0.00     0.156 C 
HETATM   16  C   UNL     1     -41.537  56.794 -51.142  1.00  0.00     0.045 A 
HETATM   17  C   UNL     1     -42.514  56.233 -51.969  1.00  0.00     0.001 A 
HETATM   18  C   UNL     1     -41.217  56.250 -49.886  1.00  0.00     0.030 A 
HETATM   19  C   UNL     1     -43.184  55.075 -51.513  1.00  0.00     0.014 A 
HETATM   20  C   UNL     1     -42.871  54.526 -50.266  1.00  0.00     0.001 A 
HETATM   21  C   UNL     1     -41.899  55.108 -49.463  1.00  0.00     0.002 A 
ENDBRANCH   1  11
BRANCH   2  22
HETATM   22  C   UNL     1     -42.218  55.156 -55.804  1.00  0.00     0.229 C 
BRANCH  22  23
HETATM   23  C   UNL     1     -41.067  54.692 -54.900  1.00  0.00     0.235 C 
HETATM   24  N   UNL     1     -41.347  53.632 -54.069  1.00  0.00    -0.357 N 
HETATM   25  H   UNL     1     -42.316  53.311 -54.015  1.00  0.00     0.162 HD
HETATM   26  O   UNL     1     -40.022  55.339 -54.811  1.00  0.00    -0.272 OA
BRANCH  24  27
HETATM   27  C   UNL     1     -40.437  53.229 -53.012  1.00  0.00     0.154 C 
BRANCH  27  28
HETATM   28  C   UNL     1     -39.686  51.928 -53.332  1.00  0.00     0.139 C 
HETATM   29  O   UNL     1     -39.775  51.002 -52.232  1.00  0.00    -0.384 OA
HETATM   30  C   UNL     1     -39.511  49.710 -52.785  1.00  0.00     0.168 C 
HETATM   31  C   UNL     1     -40.144  49.714 -54.160  1.00  0.00     0.029 C 
HETATM   32  C   UNL     1     -40.271  51.180 -54.523  1.00  0.00     0.035 C 
ENDBRANCH  27  28
ENDBRANCH  24  27
ENDBRANCH  22  23
ENDBRANCH   2  22
TORSDOF 5
ENDMDL
MODEL 9
REMARK VINA RESULT:      -7.9      2.154      4.410
REMARK  5 active torsions:
REMARK  status: ('A' for Active; 'I' for Inactive)
REMARK    1  A    between atoms: C_7  and  C_8 
REMARK    2  A    between atoms: N_9  and  C_10 
REMARK    3  A    between atoms: C_10  and  C_11 
REMARK       I    between atoms: C_11  and  N_12 
REMARK    4  A    between atoms: N_12  and  C_13 
REMARK    5  A    between atoms: C_13  and  C_14 
ROOT
HETATM    1  C   UNL     1     -44.489  57.821 -52.565  1.00  0.00     0.158 C 
HETATM    2  N   UNL     1     -44.374  57.976 -54.006  1.00  0.00    -0.326 N 
HETATM    3  C   UNL     1     -45.085  59.084 -54.441  1.00  0.00     0.255 C 
HETATM    4  O   UNL     1     -45.344  59.393 -55.590  1.00  0.00    -0.267 OA
HETATM    5  C   UNL     1     -45.508  59.833 -53.252  1.00  0.00     0.040 A 
HETATM    6  C   UNL     1     -45.141  59.098 -52.126  1.00  0.00    -0.015 A 
HETATM    7  C   UNL     1     -46.180  61.038 -53.175  1.00  0.00     0.017 A 
HETATM    8  C   UNL     1     -46.492  61.517 -51.901  1.00  0.00     0.001 A 
HETATM    9  C   UNL     1     -46.136  60.785 -50.754  1.00  0.00     0.001 A 
HETATM   10  C   UNL     1     -45.461  59.565 -50.860  1.00  0.00     0.011 A 
ENDROOT
BRANCH   1  11
HETATM   11  C   UNL     1     -43.170  57.708 -51.862  1.00  0.00     0.004 A 
HETATM   12  C   UNL     1     -42.168  58.681 -51.867  1.00  0.00     0.017 A 
HETATM   13  C   UNL     1     -42.150  60.032 -52.501  1.00  0.00     0.069 C 
HETATM   14  N   UNL     1     -41.088  58.178 -51.174  1.00  0.00    -0.354 N 
HETATM   15  C   UNL     1     -39.812  58.843 -51.003  1.00  0.00     0.156 C 
HETATM   16  C   UNL     1     -41.383  56.935 -50.655  1.00  0.00     0.045 A 
HETATM   17  C   UNL     1     -42.675  56.610 -51.074  1.00  0.00     0.001 A 
HETATM   18  C   UNL     1     -40.614  56.069 -49.856  1.00  0.00     0.030 A 
HETATM   19  C   UNL     1     -43.206  55.362 -50.679  1.00  0.00     0.014 A 
HETATM   20  C   UNL     1     -42.450  54.493 -49.886  1.00  0.00     0.001 A 
HETATM   21  C   UNL     1     -41.169  54.845 -49.480  1.00  0.00     0.002 A 
ENDBRANCH   1  11
BRANCH   2  22
HETATM   22  C   UNL     1     -44.123  56.818 -54.852  1.00  0.00     0.229 C 
BRANCH  22  23
HETATM   23  C   UNL     1     -42.672  56.321 -54.914  1.00  0.00     0.235 C 
HETATM   24  N   UNL     1     -42.431  55.098 -54.331  1.00  0.00    -0.357 N 
HETATM   25  H   UNL     1     -43.188  54.667 -53.796  1.00  0.00     0.162 HD
HETATM   26  O   UNL     1     -41.761  57.050 -55.311  1.00  0.00    -0.272 OA
BRANCH  24  27
HETATM   27  C   UNL     1     -41.082  54.604 -54.121  1.00  0.00     0.154 C 
BRANCH  27  28
HETATM   28  C   UNL     1     -41.043  53.128 -53.703  1.00  0.00     0.139 C 
HETATM   29  O   UNL     1     -40.325  52.340 -54.672  1.00  0.00    -0.384 OA
HETATM   30  C   UNL     1     -39.916  51.153 -53.987  1.00  0.00     0.168 C 
HETATM   31  C   UNL     1     -39.571  51.588 -52.580  1.00  0.00     0.029 C 
HETATM   32  C   UNL     1     -40.307  52.900 -52.389  1.00  0.00     0.035 C 
ENDBRANCH  27  28
ENDBRANCH  24  27
ENDBRANCH  22  23
ENDBRANCH   2  22
TORSDOF 5
ENDMDL
MODEL 10
REMARK VINA RESULT:      -7.8      1.513      4.316
REMARK  5 active torsions:
REMARK  status: ('A' for Active; 'I' for Inactive)
REMARK    1  A    between atoms: C_7  and  C_8 
REMARK    2  A    between atoms: N_9  and  C_10 
REMARK    3  A    between atoms: C_10  and  C_11 
REMARK       I    between atoms: C_11  and  N_12 
REMARK    4  A    between atoms: N_12  and  C_13 
REMARK    5  A    between atoms: C_13  and  C_14 
ROOT
HETATM    1  C   UNL     1     -42.671  56.905 -53.523  1.00  0.00     0.158 C 
HETATM    2  N   UNL     1     -43.567  56.181 -52.637  1.00  0.00    -0.326 N 
HETATM    3  C   UNL     1     -43.984  56.988 -51.590  1.00  0.00     0.255 C 
HETATM    4  O   UNL     1     -44.586  56.649 -50.587  1.00  0.00    -0.267 OA
HETATM    5  C   UNL     1     -43.548  58.358 -51.887  1.00  0.00     0.040 A 
HETATM    6  C   UNL     1     -42.779  58.324 -53.049  1.00  0.00    -0.015 A 
HETATM    7  C   UNL     1     -43.786  59.521 -51.178  1.00  0.00     0.017 A 
HETATM    8  C   UNL     1     -43.219  60.698 -51.671  1.00  0.00     0.001 A 
HETATM    9  C   UNL     1     -42.434  60.681 -52.838  1.00  0.00     0.001 A 
HETATM   10  C   UNL     1     -42.204  59.489 -53.533  1.00  0.00     0.011 A 
ENDROOT
BRANCH   1  11
HETATM   11  C   UNL     1     -43.082  56.866 -54.963  1.00  0.00     0.004 A 
HETATM   12  C   UNL     1     -42.555  56.006 -55.929  1.00  0.00     0.017 A 
HETATM   13  C   UNL     1     -41.529  54.931 -55.794  1.00  0.00     0.069 C 
HETATM   14  N   UNL     1     -43.133  56.324 -57.138  1.00  0.00    -0.354 N 
HETATM   15  C   UNL     1     -42.812  55.715 -58.414  1.00  0.00     0.156 C 
HETATM   16  C   UNL     1     -44.077  57.317 -56.978  1.00  0.00     0.045 A 
HETATM   17  C   UNL     1     -44.063  57.682 -55.629  1.00  0.00     0.001 A 
HETATM   18  C   UNL     1     -44.935  57.927 -57.910  1.00  0.00     0.030 A 
HETATM   19  C   UNL     1     -44.942  58.706 -55.211  1.00  0.00     0.014 A 
HETATM   20  C   UNL     1     -45.798  59.320 -56.130  1.00  0.00     0.001 A 
HETATM   21  C   UNL     1     -45.794  58.933 -57.464  1.00  0.00     0.002 A 
ENDBRANCH   1  11
BRANCH   2  22
HETATM   22  C   UNL     1     -43.481  54.731 -52.529  1.00  0.00     0.229 C 
BRANCH  22  23
HETATM   23  C   UNL     1     -42.303  54.178 -51.716  1.00  0.00     0.235 C 
HETATM   24  N   UNL     1     -41.299  53.583 -52.445  1.00  0.00    -0.357 N 
HETATM   25  H   UNL     1     -41.455  53.437 -53.444  1.00  0.00     0.162 HD
HETATM   26  O   UNL     1     -42.343  54.123 -50.485  1.00  0.00    -0.272 OA
BRANCH  24  27
HETATM   27  C   UNL     1     -40.236  52.827 -51.805  1.00  0.00     0.154 C 
BRANCH  27  28
HETATM   28  C   UNL     1     -39.604  51.779 -52.733  1.00  0.00     0.139 C 
HETATM   29  O   UNL     1     -39.686  50.464 -52.150  1.00  0.00    -0.384 OA
HETATM   30  C   UNL     1     -39.554  49.545 -53.238  1.00  0.00     0.168 C 
HETATM   31  C   UNL     1     -40.274  50.183 -54.406  1.00  0.00     0.029 C 
HETATM   32  C   UNL     1     -40.319  51.661 -54.073  1.00  0.00     0.035 C 
ENDBRANCH  27  28
ENDBRANCH  24  27
ENDBRANCH  22  23
ENDBRANCH   2  22
TORSDOF 5
ENDMDL
