MODEL 1
REMARK VINA RESULT:      -9.1      0.000      0.000
REMARK  3 active torsions:
REMARK  status: ('A' for Active; 'I' for Inactive)
REMARK    1  A    between atoms: N_1  and  C_2 
REMARK    2  A    between atoms: C_6  and  C_8 
REMARK    3  A    between atoms: C_13  and  C_17 
ROOT
HETATM    1  C   UNL     1     -40.511  53.190 -53.280  1.00  0.00    -0.006 A 
HETATM    2  C   UNL     1     -40.331  54.012 -54.403  1.00  0.00     0.016 A 
HETATM    3  C   UNL     1     -40.680  55.371 -54.388  1.00  0.00     0.034 A 
HETATM    4  C   UNL     1     -41.224  55.939 -53.224  1.00  0.00     0.074 A 
HETATM    5  N   UNL     1     -41.595  57.261 -53.064  1.00  0.00    -0.244 NA
HETATM    6  C   UNL     1     -42.021  57.474 -51.837  1.00  0.00     0.083 A 
HETATM    7  S   UNL     1     -42.110  56.066 -50.847  1.00  0.00    -0.072 SA
HETATM    8  C   UNL     1     -41.421  55.125 -52.112  1.00  0.00     0.036 A 
HETATM    9  C   UNL     1     -41.081  53.760 -52.122  1.00  0.00     0.035 A 
ENDROOT
BRANCH   6  10
HETATM   10  C   UNL     1     -42.479  58.818 -51.306  1.00  0.00     0.074 C 
HETATM   11  C   UNL     1     -41.581  59.971 -51.757  1.00  0.00     0.187 C 
HETATM   12  O   UNL     1     -41.573  60.182 -53.172  1.00  0.00    -0.350 OA
HETATM   13  C   UNL     1     -42.808  60.172 -53.763  1.00  0.00     0.075 A 
HETATM   14  C   UNL     1     -42.860  60.642 -55.075  1.00  0.00     0.037 A 
HETATM   15  C   UNL     1     -43.963  59.692 -53.138  1.00  0.00    -0.024 A 
HETATM   16  C   UNL     1     -44.071  60.660 -55.765  1.00  0.00     0.003 A 
HETATM   17  C   UNL     1     -45.233  60.204 -55.142  1.00  0.00     0.001 A 
HETATM   18  C   UNL     1     -45.180  59.723 -53.833  1.00  0.00     0.010 A 
HETATM   19  C   UNL     1     -43.913  59.156 -51.732  1.00  0.00     0.055 C 
ENDBRANCH   6  10
BRANCH   1  20
HETATM   20  C   UNL     1     -40.121  51.763 -53.288  1.00  0.00     0.071 A 
HETATM   21  C   UNL     1     -40.066  51.007 -54.443  1.00  0.00     0.052 A 
HETATM   22  C   UNL     1     -39.682  49.697 -54.292  1.00  0.00     0.122 A 
HETATM   23  N   UNL     1     -39.369  49.148 -53.107  1.00  0.00    -0.231 NA
HETATM   24  C   UNL     1     -39.426  49.957 -52.048  1.00  0.00     0.199 A 
HETATM   25  N   UNL     1     -39.802  51.237 -52.083  1.00  0.00    -0.218 NA
BRANCH  24  26
HETATM   26  N   UNL     1     -39.121  49.416 -50.817  1.00  0.00    -0.271 NA
HETATM   27  H   UNL     1     -39.573  48.518 -50.724  1.00  0.00     0.127 HD
HETATM   28  H   UNL     1     -39.297  50.101 -50.095  1.00  0.00     0.127 HD
ENDBRANCH  24  26
ENDBRANCH   1  20
TORSDOF 3
ENDMDL
MODEL 2
REMARK VINA RESULT:      -8.8      1.563      2.745
REMARK  3 active torsions:
REMARK  status: ('A' for Active; 'I' for Inactive)
REMARK    1  A    between atoms: N_1  and  C_2 
REMARK    2  A    between atoms: C_6  and  C_8 
REMARK    3  A    between atoms: C_13  and  C_17 
ROOT
HETATM    1  C   UNL     1     -40.622  53.330 -53.039  1.00  0.00    -0.006 A 
HETATM    2  C   UNL     1     -40.643  54.009 -51.810  1.00  0.00     0.016 A 
HETATM    3  C   UNL     1     -41.028  55.355 -51.717  1.00  0.00     0.034 A 
HETATM    4  C   UNL     1     -41.407  56.055 -52.875  1.00  0.00     0.074 A 
HETATM    5  N   UNL     1     -41.822  57.372 -52.926  1.00  0.00    -0.244 NA
HETATM    6  C   UNL     1     -42.150  57.703 -54.158  1.00  0.00     0.083 A 
HETATM    7  S   UNL     1     -41.861  56.481 -55.337  1.00  0.00    -0.072 SA
HETATM    8  C   UNL     1     -41.371  55.392 -54.099  1.00  0.00     0.036 A 
HETATM    9  C   UNL     1     -40.979  54.045 -54.201  1.00  0.00     0.035 A 
ENDROOT
BRANCH   6  10
HETATM   10  C   UNL     1     -42.677  59.063 -54.572  1.00  0.00     0.074 C 
HETATM   11  C   UNL     1     -44.182  59.058 -54.845  1.00  0.00     0.187 C 
HETATM   12  O   UNL     1     -44.979  58.753 -53.696  1.00  0.00    -0.350 OA
HETATM   13  C   UNL     1     -44.620  59.416 -52.553  1.00  0.00     0.075 A 
HETATM   14  C   UNL     1     -45.533  59.354 -51.501  1.00  0.00     0.037 A 
HETATM   15  C   UNL     1     -43.406  60.092 -52.397  1.00  0.00    -0.024 A 
HETATM   16  C   UNL     1     -45.252  59.988 -50.291  1.00  0.00     0.003 A 
HETATM   17  C   UNL     1     -44.053  60.684 -50.134  1.00  0.00     0.001 A 
HETATM   18  C   UNL     1     -43.134  60.737 -51.183  1.00  0.00     0.010 A 
HETATM   19  C   UNL     1     -42.402  60.142 -53.518  1.00  0.00     0.055 C 
ENDBRANCH   6  10
BRANCH   1  20
HETATM   20  C   UNL     1     -40.238  51.904 -53.134  1.00  0.00     0.071 A 
HETATM   21  C   UNL     1     -40.249  51.203 -54.325  1.00  0.00     0.052 A 
HETATM   22  C   UNL     1     -39.862  49.887 -54.256  1.00  0.00     0.122 A 
HETATM   23  N   UNL     1     -39.486  49.284 -53.117  1.00  0.00    -0.231 NA
HETATM   24  C   UNL     1     -39.482  50.043 -52.020  1.00  0.00     0.199 A 
HETATM   25  N   UNL     1     -39.855  51.323 -51.975  1.00  0.00    -0.218 NA
BRANCH  24  26
HETATM   26  N   UNL     1     -39.112  49.444 -50.834  1.00  0.00    -0.271 NA
HETATM   27  H   UNL     1     -38.827  50.155 -50.175  1.00  0.00     0.127 HD
HETATM   28  H   UNL     1     -38.456  48.699 -51.024  1.00  0.00     0.127 HD
ENDBRANCH  24  26
ENDBRANCH   1  20
TORSDOF 3
ENDMDL
MODEL 3
REMARK VINA RESULT:      -8.6      1.425      2.136
REMARK  3 active torsions:
REMARK  status: ('A' for Active; 'I' for Inactive)
REMARK    1  A    between atoms: N_1  and  C_2 
REMARK    2  A    between atoms: C_6  and  C_8 
REMARK    3  A    between atoms: C_13  and  C_17 
ROOT
HETATM    1  C   UNL     1     -40.371  53.093 -51.385  1.00  0.00    -0.006 A 
HETATM    2  C   UNL     1     -39.784  53.734 -50.283  1.00  0.00     0.016 A 
HETATM    3  C   UNL     1     -40.102  55.058 -49.944  1.00  0.00     0.034 A 
HETATM    4  C   UNL     1     -41.033  55.773 -50.716  1.00  0.00     0.074 A 
HETATM    5  N   UNL     1     -41.450  57.071 -50.487  1.00  0.00    -0.244 NA
HETATM    6  C   UNL     1     -42.365  57.421 -51.366  1.00  0.00     0.083 A 
HETATM    7  S   UNL     1     -42.683  56.248 -52.587  1.00  0.00    -0.072 SA
HETATM    8  C   UNL     1     -41.605  55.148 -51.821  1.00  0.00     0.036 A 
HETATM    9  C   UNL     1     -41.285  53.824 -52.172  1.00  0.00     0.035 A 
ENDROOT
BRANCH   6  10
HETATM   10  C   UNL     1     -43.063  58.767 -51.391  1.00  0.00     0.074 C 
HETATM   11  C   UNL     1     -42.103  59.928 -51.654  1.00  0.00     0.187 C 
HETATM   12  O   UNL     1     -41.472  59.880 -52.938  1.00  0.00    -0.350 OA
HETATM   13  C   UNL     1     -42.313  59.603 -53.982  1.00  0.00     0.075 A 
HETATM   14  C   UNL     1     -41.791  59.819 -55.258  1.00  0.00     0.037 A 
HETATM   15  C   UNL     1     -43.605  59.095 -53.824  1.00  0.00    -0.024 A 
HETATM   16  C   UNL     1     -42.567  59.553 -56.386  1.00  0.00     0.003 A 
HETATM   17  C   UNL     1     -43.866  59.068 -56.237  1.00  0.00     0.001 A 
HETATM   18  C   UNL     1     -44.384  58.841 -54.961  1.00  0.00     0.010 A 
HETATM   19  C   UNL     1     -44.168  58.832 -52.452  1.00  0.00     0.055 C 
ENDBRANCH   6  10
BRANCH   1  20
HETATM   20  C   UNL     1     -40.053  51.690 -51.730  1.00  0.00     0.071 A 
HETATM   21  C   UNL     1     -39.833  50.715 -50.777  1.00  0.00     0.052 A 
HETATM   22  C   UNL     1     -39.554  49.456 -51.251  1.00  0.00     0.122 A 
HETATM   23  N   UNL     1     -39.491  49.153 -52.558  1.00  0.00    -0.231 NA
HETATM   24  C   UNL     1     -39.740  50.151 -53.408  1.00  0.00     0.199 A 
HETATM   25  N   UNL     1     -40.004  51.410 -53.053  1.00  0.00    -0.218 NA
BRANCH  24  26
HETATM   26  N   UNL     1     -39.670  49.870 -54.756  1.00  0.00    -0.271 NA
HETATM   27  H   UNL     1     -39.314  50.677 -55.249  1.00  0.00     0.127 HD
HETATM   28  H   UNL     1     -40.554  49.490 -55.067  1.00  0.00     0.127 HD
ENDBRANCH  24  26
ENDBRANCH   1  20
TORSDOF 3
ENDMDL
MODEL 4
REMARK VINA RESULT:      -8.4      1.856      3.050
REMARK  3 active torsions:
REMARK  status: ('A' for Active; 'I' for Inactive)
REMARK    1  A    between atoms: N_1  and  C_2 
REMARK    2  A    between atoms: C_6  and  C_8 
REMARK    3  A    between atoms: C_13  and  C_17 
ROOT
HETATM    1  C   UNL     1     -41.291  53.796 -53.823  1.00  0.00    -0.006 A 
HETATM    2  C   UNL     1     -42.252  53.762 -54.845  1.00  0.00     0.016 A 
HETATM    3  C   UNL     1     -42.884  54.928 -55.304  1.00  0.00     0.034 A 
HETATM    4  C   UNL     1     -42.555  56.171 -54.735  1.00  0.00     0.074 A 
HETATM    5  N   UNL     1     -43.084  57.394 -55.100  1.00  0.00    -0.244 NA
HETATM    6  C   UNL     1     -42.526  58.362 -54.404  1.00  0.00     0.083 A 
HETATM    7  S   UNL     1     -41.421  57.837 -53.190  1.00  0.00    -0.072 SA
HETATM    8  C   UNL     1     -41.616  56.208 -53.708  1.00  0.00     0.036 A 
HETATM    9  C   UNL     1     -40.984  55.043 -53.238  1.00  0.00     0.035 A 
ENDROOT
BRANCH   6  10
HETATM   10  C   UNL     1     -42.847  59.835 -54.566  1.00  0.00     0.074 C 
HETATM   11  C   UNL     1     -44.325  60.089 -54.871  1.00  0.00     0.187 C 
HETATM   12  O   UNL     1     -45.210  59.692 -53.819  1.00  0.00    -0.350 OA
HETATM   13  C   UNL     1     -44.824  60.077 -52.564  1.00  0.00     0.075 A 
HETATM   14  C   UNL     1     -45.787  59.950 -51.563  1.00  0.00     0.037 A 
HETATM   15  C   UNL     1     -43.540  60.538 -52.254  1.00  0.00    -0.024 A 
HETATM   16  C   UNL     1     -45.484  60.305 -50.250  1.00  0.00     0.003 A 
HETATM   17  C   UNL     1     -44.214  60.787 -49.936  1.00  0.00     0.001 A 
HETATM   18  C   UNL     1     -43.246  60.905 -50.934  1.00  0.00     0.010 A 
HETATM   19  C   UNL     1     -42.484  60.653 -53.321  1.00  0.00     0.055 C 
ENDBRANCH   6  10
BRANCH   1  20
HETATM   20  C   UNL     1     -40.608  52.570 -53.355  1.00  0.00     0.071 A 
HETATM   21  C   UNL     1     -40.085  52.442 -52.083  1.00  0.00     0.052 A 
HETATM   22  C   UNL     1     -39.485  51.241 -51.792  1.00  0.00     0.122 A 
HETATM   23  N   UNL     1     -39.394  50.227 -52.668  1.00  0.00    -0.231 NA
HETATM   24  C   UNL     1     -39.948  50.429 -53.865  1.00  0.00     0.199 A 
HETATM   25  N   UNL     1     -40.539  51.561 -54.253  1.00  0.00    -0.218 NA
BRANCH  24  26
HETATM   26  N   UNL     1     -39.860  49.408 -54.787  1.00  0.00    -0.271 NA
HETATM   27  H   UNL     1     -39.727  48.530 -54.304  1.00  0.00     0.127 HD
HETATM   28  H   UNL     1     -39.184  49.653 -55.497  1.00  0.00     0.127 HD
ENDBRANCH  24  26
ENDBRANCH   1  20
TORSDOF 3
ENDMDL
MODEL 5
REMARK VINA RESULT:      -8.4      2.671      3.615
REMARK  3 active torsions:
REMARK  status: ('A' for Active; 'I' for Inactive)
REMARK    1  A    between atoms: N_1  and  C_2 
REMARK    2  A    between atoms: C_6  and  C_8 
REMARK    3  A    between atoms: C_13  and  C_17 
ROOT
HETATM    1  C   UNL     1     -41.425  53.840 -54.004  1.00  0.00    -0.006 A 
HETATM    2  C   UNL     1     -42.383  53.620 -55.007  1.00  0.00     0.016 A 
HETATM    3  C   UNL     1     -43.077  54.680 -55.610  1.00  0.00     0.034 A 
HETATM    4  C   UNL     1     -42.817  56.003 -55.212  1.00  0.00     0.074 A 
HETATM    5  N   UNL     1     -43.412  57.137 -55.731  1.00  0.00    -0.244 NA
HETATM    6  C   UNL     1     -42.907  58.217 -55.173  1.00  0.00     0.083 A 
HETATM    7  S   UNL     1     -41.775  57.917 -53.908  1.00  0.00    -0.072 SA
HETATM    8  C   UNL     1     -41.881  56.225 -54.206  1.00  0.00     0.036 A 
HETATM    9  C   UNL     1     -41.187  55.168 -53.591  1.00  0.00     0.035 A 
ENDROOT
BRANCH   6  10
HETATM   10  C   UNL     1     -43.308  59.635 -55.525  1.00  0.00     0.074 C 
HETATM   11  C   UNL     1     -42.134  60.473 -56.038  1.00  0.00     0.187 C 
HETATM   12  O   UNL     1     -41.572  59.995 -57.264  1.00  0.00    -0.350 OA
HETATM   13  C   UNL     1     -42.486  59.666 -58.228  1.00  0.00     0.075 A 
HETATM   14  C   UNL     1     -41.975  59.463 -59.509  1.00  0.00     0.037 A 
HETATM   15  C   UNL     1     -43.851  59.495 -57.976  1.00  0.00    -0.024 A 
HETATM   16  C   UNL     1     -42.826  59.113 -60.556  1.00  0.00     0.003 A 
HETATM   17  C   UNL     1     -44.192  58.962 -60.320  1.00  0.00     0.001 A 
HETATM   18  C   UNL     1     -44.704  59.154 -59.035  1.00  0.00     0.010 A 
HETATM   19  C   UNL     1     -44.409  59.684 -56.591  1.00  0.00     0.055 C 
ENDBRANCH   6  10
BRANCH   1  20
HETATM   20  C   UNL     1     -40.677  52.725 -53.384  1.00  0.00     0.071 A 
HETATM   21  C   UNL     1     -40.208  52.768 -52.086  1.00  0.00     0.052 A 
HETATM   22  C   UNL     1     -39.534  51.654 -51.648  1.00  0.00     0.122 A 
HETATM   23  N   UNL     1     -39.326  50.567 -52.409  1.00  0.00    -0.231 NA
HETATM   24  C   UNL     1     -39.835  50.603 -53.641  1.00  0.00     0.199 A 
HETATM   25  N   UNL     1     -40.489  51.640 -54.169  1.00  0.00    -0.218 NA
BRANCH  24  26
HETATM   26  N   UNL     1     -39.626  49.504 -54.448  1.00  0.00    -0.271 NA
HETATM   27  H   UNL     1     -40.310  48.793 -54.230  1.00  0.00     0.127 HD
HETATM   28  H   UNL     1     -38.652  49.238 -54.408  1.00  0.00     0.127 HD
ENDBRANCH  24  26
ENDBRANCH   1  20
TORSDOF 3
ENDMDL
MODEL 6
REMARK VINA RESULT:      -8.3      4.116      5.233
REMARK  3 active torsions:
REMARK  status: ('A' for Active; 'I' for Inactive)
REMARK    1  A    between atoms: N_1  and  C_2 
REMARK    2  A    between atoms: C_6  and  C_8 
REMARK    3  A    between atoms: C_13  and  C_17 
ROOT
HETATM    1  C   UNL     1     -41.690  54.487 -53.425  1.00  0.00    -0.006 A 
HETATM    2  C   UNL     1     -42.256  53.708 -54.446  1.00  0.00     0.016 A 
HETATM    3  C   UNL     1     -42.752  54.284 -55.625  1.00  0.00     0.034 A 
HETATM    4  C   UNL     1     -42.686  55.676 -55.805  1.00  0.00     0.074 A 
HETATM    5  N   UNL     1     -43.120  56.371 -56.917  1.00  0.00    -0.244 NA
HETATM    6  C   UNL     1     -42.866  57.656 -56.784  1.00  0.00     0.083 A 
HETATM    7  S   UNL     1     -42.203  58.109 -55.259  1.00  0.00    -0.072 SA
HETATM    8  C   UNL     1     -42.142  56.456 -54.787  1.00  0.00     0.036 A 
HETATM    9  C   UNL     1     -41.650  55.886 -53.599  1.00  0.00     0.035 A 
ENDROOT
BRANCH   6  10
HETATM   10  C   UNL     1     -43.181  58.708 -57.829  1.00  0.00     0.074 C 
HETATM   11  C   UNL     1     -42.467  58.457 -59.158  1.00  0.00     0.187 C 
HETATM   12  O   UNL     1     -42.862  57.245 -59.808  1.00  0.00    -0.350 OA
HETATM   13  C   UNL     1     -44.213  57.027 -59.850  1.00  0.00     0.075 A 
HETATM   14  C   UNL     1     -44.641  56.012 -60.704  1.00  0.00     0.037 A 
HETATM   15  C   UNL     1     -45.136  57.730 -59.069  1.00  0.00    -0.024 A 
HETATM   16  C   UNL     1     -45.998  55.706 -60.806  1.00  0.00     0.003 A 
HETATM   17  C   UNL     1     -46.928  56.417 -60.049  1.00  0.00     0.001 A 
HETATM   18  C   UNL     1     -46.500  57.426 -59.185  1.00  0.00     0.010 A 
HETATM   19  C   UNL     1     -44.683  58.809 -58.123  1.00  0.00     0.055 C 
ENDBRANCH   6  10
BRANCH   1  20
HETATM   20  C   UNL     1     -41.146  53.878 -52.191  1.00  0.00     0.071 A 
HETATM   21  C   UNL     1     -40.347  52.752 -52.200  1.00  0.00     0.052 A 
HETATM   22  C   UNL     1     -39.912  52.307 -50.976  1.00  0.00     0.122 A 
HETATM   23  N   UNL     1     -40.225  52.907 -49.815  1.00  0.00    -0.231 NA
HETATM   24  C   UNL     1     -40.982  54.002 -49.902  1.00  0.00     0.199 A 
HETATM   25  N   UNL     1     -41.468  54.507 -51.038  1.00  0.00    -0.218 NA
BRANCH  24  26
HETATM   26  N   UNL     1     -41.327  54.631 -48.725  1.00  0.00    -0.271 NA
HETATM   27  H   UNL     1     -40.654  54.397 -48.009  1.00  0.00     0.127 HD
HETATM   28  H   UNL     1     -42.301  54.454 -48.522  1.00  0.00     0.127 HD
ENDBRANCH  24  26
ENDBRANCH   1  20
TORSDOF 3
ENDMDL
MODEL 7
REMARK VINA RESULT:      -8.2     16.216     18.561
REMARK  3 active torsions:
REMARK  status: ('A' for Active; 'I' for Inactive)
REMARK    1  A    between atoms: N_1  and  C_2 
REMARK    2  A    between atoms: C_6  and  C_8 
REMARK    3  A    between atoms: C_13  and  C_17 
ROOT
HETATM    1  C   UNL     1     -32.627  39.807 -50.168  1.00  0.00    -0.006 A 
HETATM    2  C   UNL     1     -33.722  40.658 -50.382  1.00  0.00     0.016 A 
HETATM    3  C   UNL     1     -34.144  41.009 -51.674  1.00  0.00     0.034 A 
HETATM    4  C   UNL     1     -33.463  40.501 -52.793  1.00  0.00     0.074 A 
HETATM    5  N   UNL     1     -33.779  40.749 -54.115  1.00  0.00    -0.244 NA
HETATM    6  C   UNL     1     -32.974  40.080 -54.914  1.00  0.00     0.083 A 
HETATM    7  S   UNL     1     -31.718  39.213 -54.114  1.00  0.00    -0.072 SA
HETATM    8  C   UNL     1     -32.365  39.670 -52.587  1.00  0.00     0.036 A 
HETATM    9  C   UNL     1     -31.932  39.320 -51.295  1.00  0.00     0.035 A 
ENDROOT
BRANCH   6  10
HETATM   10  C   UNL     1     -33.055  40.095 -56.427  1.00  0.00     0.074 C 
HETATM   11  C   UNL     1     -33.657  38.811 -57.002  1.00  0.00     0.187 C 
HETATM   12  O   UNL     1     -35.017  38.586 -56.620  1.00  0.00    -0.350 OA
HETATM   13  C   UNL     1     -35.833  39.680 -56.723  1.00  0.00     0.075 A 
HETATM   14  C   UNL     1     -37.202  39.431 -56.625  1.00  0.00     0.037 A 
HETATM   15  C   UNL     1     -35.362  40.987 -56.878  1.00  0.00    -0.024 A 
HETATM   16  C   UNL     1     -38.113  40.483 -56.707  1.00  0.00     0.003 A 
HETATM   17  C   UNL     1     -37.654  41.787 -56.883  1.00  0.00     0.001 A 
HETATM   18  C   UNL     1     -36.284  42.039 -56.970  1.00  0.00     0.010 A 
HETATM   19  C   UNL     1     -33.886  41.270 -56.956  1.00  0.00     0.055 C 
ENDBRANCH   6  10
BRANCH   1  20
HETATM   20  C   UNL     1     -32.196  39.419 -48.807  1.00  0.00     0.071 A 
HETATM   21  C   UNL     1     -32.771  38.376 -48.108  1.00  0.00     0.052 A 
HETATM   22  C   UNL     1     -32.260  38.131 -46.857  1.00  0.00     0.122 A 
HETATM   23  N   UNL     1     -31.259  38.842 -46.313  1.00  0.00    -0.231 NA
HETATM   24  C   UNL     1     -30.747  39.815 -47.068  1.00  0.00     0.199 A 
HETATM   25  N   UNL     1     -31.180  40.145 -48.287  1.00  0.00    -0.218 NA
BRANCH  24  26
HETATM   26  N   UNL     1     -29.726  40.568 -46.529  1.00  0.00    -0.271 NA
HETATM   27  H   UNL     1     -30.104  41.204 -45.842  1.00  0.00     0.127 HD
HETATM   28  H   UNL     1     -29.173  40.967 -47.275  1.00  0.00     0.127 HD
ENDBRANCH  24  26
ENDBRANCH   1  20
TORSDOF 3
ENDMDL
MODEL 8
REMARK VINA RESULT:      -8.0      2.939      4.308
REMARK  3 active torsions:
REMARK  status: ('A' for Active; 'I' for Inactive)
REMARK    1  A    between atoms: N_1  and  C_2 
REMARK    2  A    between atoms: C_6  and  C_8 
REMARK    3  A    between atoms: C_13  and  C_17 
ROOT
HETATM    1  C   UNL     1     -41.794  54.025 -53.988  1.00  0.00    -0.006 A 
HETATM    2  C   UNL     1     -42.532  54.809 -53.089  1.00  0.00     0.016 A 
HETATM    3  C   UNL     1     -43.359  55.854 -53.527  1.00  0.00     0.034 A 
HETATM    4  C   UNL     1     -43.465  56.133 -54.900  1.00  0.00     0.074 A 
HETATM    5  N   UNL     1     -44.251  57.117 -55.470  1.00  0.00    -0.244 NA
HETATM    6  C   UNL     1     -44.157  57.078 -56.782  1.00  0.00     0.083 A 
HETATM    7  S   UNL     1     -43.023  55.933 -57.393  1.00  0.00    -0.072 SA
HETATM    8  C   UNL     1     -42.721  55.369 -55.796  1.00  0.00     0.036 A 
HETATM    9  C   UNL     1     -41.883  54.326 -55.364  1.00  0.00     0.035 A 
ENDROOT
BRANCH   6  10
HETATM   10  C   UNL     1     -44.909  57.995 -57.726  1.00  0.00     0.074 C 
HETATM   11  C   UNL     1     -45.454  59.244 -57.031  1.00  0.00     0.187 C 
HETATM   12  O   UNL     1     -44.439  60.104 -56.505  1.00  0.00    -0.350 OA
HETATM   13  C   UNL     1     -43.393  60.349 -57.354  1.00  0.00     0.075 A 
HETATM   14  C   UNL     1     -42.537  61.386 -56.985  1.00  0.00     0.037 A 
HETATM   15  C   UNL     1     -43.141  59.602 -58.508  1.00  0.00    -0.024 A 
HETATM   16  C   UNL     1     -41.436  61.703 -57.779  1.00  0.00     0.003 A 
HETATM   17  C   UNL     1     -41.190  60.978 -58.945  1.00  0.00     0.001 A 
HETATM   18  C   UNL     1     -42.039  59.932 -59.310  1.00  0.00     0.010 A 
HETATM   19  C   UNL     1     -44.042  58.462 -58.901  1.00  0.00     0.055 C 
ENDBRANCH   6  10
BRANCH   1  20
HETATM   20  C   UNL     1     -40.939  52.908 -53.529  1.00  0.00     0.071 A 
HETATM   21  C   UNL     1     -40.256  52.932 -52.328  1.00  0.00     0.052 A 
HETATM   22  C   UNL     1     -39.506  51.819 -52.035  1.00  0.00     0.122 A 
HETATM   23  N   UNL     1     -39.420  50.750 -52.843  1.00  0.00    -0.231 NA
HETATM   24  C   UNL     1     -40.132  50.803 -53.971  1.00  0.00     0.199 A 
HETATM   25  N   UNL     1     -40.877  51.840 -54.357  1.00  0.00    -0.218 NA
BRANCH  24  26
HETATM   26  N   UNL     1     -40.052  49.723 -54.824  1.00  0.00    -0.271 NA
HETATM   27  H   UNL     1     -39.181  49.235 -54.668  1.00  0.00     0.127 HD
HETATM   28  H   UNL     1     -40.253  50.024 -55.768  1.00  0.00     0.127 HD
ENDBRANCH  24  26
ENDBRANCH   1  20
TORSDOF 3
ENDMDL
MODEL 9
REMARK VINA RESULT:      -7.9      3.680      4.771
REMARK  3 active torsions:
REMARK  status: ('A' for Active; 'I' for Inactive)
REMARK    1  A    between atoms: N_1  and  C_2 
REMARK    2  A    between atoms: C_6  and  C_8 
REMARK    3  A    between atoms: C_13  and  C_17 
ROOT
HETATM    1  C   UNL     1     -41.851  54.437 -53.475  1.00  0.00    -0.006 A 
HETATM    2  C   UNL     1     -42.953  54.897 -52.737  1.00  0.00     0.016 A 
HETATM    3  C   UNL     1     -43.748  55.964 -53.183  1.00  0.00     0.034 A 
HETATM    4  C   UNL     1     -43.448  56.596 -54.402  1.00  0.00     0.074 A 
HETATM    5  N   UNL     1     -44.153  57.642 -54.967  1.00  0.00    -0.244 NA
HETATM    6  C   UNL     1     -43.637  57.966 -56.134  1.00  0.00     0.083 A 
HETATM    7  S   UNL     1     -42.202  57.109 -56.555  1.00  0.00    -0.072 SA
HETATM    8  C   UNL     1     -42.346  56.155 -55.130  1.00  0.00     0.036 A 
HETATM    9  C   UNL     1     -41.540  55.093 -54.685  1.00  0.00     0.035 A 
ENDROOT
BRANCH   6  10
HETATM   10  C   UNL     1     -44.179  59.052 -57.043  1.00  0.00     0.074 C 
HETATM   11  C   UNL     1     -43.330  59.251 -58.300  1.00  0.00     0.187 C 
HETATM   12  O   UNL     1     -43.296  58.111 -59.164  1.00  0.00    -0.350 OA
HETATM   13  C   UNL     1     -44.512  57.528 -59.398  1.00  0.00     0.075 A 
HETATM   14  C   UNL     1     -44.554  56.600 -60.437  1.00  0.00     0.037 A 
HETATM   15  C   UNL     1     -45.656  57.791 -58.639  1.00  0.00    -0.024 A 
HETATM   16  C   UNL     1     -45.745  55.944 -60.744  1.00  0.00     0.003 A 
HETATM   17  C   UNL     1     -46.897  56.216 -60.008  1.00  0.00     0.001 A 
HETATM   18  C   UNL     1     -46.855  57.137 -58.959  1.00  0.00     0.010 A 
HETATM   19  C   UNL     1     -45.616  58.770 -57.496  1.00  0.00     0.055 C 
ENDBRANCH   6  10
BRANCH   1  20
HETATM   20  C   UNL     1     -41.026  53.298 -53.016  1.00  0.00     0.071 A 
HETATM   21  C   UNL     1     -40.583  53.171 -51.714  1.00  0.00     0.052 A 
HETATM   22  C   UNL     1     -39.830  52.056 -51.436  1.00  0.00     0.122 A 
HETATM   23  N   UNL     1     -39.525  51.121 -52.351  1.00  0.00    -0.231 NA
HETATM   24  C   UNL     1     -40.015  51.313 -53.577  1.00  0.00     0.199 A 
HETATM   25  N   UNL     1     -40.741  52.367 -53.954  1.00  0.00    -0.218 NA
BRANCH  24  26
HETATM   26  N   UNL     1     -39.708  50.374 -54.539  1.00  0.00    -0.271 NA
HETATM   27  H   UNL     1     -39.269  50.831 -55.326  1.00  0.00     0.127 HD
HETATM   28  H   UNL     1     -40.522  49.806 -54.728  1.00  0.00     0.127 HD
ENDBRANCH  24  26
ENDBRANCH   1  20
TORSDOF 3
ENDMDL
MODEL 10
REMARK VINA RESULT:      -7.8     15.841     17.970
REMARK  3 active torsions:
REMARK  status: ('A' for Active; 'I' for Inactive)
REMARK    1  A    between atoms: N_1  and  C_2 
REMARK    2  A    between atoms: C_6  and  C_8 
REMARK    3  A    between atoms: C_13  and  C_17 
ROOT
HETATM    1  C   UNL     1     -37.104  40.485 -58.005  1.00  0.00    -0.006 A 
HETATM    2  C   UNL     1     -36.173  41.534 -58.043  1.00  0.00     0.016 A 
HETATM    3  C   UNL     1     -35.690  42.136 -56.871  1.00  0.00     0.034 A 
HETATM    4  C   UNL     1     -36.140  41.686 -55.618  1.00  0.00     0.074 A 
HETATM    5  N   UNL     1     -35.737  42.174 -54.390  1.00  0.00    -0.244 NA
HETATM    6  C   UNL     1     -36.312  41.500 -53.416  1.00  0.00     0.083 A 
HETATM    7  S   UNL     1     -37.460  40.322 -53.931  1.00  0.00    -0.072 SA
HETATM    8  C   UNL     1     -37.077  40.657 -55.575  1.00  0.00     0.036 A 
HETATM    9  C   UNL     1     -37.571  40.054 -56.745  1.00  0.00     0.035 A 
ENDROOT
BRANCH   6  10
HETATM   10  C   UNL     1     -36.075  41.748 -51.940  1.00  0.00     0.074 C 
HETATM   11  C   UNL     1     -36.543  40.587 -51.060  1.00  0.00     0.187 C 
HETATM   12  O   UNL     1     -35.834  39.365 -51.288  1.00  0.00    -0.350 OA
HETATM   13  C   UNL     1     -34.474  39.493 -51.366  1.00  0.00     0.075 A 
HETATM   14  C   UNL     1     -33.745  38.306 -51.311  1.00  0.00     0.037 A 
HETATM   15  C   UNL     1     -33.819  40.717 -51.532  1.00  0.00    -0.024 A 
HETATM   16  C   UNL     1     -32.354  38.332 -51.395  1.00  0.00     0.003 A 
HETATM   17  C   UNL     1     -31.690  39.550 -51.537  1.00  0.00     0.001 A 
HETATM   18  C   UNL     1     -32.419  40.739 -51.604  1.00  0.00     0.010 A 
HETATM   19  C   UNL     1     -34.597  42.003 -51.621  1.00  0.00     0.055 C 
ENDBRANCH   6  10
BRANCH   1  20
HETATM   20  C   UNL     1     -37.597  39.835 -59.239  1.00  0.00     0.071 A 
HETATM   21  C   UNL     1     -37.034  40.059 -60.481  1.00  0.00     0.052 A 
HETATM   22  C   UNL     1     -37.596  39.379 -61.533  1.00  0.00     0.122 A 
HETATM   23  N   UNL     1     -38.633  38.535 -61.401  1.00  0.00    -0.231 NA
HETATM   24  C   UNL     1     -39.097  38.359 -60.162  1.00  0.00     0.199 A 
HETATM   25  N   UNL     1     -38.635  38.983 -59.077  1.00  0.00    -0.218 NA
BRANCH  24  26
HETATM   26  N   UNL     1     -40.168  37.507 -60.000  1.00  0.00    -0.271 NA
HETATM   27  H   UNL     1     -40.700  37.468 -60.858  1.00  0.00     0.127 HD
HETATM   28  H   UNL     1     -40.668  37.750 -59.156  1.00  0.00     0.127 HD
ENDBRANCH  24  26
ENDBRANCH   1  20
TORSDOF 3
ENDMDL
