MODEL 1
REMARK VINA RESULT:      -8.2      0.000      0.000
REMARK  4 active torsions:
REMARK  status: ('A' for Active; 'I' for Inactive)
REMARK    1  A    between atoms: C_9  and  C_10 
REMARK    2  A    between atoms: C_20  and  C_21 
REMARK       I    between atoms: C_21  and  N_22 
REMARK    3  A    between atoms: N_22  and  C_23 
REMARK    4  A    between atoms: C_24  and  O_25 
ROOT
HETATM    1  C   UNL     1     -40.543  52.528 -53.767  1.00  0.00     0.070 C 
HETATM    2  C   UNL     1     -40.695  53.388 -52.534  1.00  0.00     0.037 A 
HETATM    3  N   UNL     1     -40.598  52.716 -51.322  1.00  0.00    -0.192 N 
HETATM    4  C   UNL     1     -40.680  53.320 -50.125  1.00  0.00     0.725 A 
HETATM    5  N   UNL     1     -40.890  54.670 -50.072  1.00  0.00    -0.084 N 
HETATM    6  N   UNL     1     -40.794  55.127 -48.804  1.00  0.00    -0.149 NA
HETATM    7  C   UNL     1     -40.646  53.976 -48.138  1.00  0.00     0.275 A 
HETATM    8  N   UNL     1     -40.559  52.847 -48.911  1.00  0.00    -0.054 NA
HETATM    9  C   UNL     1     -41.003  55.532 -51.255  1.00  0.00     0.203 A 
HETATM   10  C   UNL     1     -40.890  54.733 -52.555  1.00  0.00     0.062 A 
HETATM   11  H   UNL     1     -40.454  51.709 -51.351  1.00  0.00     0.184 HD
ENDROOT
BRANCH  10  12
HETATM   12  C   UNL     1     -41.112  55.437 -53.859  1.00  0.00     0.256 C 
HETATM   13  N   UNL     1     -42.396  55.336 -54.353  1.00  0.00    -0.321 N 
HETATM   14  H   UNL     1     -43.004  54.640 -53.950  1.00  0.00     0.169 HD
HETATM   15  O   UNL     1     -40.155  55.965 -54.410  1.00  0.00    -0.267 OA
BRANCH  13  16
HETATM   16  C   UNL     1     -42.893  55.915 -55.548  1.00  0.00     0.068 A 
HETATM   17  C   UNL     1     -43.415  57.211 -55.685  1.00  0.00     0.095 A 
HETATM   18  C   UNL     1     -43.818  57.688 -56.938  1.00  0.00     0.039 A 
HETATM   19  C   UNL     1     -43.766  56.861 -58.057  1.00  0.00     0.003 A 
HETATM   20  C   UNL     1     -43.311  55.553 -57.925  1.00  0.00     0.002 A 
HETATM   21  C   UNL     1     -42.884  55.083 -56.680  1.00  0.00     0.032 A 
BRANCH  17  22
HETATM   22  O   UNL     1     -43.591  58.076 -54.638  1.00  0.00    -0.354 OA
HETATM   23  C   UNL     1     -42.558  59.059 -54.620  1.00  0.00     0.210 C 
ENDBRANCH  17  22
ENDBRANCH  13  16
ENDBRANCH  10  12
BRANCH   9  24
HETATM   24  C   UNL     1     -42.256  56.408 -51.155  1.00  0.00    -0.017 A 
HETATM   25  C   UNL     1     -42.180  57.835 -51.066  1.00  0.00    -0.017 A 
HETATM   26  C   UNL     1     -43.390  58.578 -51.048  1.00  0.00    -0.025 A 
HETATM   27  C   UNL     1     -40.974  58.576 -50.981  1.00  0.00     0.013 A 
HETATM   28  C   UNL     1     -43.361  59.981 -50.984  1.00  0.00     0.012 A 
HETATM   29  C   UNL     1     -44.624  57.918 -51.083  1.00  0.00     0.012 A 
HETATM   30  C   UNL     1     -42.157  60.675 -50.919  1.00  0.00     0.001 A 
HETATM   31  C   UNL     1     -40.963  59.972 -50.911  1.00  0.00     0.001 A 
HETATM   32  C   UNL     1     -44.692  56.531 -51.123  1.00  0.00     0.002 A 
HETATM   33  C   UNL     1     -43.522  55.782 -51.151  1.00  0.00     0.010 A 
ENDBRANCH   9  24
TORSDOF 4
ENDMDL
MODEL 2
REMARK VINA RESULT:      -7.9      3.228      8.091
REMARK  4 active torsions:
REMARK  status: ('A' for Active; 'I' for Inactive)
REMARK    1  A    between atoms: C_9  and  C_10 
REMARK    2  A    between atoms: C_20  and  C_21 
REMARK       I    between atoms: C_21  and  N_22 
REMARK    3  A    between atoms: N_22  and  C_23 
REMARK    4  A    between atoms: C_24  and  O_25 
ROOT
HETATM    1  C   UNL     1     -42.100  59.659 -54.770  1.00  0.00     0.070 C 
HETATM    2  C   UNL     1     -42.111  59.382 -56.255  1.00  0.00     0.037 A 
HETATM    3  N   UNL     1     -42.057  60.505 -57.072  1.00  0.00    -0.192 N 
HETATM    4  C   UNL     1     -42.030  60.451 -58.414  1.00  0.00     0.725 A 
HETATM    5  N   UNL     1     -42.078  59.233 -59.034  1.00  0.00    -0.084 N 
HETATM    6  N   UNL     1     -41.890  59.359 -60.366  1.00  0.00    -0.149 NA
HETATM    7  C   UNL     1     -41.858  60.691 -60.485  1.00  0.00     0.275 A 
HETATM    8  N   UNL     1     -41.928  61.396 -59.312  1.00  0.00    -0.054 NA
HETATM    9  C   UNL     1     -42.126  57.950 -58.323  1.00  0.00     0.203 A 
HETATM   10  C   UNL     1     -42.148  58.139 -56.804  1.00  0.00     0.062 A 
HETATM   11  H   UNL     1     -42.032  61.417 -56.620  1.00  0.00     0.184 HD
ENDROOT
BRANCH  10  12
HETATM   12  C   UNL     1     -42.326  56.938 -55.927  1.00  0.00     0.256 C 
HETATM   13  N   UNL     1     -41.149  56.362 -55.498  1.00  0.00    -0.321 N 
HETATM   14  H   UNL     1     -40.295  56.626 -55.965  1.00  0.00     0.169 HD
HETATM   15  O   UNL     1     -43.460  56.523 -55.725  1.00  0.00    -0.267 OA
BRANCH  13  16
HETATM   16  C   UNL     1     -41.016  55.235 -54.648  1.00  0.00     0.068 A 
HETATM   17  C   UNL     1     -41.334  55.187 -53.282  1.00  0.00     0.095 A 
HETATM   18  C   UNL     1     -41.216  53.989 -52.565  1.00  0.00     0.039 A 
HETATM   19  C   UNL     1     -40.720  52.844 -53.182  1.00  0.00     0.003 A 
HETATM   20  C   UNL     1     -40.340  52.893 -54.519  1.00  0.00     0.002 A 
HETATM   21  C   UNL     1     -40.482  54.080 -55.244  1.00  0.00     0.032 A 
BRANCH  17  22
HETATM   22  O   UNL     1     -41.746  56.272 -52.556  1.00  0.00    -0.354 OA
HETATM   23  C   UNL     1     -43.130  56.161 -52.230  1.00  0.00     0.210 C 
ENDBRANCH  17  22
ENDBRANCH  13  16
ENDBRANCH  10  12
BRANCH   9  24
HETATM   24  C   UNL     1     -43.265  57.082 -58.870  1.00  0.00    -0.017 A 
HETATM   25  C   UNL     1     -44.629  57.516 -58.843  1.00  0.00    -0.017 A 
HETATM   26  C   UNL     1     -45.616  56.684 -59.434  1.00  0.00    -0.025 A 
HETATM   27  C   UNL     1     -45.082  58.723 -58.252  1.00  0.00     0.013 A 
HETATM   28  C   UNL     1     -46.964  57.080 -59.449  1.00  0.00     0.012 A 
HETATM   29  C   UNL     1     -45.257  55.454 -59.998  1.00  0.00     0.012 A 
HETATM   30  C   UNL     1     -47.368  58.282 -58.875  1.00  0.00     0.001 A 
HETATM   31  C   UNL     1     -46.428  59.101 -58.270  1.00  0.00     0.001 A 
HETATM   32  C   UNL     1     -43.938  55.018 -59.980  1.00  0.00     0.002 A 
HETATM   33  C   UNL     1     -42.953  55.818 -59.416  1.00  0.00     0.010 A 
ENDBRANCH   9  24
TORSDOF 4
ENDMDL
MODEL 3
REMARK VINA RESULT:      -7.7      2.194      6.188
REMARK  4 active torsions:
REMARK  status: ('A' for Active; 'I' for Inactive)
REMARK    1  A    between atoms: C_9  and  C_10 
REMARK    2  A    between atoms: C_20  and  C_21 
REMARK       I    between atoms: C_21  and  N_22 
REMARK    3  A    between atoms: N_22  and  C_23 
REMARK    4  A    between atoms: C_24  and  O_25 
ROOT
HETATM    1  C   UNL     1     -41.427  54.315 -55.497  1.00  0.00     0.070 C 
HETATM    2  C   UNL     1     -42.023  55.700 -55.389  1.00  0.00     0.037 A 
HETATM    3  N   UNL     1     -41.938  56.476 -56.539  1.00  0.00    -0.192 N 
HETATM    4  C   UNL     1     -42.436  57.720 -56.637  1.00  0.00     0.725 A 
HETATM    5  N   UNL     1     -43.048  58.282 -55.550  1.00  0.00    -0.084 N 
HETATM    6  N   UNL     1     -43.617  59.465 -55.872  1.00  0.00    -0.149 NA
HETATM    7  C   UNL     1     -43.201  59.603 -57.135  1.00  0.00     0.275 A 
HETATM    8  N   UNL     1     -42.486  58.551 -57.646  1.00  0.00    -0.054 NA
HETATM    9  C   UNL     1     -43.233  57.597 -54.265  1.00  0.00     0.203 A 
HETATM   10  C   UNL     1     -42.629  56.191 -54.277  1.00  0.00     0.062 A 
HETATM   11  H   UNL     1     -41.474  56.072 -57.349  1.00  0.00     0.184 HD
ENDROOT
BRANCH  10  12
HETATM   12  C   UNL     1     -42.614  55.399 -53.005  1.00  0.00     0.256 C 
HETATM   13  N   UNL     1     -41.393  55.366 -52.365  1.00  0.00    -0.321 N 
HETATM   14  H   UNL     1     -40.579  55.660 -52.883  1.00  0.00     0.169 HD
HETATM   15  O   UNL     1     -43.629  54.796 -52.677  1.00  0.00    -0.267 OA
BRANCH  13  16
HETATM   16  C   UNL     1     -41.093  54.715 -51.142  1.00  0.00     0.068 A 
HETATM   17  C   UNL     1     -40.623  53.401 -50.995  1.00  0.00     0.095 A 
HETATM   18  C   UNL     1     -40.304  52.895 -49.729  1.00  0.00     0.039 A 
HETATM   19  C   UNL     1     -40.510  53.667 -48.589  1.00  0.00     0.003 A 
HETATM   20  C   UNL     1     -41.036  54.949 -48.712  1.00  0.00     0.002 A 
HETATM   21  C   UNL     1     -41.330  55.466 -49.978  1.00  0.00     0.032 A 
BRANCH  17  22
HETATM   22  O   UNL     1     -40.466  52.528 -52.038  1.00  0.00    -0.354 OA
HETATM   23  C   UNL     1     -39.555  51.488 -51.688  1.00  0.00     0.210 C 
ENDBRANCH  17  22
ENDBRANCH  13  16
ENDBRANCH  10  12
BRANCH   9  24
HETATM   24  C   UNL     1     -42.746  58.487 -53.116  1.00  0.00    -0.017 A 
HETATM   25  C   UNL     1     -43.656  59.126 -52.214  1.00  0.00    -0.017 A 
HETATM   26  C   UNL     1     -43.123  59.877 -51.133  1.00  0.00    -0.025 A 
HETATM   27  C   UNL     1     -45.070  59.079 -52.324  1.00  0.00     0.013 A 
HETATM   28  C   UNL     1     -43.979  60.503 -50.211  1.00  0.00     0.012 A 
HETATM   29  C   UNL     1     -41.738  60.010 -50.981  1.00  0.00     0.012 A 
HETATM   30  C   UNL     1     -45.362  60.419 -50.341  1.00  0.00     0.001 A 
HETATM   31  C   UNL     1     -45.908  59.713 -51.401  1.00  0.00     0.001 A 
HETATM   32  C   UNL     1     -40.861  59.425 -51.887  1.00  0.00     0.002 A 
HETATM   33  C   UNL     1     -41.358  58.678 -52.947  1.00  0.00     0.010 A 
ENDBRANCH   9  24
TORSDOF 4
ENDMDL
MODEL 4
REMARK VINA RESULT:      -7.3      2.481      6.167
REMARK  4 active torsions:
REMARK  status: ('A' for Active; 'I' for Inactive)
REMARK    1  A    between atoms: C_9  and  C_10 
REMARK    2  A    between atoms: C_20  and  C_21 
REMARK       I    between atoms: C_21  and  N_22 
REMARK    3  A    between atoms: N_22  and  C_23 
REMARK    4  A    between atoms: C_24  and  O_25 
ROOT
HETATM    1  C   UNL     1     -42.911  55.419 -57.817  1.00  0.00     0.070 C 
HETATM    2  C   UNL     1     -43.356  56.716 -57.182  1.00  0.00     0.037 A 
HETATM    3  N   UNL     1     -43.561  57.771 -58.062  1.00  0.00    -0.192 N 
HETATM    4  C   UNL     1     -43.983  58.989 -57.682  1.00  0.00     0.725 A 
HETATM    5  N   UNL     1     -44.212  59.232 -56.356  1.00  0.00    -0.084 N 
HETATM    6  N   UNL     1     -44.771  60.449 -56.175  1.00  0.00    -0.149 NA
HETATM    7  C   UNL     1     -44.734  60.924 -57.425  1.00  0.00     0.275 A 
HETATM    8  N   UNL     1     -44.270  60.058 -58.380  1.00  0.00    -0.054 NA
HETATM    9  C   UNL     1     -44.057  58.227 -55.297  1.00  0.00     0.203 A 
HETATM   10  C   UNL     1     -43.578  56.884 -55.852  1.00  0.00     0.062 A 
HETATM   11  H   UNL     1     -43.381  57.604 -59.050  1.00  0.00     0.184 HD
ENDROOT
BRANCH  10  12
HETATM   12  C   UNL     1     -43.244  55.782 -54.892  1.00  0.00     0.256 C 
HETATM   13  N   UNL     1     -41.893  55.548 -54.736  1.00  0.00    -0.321 N 
HETATM   14  H   UNL     1     -41.262  55.949 -55.414  1.00  0.00     0.169 HD
HETATM   15  O   UNL     1     -44.160  55.141 -54.394  1.00  0.00    -0.267 OA
BRANCH  13  16
HETATM   16  C   UNL     1     -41.292  54.588 -53.884  1.00  0.00     0.068 A 
HETATM   17  C   UNL     1     -41.002  54.757 -52.521  1.00  0.00     0.095 A 
HETATM   18  C   UNL     1     -40.461  53.704 -51.773  1.00  0.00     0.039 A 
HETATM   19  C   UNL     1     -40.143  52.495 -52.384  1.00  0.00     0.003 A 
HETATM   20  C   UNL     1     -40.365  52.334 -53.747  1.00  0.00     0.002 A 
HETATM   21  C   UNL     1     -40.930  53.374 -54.492  1.00  0.00     0.032 A 
BRANCH  17  22
HETATM   22  O   UNL     1     -41.192  55.929 -51.841  1.00  0.00    -0.354 OA
HETATM   23  C   UNL     1     -42.463  55.933 -51.193  1.00  0.00     0.210 C 
ENDBRANCH  17  22
ENDBRANCH  13  16
ENDBRANCH  10  12
BRANCH   9  24
HETATM   24  C   UNL     1     -43.199  58.786 -54.157  1.00  0.00    -0.017 A 
HETATM   25  C   UNL     1     -43.775  59.254 -52.933  1.00  0.00    -0.017 A 
HETATM   26  C   UNL     1     -42.906  59.691 -51.899  1.00  0.00    -0.025 A 
HETATM   27  C   UNL     1     -45.167  59.329 -52.672  1.00  0.00     0.013 A 
HETATM   28  C   UNL     1     -43.427  60.138 -50.673  1.00  0.00     0.012 A 
HETATM   29  C   UNL     1     -41.519  59.691 -52.095  1.00  0.00     0.012 A 
HETATM   30  C   UNL     1     -44.799  60.180 -50.446  1.00  0.00     0.001 A 
HETATM   31  C   UNL     1     -45.670  59.782 -51.448  1.00  0.00     0.001 A 
HETATM   32  C   UNL     1     -40.969  59.279 -53.302  1.00  0.00     0.002 A 
HETATM   33  C   UNL     1     -41.798  58.838 -54.326  1.00  0.00     0.010 A 
ENDBRANCH   9  24
TORSDOF 4
ENDMDL
MODEL 5
REMARK VINA RESULT:      -7.3      3.145      6.426
REMARK  4 active torsions:
REMARK  status: ('A' for Active; 'I' for Inactive)
REMARK    1  A    between atoms: C_9  and  C_10 
REMARK    2  A    between atoms: C_20  and  C_21 
REMARK       I    between atoms: C_21  and  N_22 
REMARK    3  A    between atoms: N_22  and  C_23 
REMARK    4  A    between atoms: C_24  and  O_25 
ROOT
HETATM    1  C   UNL     1     -41.000  59.161 -50.153  1.00  0.00     0.070 C 
HETATM    2  C   UNL     1     -41.723  59.915 -51.246  1.00  0.00     0.037 A 
HETATM    3  N   UNL     1     -42.495  60.988 -50.818  1.00  0.00    -0.192 N 
HETATM    4  C   UNL     1     -43.185  61.788 -51.649  1.00  0.00     0.725 A 
HETATM    5  N   UNL     1     -43.155  61.539 -52.993  1.00  0.00    -0.084 N 
HETATM    6  N   UNL     1     -43.774  62.523 -53.683  1.00  0.00    -0.149 NA
HETATM    7  C   UNL     1     -44.255  63.263 -52.677  1.00  0.00     0.275 A 
HETATM    8  N   UNL     1     -43.906  62.854 -51.416  1.00  0.00    -0.054 NA
HETATM    9  C   UNL     1     -42.381  60.456 -53.612  1.00  0.00     0.203 A 
HETATM   10  C   UNL     1     -41.637  59.619 -52.569  1.00  0.00     0.062 A 
HETATM   11  H   UNL     1     -42.534  61.174 -49.819  1.00  0.00     0.184 HD
ENDROOT
BRANCH  10  12
HETATM   12  C   UNL     1     -40.901  58.393 -53.016  1.00  0.00     0.256 C 
HETATM   13  N   UNL     1     -41.637  57.228 -52.951  1.00  0.00    -0.321 N 
HETATM   14  H   UNL     1     -42.492  57.237 -52.417  1.00  0.00     0.169 HD
HETATM   15  O   UNL     1     -39.720  58.497 -53.321  1.00  0.00    -0.267 OA
BRANCH  13  16
HETATM   16  C   UNL     1     -41.206  55.930 -53.327  1.00  0.00     0.068 A 
HETATM   17  C   UNL     1     -40.901  54.873 -52.456  1.00  0.00     0.095 A 
HETATM   18  C   UNL     1     -40.544  53.616 -52.959  1.00  0.00     0.039 A 
HETATM   19  C   UNL     1     -40.425  53.413 -54.331  1.00  0.00     0.003 A 
HETATM   20  C   UNL     1     -40.662  54.468 -55.206  1.00  0.00     0.002 A 
HETATM   21  C   UNL     1     -41.044  55.718 -54.707  1.00  0.00     0.032 A 
BRANCH  17  22
HETATM   22  O   UNL     1     -40.901  54.986 -51.092  1.00  0.00    -0.354 OA
HETATM   23  C   UNL     1     -40.191  53.901 -50.499  1.00  0.00     0.210 C 
ENDBRANCH  17  22
ENDBRANCH  13  16
ENDBRANCH  10  12
BRANCH   9  24
HETATM   24  C   UNL     1     -43.269  59.645 -54.561  1.00  0.00    -0.017 A 
HETATM   25  C   UNL     1     -42.971  59.516 -55.955  1.00  0.00    -0.017 A 
HETATM   26  C   UNL     1     -43.806  58.689 -56.753  1.00  0.00    -0.025 A 
HETATM   27  C   UNL     1     -41.900  60.169 -56.616  1.00  0.00     0.013 A 
HETATM   28  C   UNL     1     -43.537  58.516 -58.121  1.00  0.00     0.012 A 
HETATM   29  C   UNL     1     -44.911  58.045 -56.185  1.00  0.00     0.012 A 
HETATM   30  C   UNL     1     -42.465  59.159 -58.731  1.00  0.00     0.001 A 
HETATM   31  C   UNL     1     -41.650  59.991 -57.981  1.00  0.00     0.001 A 
HETATM   32  C   UNL     1     -45.222  58.211 -54.840  1.00  0.00     0.002 A 
HETATM   33  C   UNL     1     -44.416  59.007 -54.038  1.00  0.00     0.010 A 
ENDBRANCH   9  24
TORSDOF 4
ENDMDL
MODEL 6
REMARK VINA RESULT:      -7.3      3.122      6.359
REMARK  4 active torsions:
REMARK  status: ('A' for Active; 'I' for Inactive)
REMARK    1  A    between atoms: C_9  and  C_10 
REMARK    2  A    between atoms: C_20  and  C_21 
REMARK       I    between atoms: C_21  and  N_22 
REMARK    3  A    between atoms: N_22  and  C_23 
REMARK    4  A    between atoms: C_24  and  O_25 
ROOT
HETATM    1  C   UNL     1     -41.092  59.154 -50.069  1.00  0.00     0.070 C 
HETATM    2  C   UNL     1     -41.777  59.933 -51.167  1.00  0.00     0.037 A 
HETATM    3  N   UNL     1     -42.519  61.030 -50.746  1.00  0.00    -0.192 N 
HETATM    4  C   UNL     1     -43.173  61.854 -51.582  1.00  0.00     0.725 A 
HETATM    5  N   UNL     1     -43.136  61.607 -52.927  1.00  0.00    -0.084 N 
HETATM    6  N   UNL     1     -43.715  62.612 -53.620  1.00  0.00    -0.149 NA
HETATM    7  C   UNL     1     -44.183  63.365 -52.618  1.00  0.00     0.275 A 
HETATM    8  N   UNL     1     -43.861  62.943 -51.354  1.00  0.00    -0.054 NA
HETATM    9  C   UNL     1     -42.391  60.501 -53.539  1.00  0.00     0.203 A 
HETATM   10  C   UNL     1     -41.687  59.637 -52.491  1.00  0.00     0.062 A 
HETATM   11  H   UNL     1     -42.562  61.215 -49.747  1.00  0.00     0.184 HD
ENDROOT
BRANCH  10  12
HETATM   12  C   UNL     1     -40.987  58.389 -52.933  1.00  0.00     0.256 C 
HETATM   13  N   UNL     1     -41.724  57.233 -52.778  1.00  0.00    -0.321 N 
HETATM   14  H   UNL     1     -42.545  57.271 -52.194  1.00  0.00     0.169 HD
HETATM   15  O   UNL     1     -39.825  58.471 -53.312  1.00  0.00    -0.267 OA
BRANCH  13  16
HETATM   16  C   UNL     1     -41.324  55.919 -53.129  1.00  0.00     0.068 A 
HETATM   17  C   UNL     1     -41.228  55.402 -54.429  1.00  0.00     0.095 A 
HETATM   18  C   UNL     1     -40.759  54.100 -54.646  1.00  0.00     0.039 A 
HETATM   19  C   UNL     1     -40.441  53.277 -53.569  1.00  0.00     0.003 A 
HETATM   20  C   UNL     1     -40.590  53.754 -52.271  1.00  0.00     0.002 A 
HETATM   21  C   UNL     1     -41.034  55.062 -52.053  1.00  0.00     0.032 A 
BRANCH  17  22
HETATM   22  O   UNL     1     -41.598  56.092 -55.553  1.00  0.00    -0.354 OA
HETATM   23  C   UNL     1     -42.523  55.331 -56.327  1.00  0.00     0.210 C 
ENDBRANCH  17  22
ENDBRANCH  13  16
ENDBRANCH  10  12
BRANCH   9  24
HETATM   24  C   UNL     1     -43.296  59.721 -54.500  1.00  0.00    -0.017 A 
HETATM   25  C   UNL     1     -42.996  59.600 -55.895  1.00  0.00    -0.017 A 
HETATM   26  C   UNL     1     -43.847  58.802 -56.704  1.00  0.00    -0.025 A 
HETATM   27  C   UNL     1     -41.907  60.235 -56.545  1.00  0.00     0.013 A 
HETATM   28  C   UNL     1     -43.578  58.638 -58.073  1.00  0.00     0.012 A 
HETATM   29  C   UNL     1     -44.970  58.178 -56.146  1.00  0.00     0.012 A 
HETATM   30  C   UNL     1     -42.489  59.262 -58.673  1.00  0.00     0.001 A 
HETATM   31  C   UNL     1     -41.657  60.066 -57.911  1.00  0.00     0.001 A 
HETATM   32  C   UNL     1     -45.281  58.337 -54.801  1.00  0.00     0.002 A 
HETATM   33  C   UNL     1     -44.459  59.105 -53.988  1.00  0.00     0.010 A 
ENDBRANCH   9  24
TORSDOF 4
ENDMDL
MODEL 7
REMARK VINA RESULT:      -7.2      3.500      6.000
REMARK  4 active torsions:
REMARK  status: ('A' for Active; 'I' for Inactive)
REMARK    1  A    between atoms: C_9  and  C_10 
REMARK    2  A    between atoms: C_20  and  C_21 
REMARK       I    between atoms: C_21  and  N_22 
REMARK    3  A    between atoms: N_22  and  C_23 
REMARK    4  A    between atoms: C_24  and  O_25 
ROOT
HETATM    1  C   UNL     1     -46.069  61.361 -55.712  1.00  0.00     0.070 C 
HETATM    2  C   UNL     1     -45.668  60.406 -54.611  1.00  0.00     0.037 A 
HETATM    3  N   UNL     1     -46.092  60.757 -53.334  1.00  0.00    -0.192 N 
HETATM    4  C   UNL     1     -45.853  60.016 -52.239  1.00  0.00     0.725 A 
HETATM    5  N   UNL     1     -45.138  58.857 -52.361  1.00  0.00    -0.084 N 
HETATM    6  N   UNL     1     -45.124  58.171 -51.197  1.00  0.00    -0.149 NA
HETATM    7  C   UNL     1     -45.748  59.039 -50.392  1.00  0.00     0.275 A 
HETATM    8  N   UNL     1     -46.221  60.176 -50.994  1.00  0.00    -0.054 NA
HETATM    9  C   UNL     1     -44.628  58.335 -53.634  1.00  0.00     0.203 A 
HETATM   10  C   UNL     1     -44.964  59.261 -54.806  1.00  0.00     0.062 A 
HETATM   11  H   UNL     1     -46.614  61.624 -53.232  1.00  0.00     0.184 HD
ENDROOT
BRANCH  10  12
HETATM   12  C   UNL     1     -44.408  58.945 -56.161  1.00  0.00     0.256 C 
HETATM   13  N   UNL     1     -44.859  57.760 -56.703  1.00  0.00    -0.321 N 
HETATM   14  H   UNL     1     -45.322  57.105 -56.092  1.00  0.00     0.169 HD
HETATM   15  O   UNL     1     -43.565  59.695 -56.637  1.00  0.00    -0.267 OA
BRANCH  13  16
HETATM   16  C   UNL     1     -44.519  57.224 -57.971  1.00  0.00     0.068 A 
HETATM   17  C   UNL     1     -45.201  57.451 -59.176  1.00  0.00     0.095 A 
HETATM   18  C   UNL     1     -44.725  56.910 -60.377  1.00  0.00     0.039 A 
HETATM   19  C   UNL     1     -43.603  56.087 -60.384  1.00  0.00     0.003 A 
HETATM   20  C   UNL     1     -42.952  55.801 -59.188  1.00  0.00     0.002 A 
HETATM   21  C   UNL     1     -43.410  56.361 -57.991  1.00  0.00     0.032 A 
BRANCH  17  22
HETATM   22  O   UNL     1     -46.361  58.171 -59.271  1.00  0.00    -0.354 OA
HETATM   23  C   UNL     1     -46.085  59.523 -59.631  1.00  0.00     0.210 C 
ENDBRANCH  17  22
ENDBRANCH  13  16
ENDBRANCH  10  12
BRANCH   9  24
HETATM   24  C   UNL     1     -43.140  57.988 -53.507  1.00  0.00    -0.017 A 
HETATM   25  C   UNL     1     -42.626  56.706 -53.883  1.00  0.00    -0.017 A 
HETATM   26  C   UNL     1     -41.225  56.488 -53.801  1.00  0.00    -0.025 A 
HETATM   27  C   UNL     1     -43.417  55.616 -54.326  1.00  0.00     0.013 A 
HETATM   28  C   UNL     1     -40.674  55.252 -54.181  1.00  0.00     0.012 A 
HETATM   29  C   UNL     1     -40.379  57.499 -53.330  1.00  0.00     0.012 A 
HETATM   30  C   UNL     1     -41.481  54.211 -54.628  1.00  0.00     0.001 A 
HETATM   31  C   UNL     1     -42.854  54.390 -54.694  1.00  0.00     0.001 A 
HETATM   32  C   UNL     1     -40.890  58.726 -52.924  1.00  0.00     0.002 A 
HETATM   33  C   UNL     1     -42.256  58.967 -53.003  1.00  0.00     0.010 A 
ENDBRANCH   9  24
TORSDOF 4
ENDMDL
MODEL 8
REMARK VINA RESULT:      -7.2      3.051      5.582
REMARK  4 active torsions:
REMARK  status: ('A' for Active; 'I' for Inactive)
REMARK    1  A    between atoms: C_9  and  C_10 
REMARK    2  A    between atoms: C_20  and  C_21 
REMARK       I    between atoms: C_21  and  N_22 
REMARK    3  A    between atoms: N_22  and  C_23 
REMARK    4  A    between atoms: C_24  and  O_25 
ROOT
HETATM    1  C   UNL     1     -43.291  61.636 -54.856  1.00  0.00     0.070 C 
HETATM    2  C   UNL     1     -43.739  60.548 -53.907  1.00  0.00     0.037 A 
HETATM    3  N   UNL     1     -44.390  60.988 -52.761  1.00  0.00    -0.192 N 
HETATM    4  C   UNL     1     -44.881  60.164 -51.820  1.00  0.00     0.725 A 
HETATM    5  N   UNL     1     -44.725  58.814 -51.967  1.00  0.00    -0.084 N 
HETATM    6  N   UNL     1     -45.406  58.140 -51.014  1.00  0.00    -0.149 NA
HETATM    7  C   UNL     1     -45.844  59.155 -50.261  1.00  0.00     0.275 A 
HETATM    8  N   UNL     1     -45.555  60.411 -50.726  1.00  0.00    -0.054 NA
HETATM    9  C   UNL     1     -44.073  58.183 -53.121  1.00  0.00     0.203 A 
HETATM   10  C   UNL     1     -43.561  59.219 -54.124  1.00  0.00     0.062 A 
HETATM   11  H   UNL     1     -44.500  61.992 -52.636  1.00  0.00     0.184 HD
ENDROOT
BRANCH  10  12
HETATM   12  C   UNL     1     -42.755  58.753 -55.299  1.00  0.00     0.256 C 
HETATM   13  N   UNL     1     -43.506  58.321 -56.373  1.00  0.00    -0.321 N 
HETATM   14  H   UNL     1     -44.485  58.135 -56.221  1.00  0.00     0.169 HD
HETATM   15  O   UNL     1     -41.536  58.716 -55.196  1.00  0.00    -0.267 OA
BRANCH  13  16
HETATM   16  C   UNL     1     -43.014  57.849 -57.616  1.00  0.00     0.068 A 
HETATM   17  C   UNL     1     -42.260  58.586 -58.542  1.00  0.00     0.095 A 
HETATM   18  C   UNL     1     -41.780  57.982 -59.711  1.00  0.00     0.039 A 
HETATM   19  C   UNL     1     -42.097  56.659 -60.003  1.00  0.00     0.003 A 
HETATM   20  C   UNL     1     -42.897  55.934 -59.125  1.00  0.00     0.002 A 
HETATM   21  C   UNL     1     -43.356  56.526 -57.945  1.00  0.00     0.032 A 
BRANCH  17  22
HETATM   22  O   UNL     1     -41.964  59.915 -58.398  1.00  0.00    -0.354 OA
HETATM   23  C   UNL     1     -42.142  60.605 -59.633  1.00  0.00     0.210 C 
ENDBRANCH  17  22
ENDBRANCH  13  16
ENDBRANCH  10  12
BRANCH   9  24
HETATM   24  C   UNL     1     -43.016  57.179 -52.650  1.00  0.00    -0.017 A 
HETATM   25  C   UNL     1     -42.804  55.930 -53.317  1.00  0.00    -0.017 A 
HETATM   26  C   UNL     1     -41.756  55.087 -52.860  1.00  0.00    -0.025 A 
HETATM   27  C   UNL     1     -43.577  55.455 -54.407  1.00  0.00     0.013 A 
HETATM   28  C   UNL     1     -41.499  53.862 -53.499  1.00  0.00     0.012 A 
HETATM   29  C   UNL     1     -40.976  55.464 -51.760  1.00  0.00     0.012 A 
HETATM   30  C   UNL     1     -42.268  53.437 -54.578  1.00  0.00     0.001 A 
HETATM   31  C   UNL     1     -43.312  54.230 -55.028  1.00  0.00     0.001 A 
HETATM   32  C   UNL     1     -41.217  56.656 -51.088  1.00  0.00     0.002 A 
HETATM   33  C   UNL     1     -42.229  57.502 -51.522  1.00  0.00     0.010 A 
ENDBRANCH   9  24
TORSDOF 4
ENDMDL
MODEL 9
REMARK VINA RESULT:      -7.1      1.931      2.801
REMARK  4 active torsions:
REMARK  status: ('A' for Active; 'I' for Inactive)
REMARK    1  A    between atoms: C_9  and  C_10 
REMARK    2  A    between atoms: C_20  and  C_21 
REMARK       I    between atoms: C_21  and  N_22 
REMARK    3  A    between atoms: N_22  and  C_23 
REMARK    4  A    between atoms: C_24  and  O_25 
ROOT
HETATM    1  C   UNL     1     -42.569  53.558 -54.771  1.00  0.00     0.070 C 
HETATM    2  C   UNL     1     -42.322  54.494 -53.610  1.00  0.00     0.037 A 
HETATM    3  N   UNL     1     -41.877  53.888 -52.442  1.00  0.00    -0.192 N 
HETATM    4  C   UNL     1     -41.580  54.563 -51.318  1.00  0.00     0.725 A 
HETATM    5  N   UNL     1     -41.735  55.922 -51.295  1.00  0.00    -0.084 N 
HETATM    6  N   UNL     1     -41.250  56.446 -50.148  1.00  0.00    -0.149 NA
HETATM    7  C   UNL     1     -40.933  55.329 -49.483  1.00  0.00     0.275 A 
HETATM    8  N   UNL     1     -41.107  54.156 -50.169  1.00  0.00    -0.054 NA
HETATM    9  C   UNL     1     -42.182  56.718 -52.444  1.00  0.00     0.203 A 
HETATM   10  C   UNL     1     -42.486  55.842 -53.662  1.00  0.00     0.062 A 
HETATM   11  H   UNL     1     -41.770  52.876 -52.445  1.00  0.00     0.184 HD
ENDROOT
BRANCH  10  12
HETATM   12  C   UNL     1     -43.077  56.478 -54.883  1.00  0.00     0.256 C 
HETATM   13  N   UNL     1     -42.151  57.001 -55.762  1.00  0.00    -0.321 N 
HETATM   14  H   UNL     1     -41.205  57.124 -55.435  1.00  0.00     0.169 HD
HETATM   15  O   UNL     1     -44.296  56.556 -54.971  1.00  0.00    -0.267 OA
BRANCH  13  16
HETATM   16  C   UNL     1     -42.422  57.638 -56.999  1.00  0.00     0.068 A 
HETATM   17  C   UNL     1     -42.880  57.013 -58.169  1.00  0.00     0.095 A 
HETATM   18  C   UNL     1     -43.170  57.768 -59.313  1.00  0.00     0.039 A 
HETATM   19  C   UNL     1     -42.948  59.142 -59.326  1.00  0.00     0.003 A 
HETATM   20  C   UNL     1     -42.435  59.766 -58.194  1.00  0.00     0.002 A 
HETATM   21  C   UNL     1     -42.169  59.019 -57.042  1.00  0.00     0.032 A 
BRANCH  17  22
HETATM   22  O   UNL     1     -43.049  55.660 -58.295  1.00  0.00    -0.354 OA
HETATM   23  C   UNL     1     -43.753  55.352 -59.496  1.00  0.00     0.210 C 
ENDBRANCH  17  22
ENDBRANCH  13  16
ENDBRANCH  10  12
BRANCH   9  24
HETATM   24  C   UNL     1     -43.328  57.648 -52.031  1.00  0.00    -0.017 A 
HETATM   25  C   UNL     1     -43.389  59.013 -52.458  1.00  0.00    -0.017 A 
HETATM   26  C   UNL     1     -44.519  59.789 -52.089  1.00  0.00    -0.025 A 
HETATM   27  C   UNL     1     -42.387  59.667 -53.221  1.00  0.00     0.013 A 
HETATM   28  C   UNL     1     -44.631  61.127 -52.504  1.00  0.00     0.012 A 
HETATM   29  C   UNL     1     -45.531  59.230 -51.298  1.00  0.00     0.012 A 
HETATM   30  C   UNL     1     -43.636  61.729 -53.268  1.00  0.00     0.001 A 
HETATM   31  C   UNL     1     -42.510  61.001 -53.621  1.00  0.00     0.001 A 
HETATM   32  C   UNL     1     -45.444  57.918 -50.849  1.00  0.00     0.002 A 
HETATM   33  C   UNL     1     -44.352  57.137 -51.204  1.00  0.00     0.010 A 
ENDBRANCH   9  24
TORSDOF 4
ENDMDL
MODEL 10
REMARK VINA RESULT:      -7.1     16.144     19.350
REMARK  4 active torsions:
REMARK  status: ('A' for Active; 'I' for Inactive)
REMARK    1  A    between atoms: C_9  and  C_10 
REMARK    2  A    between atoms: C_20  and  C_21 
REMARK       I    between atoms: C_21  and  N_22 
REMARK    3  A    between atoms: N_22  and  C_23 
REMARK    4  A    between atoms: C_24  and  O_25 
ROOT
HETATM    1  C   UNL     1     -32.460  39.343 -52.743  1.00  0.00     0.070 C 
HETATM    2  C   UNL     1     -33.836  39.772 -53.197  1.00  0.00     0.037 A 
HETATM    3  N   UNL     1     -34.794  39.857 -52.195  1.00  0.00    -0.192 N 
HETATM    4  C   UNL     1     -36.062  40.248 -52.407  1.00  0.00     0.725 A 
HETATM    5  N   UNL     1     -36.459  40.566 -53.677  1.00  0.00    -0.084 N 
HETATM    6  N   UNL     1     -37.710  41.078 -53.681  1.00  0.00    -0.149 NA
HETATM    7  C   UNL     1     -38.043  40.922 -52.394  1.00  0.00     0.275 A 
HETATM    8  N   UNL     1     -37.058  40.429 -51.579  1.00  0.00    -0.054 NA
HETATM    9  C   UNL     1     -35.572  40.541 -54.846  1.00  0.00     0.203 A 
HETATM   10  C   UNL     1     -34.158  40.086 -54.480  1.00  0.00     0.062 A 
HETATM   11  H   UNL     1     -34.512  39.611 -51.249  1.00  0.00     0.184 HD
ENDROOT
BRANCH  10  12
HETATM   12  C   UNL     1     -33.156  39.880 -55.575  1.00  0.00     0.256 C 
HETATM   13  N   UNL     1     -33.005  38.568 -55.973  1.00  0.00    -0.321 N 
HETATM   14  H   UNL     1     -33.381  37.846 -55.377  1.00  0.00     0.169 HD
HETATM   15  O   UNL     1     -32.512  40.843 -55.969  1.00  0.00    -0.267 OA
BRANCH  13  16
HETATM   16  C   UNL     1     -32.150  38.085 -56.996  1.00  0.00     0.068 A 
HETATM   17  C   UNL     1     -30.761  37.910 -56.900  1.00  0.00     0.095 A 
HETATM   18  C   UNL     1     -30.036  37.364 -57.967  1.00  0.00     0.039 A 
HETATM   19  C   UNL     1     -30.674  37.045 -59.162  1.00  0.00     0.003 A 
HETATM   20  C   UNL     1     -32.040  37.271 -59.295  1.00  0.00     0.002 A 
HETATM   21  C   UNL     1     -32.770  37.792 -58.222  1.00  0.00     0.032 A 
BRANCH  17  22
HETATM   22  O   UNL     1     -30.021  38.271 -55.806  1.00  0.00    -0.354 OA
HETATM   23  C   UNL     1     -28.627  38.162 -56.084  1.00  0.00     0.210 C 
ENDBRANCH  17  22
ENDBRANCH  13  16
ENDBRANCH  10  12
BRANCH   9  24
HETATM   24  C   UNL     1     -36.219  39.746 -55.986  1.00  0.00    -0.017 A 
HETATM   25  C   UNL     1     -36.609  40.365 -57.217  1.00  0.00    -0.017 A 
HETATM   26  C   UNL     1     -37.137  39.546 -58.249  1.00  0.00    -0.025 A 
HETATM   27  C   UNL     1     -36.521  41.755 -57.486  1.00  0.00     0.013 A 
HETATM   28  C   UNL     1     -37.513  40.109 -59.481  1.00  0.00     0.012 A 
HETATM   29  C   UNL     1     -37.299  38.171 -58.046  1.00  0.00     0.012 A 
HETATM   30  C   UNL     1     -37.394  41.475 -59.715  1.00  0.00     0.001 A 
HETATM   31  C   UNL     1     -36.905  42.300 -58.715  1.00  0.00     0.001 A 
HETATM   32  C   UNL     1     -36.961  37.583 -56.833  1.00  0.00     0.002 A 
HETATM   33  C   UNL     1     -36.434  38.362 -55.811  1.00  0.00     0.010 A 
ENDBRANCH   9  24
TORSDOF 4
ENDMDL
