MODEL 1
REMARK VINA RESULT:      -8.0      0.000      0.000
REMARK  5 active torsions:
REMARK  status: ('A' for Active; 'I' for Inactive)
REMARK    1  A    between atoms: C_8  and  C_9 
REMARK    2  A    between atoms: N_10  and  N_11 
REMARK       I    between atoms: N_11  and  C_12 
REMARK    3  A    between atoms: C_12  and  C_13 
REMARK    4  A    between atoms: C_13  and  O_14 
REMARK    5  A    between atoms: O_14  and  C_15 
ROOT
HETATM    1  N   UNL     1     -42.789  56.068 -54.120  1.00  0.00    -0.246 N 
HETATM    2  C   UNL     1     -43.122  56.019 -55.468  1.00  0.00     0.261 C 
HETATM    3  O   UNL     1     -43.006  55.046 -56.211  1.00  0.00    -0.269 OA
HETATM    4  H   UNL     1     -43.168  56.849 -53.584  1.00  0.00     0.192 HD
ENDROOT
BRANCH   1   5
HETATM    5  N   UNL     1     -42.335  55.024 -53.350  1.00  0.00    -0.184 NA
HETATM    6  C   UNL     1     -41.063  54.785 -53.308  1.00  0.00     0.152 C 
BRANCH   6   7
HETATM    7  C   UNL     1     -40.566  53.673 -52.522  1.00  0.00     0.011 A 
HETATM    8  C   UNL     1     -40.293  52.347 -52.991  1.00  0.00     0.004 A 
HETATM    9  C   UNL     1     -40.411  51.702 -54.241  1.00  0.00     0.014 A 
HETATM   10  C   UNL     1     -39.820  51.607 -51.906  1.00  0.00     0.043 A 
HETATM   11  C   UNL     1     -40.051  50.355 -54.361  1.00  0.00     0.001 A 
HETATM   12  C   UNL     1     -39.577  49.648 -53.260  1.00  0.00     0.002 A 
HETATM   13  C   UNL     1     -39.452  50.260 -52.010  1.00  0.00     0.030 A 
HETATM   14  N   UNL     1     -39.809  52.449 -50.819  1.00  0.00    -0.364 N 
HETATM   15  H   UNL     1     -39.512  52.181 -49.889  1.00  0.00     0.165 HD
HETATM   16  C   UNL     1     -40.259  53.691 -51.175  1.00  0.00     0.102 A 
ENDBRANCH   6   7
ENDBRANCH   1   5
BRANCH   2  17
HETATM   17  C   UNL     1     -43.594  57.364 -56.017  1.00  0.00     0.280 C 
BRANCH  17  18
HETATM   18  O   UNL     1     -43.291  57.513 -57.399  1.00  0.00    -0.340 OA
BRANCH  18  19
HETATM   19  C   UNL     1     -44.336  57.359 -58.276  1.00  0.00     0.091 A 
HETATM   20  C   UNL     1     -44.094  56.593 -59.429  1.00  0.00     0.068 A 
HETATM   21 CL   UNL     1     -42.540  55.899 -59.731  1.00  0.00    -0.081 Cl
HETATM   22  C   UNL     1     -45.103  56.378 -60.373  1.00  0.00     0.046 A 
HETATM   23  C   UNL     1     -46.365  56.922 -60.161  1.00  0.00     0.012 A 
HETATM   24 BR   UNL     1     -47.738  56.638 -61.428  1.00  0.00    -0.051 Br
HETATM   25  C   UNL     1     -46.627  57.673 -59.016  1.00  0.00     0.022 A 
HETATM   26  C   UNL     1     -45.616  57.890 -58.075  1.00  0.00     0.040 A 
ENDBRANCH  18  19
ENDBRANCH  17  18
ENDBRANCH   2  17
TORSDOF 5
ENDMDL
MODEL 2
REMARK VINA RESULT:      -7.9      2.787      3.326
REMARK  5 active torsions:
REMARK  status: ('A' for Active; 'I' for Inactive)
REMARK    1  A    between atoms: C_8  and  C_9 
REMARK    2  A    between atoms: N_10  and  N_11 
REMARK       I    between atoms: N_11  and  C_12 
REMARK    3  A    between atoms: C_12  and  C_13 
REMARK    4  A    between atoms: C_13  and  O_14 
REMARK    5  A    between atoms: O_14  and  C_15 
ROOT
HETATM    1  N   UNL     1     -41.712  57.853 -52.735  1.00  0.00    -0.246 N 
HETATM    2  C   UNL     1     -41.036  58.968 -53.211  1.00  0.00     0.261 C 
HETATM    3  O   UNL     1     -39.825  59.171 -53.137  1.00  0.00    -0.269 OA
HETATM    4  H   UNL     1     -42.659  57.709 -53.084  1.00  0.00     0.192 HD
ENDROOT
BRANCH   1   5
HETATM    5  N   UNL     1     -41.151  56.739 -52.155  1.00  0.00    -0.184 NA
HETATM    6  C   UNL     1     -41.395  55.576 -52.670  1.00  0.00     0.152 C 
BRANCH   6   7
HETATM    7  C   UNL     1     -40.834  54.388 -52.059  1.00  0.00     0.011 A 
HETATM    8  C   UNL     1     -40.515  53.155 -52.717  1.00  0.00     0.004 A 
HETATM    9  C   UNL     1     -40.634  52.689 -54.044  1.00  0.00     0.014 A 
HETATM   10  C   UNL     1     -39.987  52.291 -51.756  1.00  0.00     0.043 A 
HETATM   11  C   UNL     1     -40.220  51.391 -54.361  1.00  0.00     0.001 A 
HETATM   12  C   UNL     1     -39.692  50.557 -53.381  1.00  0.00     0.002 A 
HETATM   13  C   UNL     1     -39.565  50.990 -52.057  1.00  0.00     0.030 A 
HETATM   14  N   UNL     1     -39.988  52.969 -50.560  1.00  0.00    -0.364 N 
HETATM   15  H   UNL     1     -39.659  52.586 -49.684  1.00  0.00     0.165 HD
HETATM   16  C   UNL     1     -40.498  54.227 -50.728  1.00  0.00     0.102 A 
ENDBRANCH   6   7
ENDBRANCH   1   5
BRANCH   2  17
HETATM   17  C   UNL     1     -41.967  60.028 -53.797  1.00  0.00     0.280 C 
BRANCH  17  18
HETATM   18  O   UNL     1     -43.031  59.450 -54.543  1.00  0.00    -0.340 OA
BRANCH  18  19
HETATM   19  C   UNL     1     -42.742  59.070 -55.831  1.00  0.00     0.091 A 
HETATM   20  C   UNL     1     -43.165  57.792 -56.230  1.00  0.00     0.068 A 
HETATM   21 CL   UNL     1     -43.994  56.742 -55.135  1.00  0.00    -0.081 Cl
HETATM   22  C   UNL     1     -42.919  57.326 -57.525  1.00  0.00     0.046 A 
HETATM   23  C   UNL     1     -42.254  58.145 -58.432  1.00  0.00     0.012 A 
HETATM   24 BR   UNL     1     -41.916  57.528 -60.186  1.00  0.00    -0.051 Br
HETATM   25  C   UNL     1     -41.839  59.422 -58.057  1.00  0.00     0.022 A 
HETATM   26  C   UNL     1     -42.083  59.884 -56.760  1.00  0.00     0.040 A 
ENDBRANCH  18  19
ENDBRANCH  17  18
ENDBRANCH   2  17
TORSDOF 5
ENDMDL
MODEL 3
REMARK VINA RESULT:      -7.8      2.290      2.559
REMARK  5 active torsions:
REMARK  status: ('A' for Active; 'I' for Inactive)
REMARK    1  A    between atoms: C_8  and  C_9 
REMARK    2  A    between atoms: N_10  and  N_11 
REMARK       I    between atoms: N_11  and  C_12 
REMARK    3  A    between atoms: C_12  and  C_13 
REMARK    4  A    between atoms: C_13  and  O_14 
REMARK    5  A    between atoms: O_14  and  C_15 
ROOT
HETATM    1  N   UNL     1     -42.458  55.592 -55.000  1.00  0.00    -0.246 N 
HETATM    2  C   UNL     1     -43.502  56.498 -54.863  1.00  0.00     0.261 C 
HETATM    3  O   UNL     1     -44.318  56.535 -53.943  1.00  0.00    -0.269 OA
HETATM    4  H   UNL     1     -41.727  55.835 -55.667  1.00  0.00     0.192 HD
ENDROOT
BRANCH   1   5
HETATM    5  N   UNL     1     -42.099  54.614 -54.103  1.00  0.00    -0.184 NA
HETATM    6  C   UNL     1     -40.887  54.597 -53.648  1.00  0.00     0.152 C 
BRANCH   6   7
HETATM    7  C   UNL     1     -40.481  53.559 -52.721  1.00  0.00     0.011 A 
HETATM    8  C   UNL     1     -40.209  52.187 -53.037  1.00  0.00     0.004 A 
HETATM    9  C   UNL     1     -40.249  51.424 -54.224  1.00  0.00     0.014 A 
HETATM   10  C   UNL     1     -39.841  51.549 -51.851  1.00  0.00     0.043 A 
HETATM   11  C   UNL     1     -39.916  50.066 -54.184  1.00  0.00     0.001 A 
HETATM   12  C   UNL     1     -39.547  49.462 -52.986  1.00  0.00     0.002 A 
HETATM   13  C   UNL     1     -39.502  50.192 -51.794  1.00  0.00     0.030 A 
HETATM   14  N   UNL     1     -39.890  52.494 -50.853  1.00  0.00    -0.364 N 
HETATM   15  H   UNL     1     -39.673  52.314 -49.882  1.00  0.00     0.165 HD
HETATM   16  C   UNL     1     -40.279  53.703 -51.362  1.00  0.00     0.102 A 
ENDBRANCH   6   7
ENDBRANCH   1   5
BRANCH   2  17
HETATM   17  C   UNL     1     -43.624  57.453 -56.049  1.00  0.00     0.280 C 
BRANCH  17  18
HETATM   18  O   UNL     1     -42.757  57.092 -57.117  1.00  0.00    -0.340 OA
BRANCH  18  19
HETATM   19  C   UNL     1     -42.519  58.056 -58.067  1.00  0.00     0.091 A 
HETATM   20  C   UNL     1     -42.393  57.623 -59.397  1.00  0.00     0.068 A 
HETATM   21 CL   UNL     1     -42.511  55.948 -59.808  1.00  0.00    -0.081 Cl
HETATM   22  C   UNL     1     -42.157  58.537 -60.429  1.00  0.00     0.046 A 
HETATM   23  C   UNL     1     -42.057  59.892 -60.133  1.00  0.00     0.012 A 
HETATM   24 BR   UNL     1     -41.740  61.137 -61.520  1.00  0.00    -0.051 Br
HETATM   25  C   UNL     1     -42.193  60.340 -58.821  1.00  0.00     0.022 A 
HETATM   26  C   UNL     1     -42.425  59.425 -57.790  1.00  0.00     0.040 A 
ENDBRANCH  18  19
ENDBRANCH  17  18
ENDBRANCH   2  17
TORSDOF 5
ENDMDL
MODEL 4
REMARK VINA RESULT:      -7.8      1.803      2.047
REMARK  5 active torsions:
REMARK  status: ('A' for Active; 'I' for Inactive)
REMARK    1  A    between atoms: C_8  and  C_9 
REMARK    2  A    between atoms: N_10  and  N_11 
REMARK       I    between atoms: N_11  and  C_12 
REMARK    3  A    between atoms: C_12  and  C_13 
REMARK    4  A    between atoms: C_13  and  O_14 
REMARK    5  A    between atoms: O_14  and  C_15 
ROOT
HETATM    1  N   UNL     1     -42.243  56.632 -54.474  1.00  0.00    -0.246 N 
HETATM    2  C   UNL     1     -41.897  57.964 -54.665  1.00  0.00     0.261 C 
HETATM    3  O   UNL     1     -41.103  58.614 -53.987  1.00  0.00    -0.269 OA
HETATM    4  H   UNL     1     -42.712  56.166 -55.250  1.00  0.00     0.192 HD
ENDROOT
BRANCH   1   5
HETATM    5  N   UNL     1     -41.715  55.774 -53.538  1.00  0.00    -0.184 NA
HETATM    6  C   UNL     1     -41.232  54.639 -53.933  1.00  0.00     0.152 C 
BRANCH   6   7
HETATM    7  C   UNL     1     -40.694  53.710 -52.959  1.00  0.00     0.011 A 
HETATM    8  C   UNL     1     -40.362  52.333 -53.182  1.00  0.00     0.004 A 
HETATM    9  C   UNL     1     -40.445  51.469 -54.295  1.00  0.00     0.014 A 
HETATM   10  C   UNL     1     -39.866  51.822 -51.982  1.00  0.00     0.043 A 
HETATM   11  C   UNL     1     -40.027  50.140 -54.171  1.00  0.00     0.001 A 
HETATM   12  C   UNL     1     -39.531  49.663 -52.961  1.00  0.00     0.002 A 
HETATM   13  C   UNL     1     -39.441  50.495 -51.841  1.00  0.00     0.030 A 
HETATM   14  N   UNL     1     -39.898  52.846 -51.064  1.00  0.00    -0.364 N 
HETATM   15  H   UNL     1     -39.596  52.763 -50.102  1.00  0.00     0.165 HD
HETATM   16  C   UNL     1     -40.398  53.983 -51.638  1.00  0.00     0.102 A 
ENDBRANCH   6   7
ENDBRANCH   1   5
BRANCH   2  17
HETATM   17  C   UNL     1     -42.681  58.629 -55.795  1.00  0.00     0.280 C 
BRANCH  17  18
HETATM   18  O   UNL     1     -42.067  58.426 -57.062  1.00  0.00    -0.340 OA
BRANCH  18  19
HETATM   19  C   UNL     1     -42.741  57.620 -57.947  1.00  0.00     0.091 A 
HETATM   20  C   UNL     1     -43.263  58.234 -59.098  1.00  0.00     0.068 A 
HETATM   21 CL   UNL     1     -43.080  59.932 -59.368  1.00  0.00    -0.081 Cl
HETATM   22  C   UNL     1     -43.957  57.489 -60.056  1.00  0.00     0.046 A 
HETATM   23  C   UNL     1     -44.122  56.120 -59.870  1.00  0.00     0.012 A 
HETATM   24 BR   UNL     1     -45.057  55.101 -61.159  1.00  0.00    -0.051 Br
HETATM   25  C   UNL     1     -43.599  55.493 -58.741  1.00  0.00     0.022 A 
HETATM   26  C   UNL     1     -42.908  56.241 -57.783  1.00  0.00     0.040 A 
ENDBRANCH  18  19
ENDBRANCH  17  18
ENDBRANCH   2  17
TORSDOF 5
ENDMDL
MODEL 5
REMARK VINA RESULT:      -7.4      1.696      2.495
REMARK  5 active torsions:
REMARK  status: ('A' for Active; 'I' for Inactive)
REMARK    1  A    between atoms: C_8  and  C_9 
REMARK    2  A    between atoms: N_10  and  N_11 
REMARK       I    between atoms: N_11  and  C_12 
REMARK    3  A    between atoms: C_12  and  C_13 
REMARK    4  A    between atoms: C_13  and  O_14 
REMARK    5  A    between atoms: O_14  and  C_15 
ROOT
HETATM    1  N   UNL     1     -42.342  55.861 -56.424  1.00  0.00    -0.246 N 
HETATM    2  C   UNL     1     -43.009  57.029 -56.077  1.00  0.00     0.261 C 
HETATM    3  O   UNL     1     -43.029  57.551 -54.963  1.00  0.00    -0.269 OA
HETATM    4  H   UNL     1     -42.210  55.689 -57.421  1.00  0.00     0.192 HD
ENDROOT
BRANCH   1   5
HETATM    5  N   UNL     1     -41.528  55.109 -55.611  1.00  0.00    -0.184 NA
HETATM    6  C   UNL     1     -42.045  54.124 -54.947  1.00  0.00     0.152 C 
BRANCH   6   7
HETATM    7  C   UNL     1     -41.209  53.335 -54.064  1.00  0.00     0.011 A 
HETATM    8  C   UNL     1     -41.124  53.448 -52.638  1.00  0.00     0.004 A 
HETATM    9  C   UNL     1     -41.736  54.283 -51.679  1.00  0.00     0.014 A 
HETATM   10  C   UNL     1     -40.210  52.490 -52.195  1.00  0.00     0.043 A 
HETATM   11  C   UNL     1     -41.420  54.128 -50.325  1.00  0.00     0.001 A 
HETATM   12  C   UNL     1     -40.508  53.159 -49.916  1.00  0.00     0.002 A 
HETATM   13  C   UNL     1     -39.884  52.320 -50.844  1.00  0.00     0.030 A 
HETATM   14  N   UNL     1     -39.753  51.823 -53.309  1.00  0.00    -0.364 N 
HETATM   15  H   UNL     1     -39.077  51.072 -53.290  1.00  0.00     0.165 HD
HETATM   16  C   UNL     1     -40.342  52.325 -54.437  1.00  0.00     0.102 A 
ENDBRANCH   6   7
ENDBRANCH   1   5
BRANCH   2  17
HETATM   17  C   UNL     1     -43.831  57.612 -57.224  1.00  0.00     0.280 C 
BRANCH  17  18
HETATM   18  O   UNL     1     -43.821  56.771 -58.371  1.00  0.00    -0.340 OA
BRANCH  18  19
HETATM   19  C   UNL     1     -44.894  56.879 -59.221  1.00  0.00     0.091 A 
HETATM   20  C   UNL     1     -45.297  55.712 -59.892  1.00  0.00     0.068 A 
HETATM   21 CL   UNL     1     -44.458  54.217 -59.668  1.00  0.00    -0.081 Cl
HETATM   22  C   UNL     1     -46.383  55.729 -60.772  1.00  0.00     0.046 A 
HETATM   23  C   UNL     1     -47.080  56.916 -60.975  1.00  0.00     0.012 A 
HETATM   24 BR   UNL     1     -48.553  56.952 -62.160  1.00  0.00    -0.051 Br
HETATM   25  C   UNL     1     -46.703  58.079 -60.307  1.00  0.00     0.022 A 
HETATM   26  C   UNL     1     -45.613  58.061 -59.431  1.00  0.00     0.040 A 
ENDBRANCH  18  19
ENDBRANCH  17  18
ENDBRANCH   2  17
TORSDOF 5
ENDMDL
MODEL 6
REMARK VINA RESULT:      -7.1      1.802      2.280
REMARK  5 active torsions:
REMARK  status: ('A' for Active; 'I' for Inactive)
REMARK    1  A    between atoms: C_8  and  C_9 
REMARK    2  A    between atoms: N_10  and  N_11 
REMARK       I    between atoms: N_11  and  C_12 
REMARK    3  A    between atoms: C_12  and  C_13 
REMARK    4  A    between atoms: C_13  and  O_14 
REMARK    5  A    between atoms: O_14  and  C_15 
ROOT
HETATM    1  N   UNL     1     -42.319  56.867 -56.090  1.00  0.00    -0.246 N 
HETATM    2  C   UNL     1     -42.896  56.486 -57.295  1.00  0.00     0.261 C 
HETATM    3  O   UNL     1     -42.884  55.357 -57.782  1.00  0.00    -0.269 OA
HETATM    4  H   UNL     1     -42.621  57.760 -55.701  1.00  0.00     0.192 HD
ENDROOT
BRANCH   1   5
HETATM    5  N   UNL     1     -41.688  56.045 -55.187  1.00  0.00    -0.184 NA
HETATM    6  C   UNL     1     -42.173  55.942 -53.990  1.00  0.00     0.152 C 
BRANCH   6   7
HETATM    7  C   UNL     1     -41.508  55.100 -53.016  1.00  0.00     0.011 A 
HETATM    8  C   UNL     1     -40.947  53.802 -53.247  1.00  0.00     0.004 A 
HETATM    9  C   UNL     1     -40.860  52.953 -54.371  1.00  0.00     0.014 A 
HETATM   10  C   UNL     1     -40.398  53.361 -52.041  1.00  0.00     0.043 A 
HETATM   11  C   UNL     1     -40.230  51.710 -54.253  1.00  0.00     0.001 A 
HETATM   12  C   UNL     1     -39.687  51.304 -53.037  1.00  0.00     0.002 A 
HETATM   13  C   UNL     1     -39.761  52.122 -51.906  1.00  0.00     0.030 A 
HETATM   14  N   UNL     1     -40.619  54.351 -51.112  1.00  0.00    -0.364 N 
HETATM   15  H   UNL     1     -40.329  54.305 -50.144  1.00  0.00     0.165 HD
HETATM   16  C   UNL     1     -41.289  55.398 -51.684  1.00  0.00     0.102 A 
ENDBRANCH   6   7
ENDBRANCH   1   5
BRANCH   2  17
HETATM   17  C   UNL     1     -43.515  57.656 -58.058  1.00  0.00     0.280 C 
BRANCH  17  18
HETATM   18  O   UNL     1     -44.915  57.762 -57.830  1.00  0.00    -0.340 OA
BRANCH  18  19
HETATM   19  C   UNL     1     -45.733  57.511 -58.904  1.00  0.00     0.091 A 
HETATM   20  C   UNL     1     -46.547  58.567 -59.347  1.00  0.00     0.068 A 
HETATM   21 CL   UNL     1     -46.529  60.103 -58.553  1.00  0.00    -0.081 Cl
HETATM   22  C   UNL     1     -47.405  58.403 -60.438  1.00  0.00     0.046 A 
HETATM   23  C   UNL     1     -47.444  57.179 -61.099  1.00  0.00     0.012 A 
HETATM   24 BR   UNL     1     -48.599  56.945 -62.578  1.00  0.00    -0.051 Br
HETATM   25  C   UNL     1     -46.634  56.125 -60.683  1.00  0.00     0.022 A 
HETATM   26  C   UNL     1     -45.779  56.291 -59.589  1.00  0.00     0.040 A 
ENDBRANCH  18  19
ENDBRANCH  17  18
ENDBRANCH   2  17
TORSDOF 5
ENDMDL
MODEL 7
REMARK VINA RESULT:      -7.1      5.506      6.550
REMARK  5 active torsions:
REMARK  status: ('A' for Active; 'I' for Inactive)
REMARK    1  A    between atoms: C_8  and  C_9 
REMARK    2  A    between atoms: N_10  and  N_11 
REMARK       I    between atoms: N_11  and  C_12 
REMARK    3  A    between atoms: C_12  and  C_13 
REMARK    4  A    between atoms: C_13  and  O_14 
REMARK    5  A    between atoms: O_14  and  C_15 
ROOT
HETATM    1  N   UNL     1     -42.138  57.990 -52.646  1.00  0.00    -0.246 N 
HETATM    2  C   UNL     1     -41.717  59.095 -53.375  1.00  0.00     0.261 C 
HETATM    3  O   UNL     1     -40.569  59.324 -53.751  1.00  0.00    -0.269 OA
HETATM    4  H   UNL     1     -43.142  57.812 -52.624  1.00  0.00     0.192 HD
ENDROOT
BRANCH   1   5
HETATM    5  N   UNL     1     -41.368  56.916 -52.268  1.00  0.00    -0.184 NA
HETATM    6  C   UNL     1     -41.934  55.760 -52.123  1.00  0.00     0.152 C 
BRANCH   6   7
HETATM    7  C   UNL     1     -41.145  54.621 -51.701  1.00  0.00     0.011 A 
HETATM    8  C   UNL     1     -40.732  53.516 -52.515  1.00  0.00     0.004 A 
HETATM    9  C   UNL     1     -40.934  53.160 -53.866  1.00  0.00     0.014 A 
HETATM   10  C   UNL     1     -39.981  52.658 -51.709  1.00  0.00     0.043 A 
HETATM   11  C   UNL     1     -40.379  51.974 -54.359  1.00  0.00     0.001 A 
HETATM   12  C   UNL     1     -39.630  51.144 -53.530  1.00  0.00     0.002 A 
HETATM   13  C   UNL     1     -39.416  51.469 -52.187  1.00  0.00     0.030 A 
HETATM   14  N   UNL     1     -39.942  53.217 -50.453  1.00  0.00    -0.364 N 
HETATM   15  H   UNL     1     -39.465  52.810 -49.659  1.00  0.00     0.165 HD
HETATM   16  C   UNL     1     -40.641  54.393 -50.434  1.00  0.00     0.102 A 
ENDBRANCH   6   7
ENDBRANCH   1   5
BRANCH   2  17
HETATM   17  C   UNL     1     -42.833  60.109 -53.623  1.00  0.00     0.280 C 
BRANCH  17  18
HETATM   18  O   UNL     1     -42.641  61.307 -52.881  1.00  0.00    -0.340 OA
BRANCH  18  19
HETATM   19  C   UNL     1     -43.545  61.560 -51.879  1.00  0.00     0.091 A 
HETATM   20  C   UNL     1     -43.162  61.215 -50.572  1.00  0.00     0.068 A 
HETATM   21 CL   UNL     1     -41.628  60.484 -50.253  1.00  0.00    -0.081 Cl
HETATM   22  C   UNL     1     -44.017  61.443 -49.490  1.00  0.00     0.046 A 
HETATM   23  C   UNL     1     -45.259  62.029 -49.711  1.00  0.00     0.012 A 
HETATM   24 BR   UNL     1     -46.424  62.345 -48.257  1.00  0.00    -0.051 Br
HETATM   25  C   UNL     1     -45.650  62.390 -50.999  1.00  0.00     0.022 A 
HETATM   26  C   UNL     1     -44.794  62.158 -52.081  1.00  0.00     0.040 A 
ENDBRANCH  18  19
ENDBRANCH  17  18
ENDBRANCH   2  17
TORSDOF 5
ENDMDL
MODEL 8
REMARK VINA RESULT:      -7.0      3.436      3.871
REMARK  5 active torsions:
REMARK  status: ('A' for Active; 'I' for Inactive)
REMARK    1  A    between atoms: C_8  and  C_9 
REMARK    2  A    between atoms: N_10  and  N_11 
REMARK       I    between atoms: N_11  and  C_12 
REMARK    3  A    between atoms: C_12  and  C_13 
REMARK    4  A    between atoms: C_13  and  O_14 
REMARK    5  A    between atoms: O_14  and  C_15 
ROOT
HETATM    1  N   UNL     1     -42.140  56.025 -56.602  1.00  0.00    -0.246 N 
HETATM    2  C   UNL     1     -42.442  57.370 -56.776  1.00  0.00     0.261 C 
HETATM    3  O   UNL     1     -42.258  58.269 -55.956  1.00  0.00    -0.269 OA
HETATM    4  H   UNL     1     -42.115  55.450 -57.444  1.00  0.00     0.192 HD
ENDROOT
BRANCH   1   5
HETATM    5  N   UNL     1     -41.517  55.459 -55.515  1.00  0.00    -0.184 NA
HETATM    6  C   UNL     1     -42.245  54.961 -54.567  1.00  0.00     0.152 C 
BRANCH   6   7
HETATM    7  C   UNL     1     -41.609  54.382 -53.400  1.00  0.00     0.011 A 
HETATM    8  C   UNL     1     -40.914  53.130 -53.336  1.00  0.00     0.004 A 
HETATM    9  C   UNL     1     -40.640  52.108 -54.270  1.00  0.00     0.014 A 
HETATM   10  C   UNL     1     -40.451  52.974 -52.028  1.00  0.00     0.043 A 
HETATM   11  C   UNL     1     -39.916  50.980 -53.869  1.00  0.00     0.001 A 
HETATM   12  C   UNL     1     -39.464  50.858 -52.558  1.00  0.00     0.002 A 
HETATM   13  C   UNL     1     -39.723  51.853 -51.611  1.00  0.00     0.030 A 
HETATM   14  N   UNL     1     -40.852  54.084 -51.323  1.00  0.00    -0.364 N 
HETATM   15  H   UNL     1     -40.657  54.243 -50.344  1.00  0.00     0.165 HD
HETATM   16  C   UNL     1     -41.552  54.935 -52.135  1.00  0.00     0.102 A 
ENDBRANCH   6   7
ENDBRANCH   1   5
BRANCH   2  17
HETATM   17  C   UNL     1     -43.137  57.660 -58.105  1.00  0.00     0.280 C 
BRANCH  17  18
HETATM   18  O   UNL     1     -43.561  59.014 -58.202  1.00  0.00    -0.340 OA
BRANCH  18  19
HETATM   19  C   UNL     1     -42.872  59.811 -59.083  1.00  0.00     0.091 A 
HETATM   20  C   UNL     1     -42.380  61.031 -58.590  1.00  0.00     0.068 A 
HETATM   21 CL   UNL     1     -42.655  61.509 -56.952  1.00  0.00    -0.081 Cl
HETATM   22  C   UNL     1     -41.662  61.901 -59.416  1.00  0.00     0.046 A 
HETATM   23  C   UNL     1     -41.423  61.546 -60.740  1.00  0.00     0.012 A 
HETATM   24 BR   UNL     1     -40.452  62.713 -61.866  1.00  0.00    -0.051 Br
HETATM   25  C   UNL     1     -41.892  60.334 -61.242  1.00  0.00     0.022 A 
HETATM   26  C   UNL     1     -42.613  59.467 -60.415  1.00  0.00     0.040 A 
ENDBRANCH  18  19
ENDBRANCH  17  18
ENDBRANCH   2  17
TORSDOF 5
ENDMDL
MODEL 9
REMARK VINA RESULT:      -7.0      4.520      9.613
REMARK  5 active torsions:
REMARK  status: ('A' for Active; 'I' for Inactive)
REMARK    1  A    between atoms: C_8  and  C_9 
REMARK    2  A    between atoms: N_10  and  N_11 
REMARK       I    between atoms: N_11  and  C_12 
REMARK    3  A    between atoms: C_12  and  C_13 
REMARK    4  A    between atoms: C_13  and  O_14 
REMARK    5  A    between atoms: O_14  and  C_15 
ROOT
HETATM    1  N   UNL     1     -42.170  55.305 -56.753  1.00  0.00    -0.246 N 
HETATM    2  C   UNL     1     -41.644  55.462 -55.476  1.00  0.00     0.261 C 
HETATM    3  O   UNL     1     -41.715  56.473 -54.780  1.00  0.00    -0.269 OA
HETATM    4  H   UNL     1     -42.251  54.349 -57.099  1.00  0.00     0.192 HD
ENDROOT
BRANCH   1   5
HETATM    5  N   UNL     1     -42.924  56.221 -57.447  1.00  0.00    -0.184 NA
HETATM    6  C   UNL     1     -43.020  56.106 -58.733  1.00  0.00     0.152 C 
BRANCH   6   7
HETATM    7  C   UNL     1     -43.789  57.076 -59.487  1.00  0.00     0.011 A 
HETATM    8  C   UNL     1     -43.305  58.301 -60.051  1.00  0.00     0.004 A 
HETATM    9  C   UNL     1     -42.051  58.951 -60.064  1.00  0.00     0.014 A 
HETATM   10  C   UNL     1     -44.377  58.917 -60.699  1.00  0.00     0.043 A 
HETATM   11  C   UNL     1     -41.915  60.177 -60.723  1.00  0.00     0.001 A 
HETATM   12  C   UNL     1     -43.003  60.761 -61.366  1.00  0.00     0.002 A 
HETATM   13  C   UNL     1     -44.257  60.142 -61.367  1.00  0.00     0.030 A 
HETATM   14  N   UNL     1     -45.471  58.101 -60.533  1.00  0.00    -0.364 N 
HETATM   15  H   UNL     1     -46.394  58.297 -60.899  1.00  0.00     0.165 HD
HETATM   16  C   UNL     1     -45.132  56.995 -59.803  1.00  0.00     0.102 A 
ENDBRANCH   6   7
ENDBRANCH   1   5
BRANCH   2  17
HETATM   17  C   UNL     1     -40.853  54.245 -55.001  1.00  0.00     0.280 C 
BRANCH  17  18
HETATM   18  O   UNL     1     -41.614  53.421 -54.126  1.00  0.00    -0.340 OA
BRANCH  18  19
HETATM   19  C   UNL     1     -41.385  53.581 -52.781  1.00  0.00     0.091 A 
HETATM   20  C   UNL     1     -40.375  52.792 -52.207  1.00  0.00     0.068 A 
HETATM   21 CL   UNL     1     -39.479  51.657 -53.156  1.00  0.00    -0.081 Cl
HETATM   22  C   UNL     1     -40.070  52.893 -50.846  1.00  0.00     0.046 A 
HETATM   23  C   UNL     1     -40.772  53.796 -50.054  1.00  0.00     0.012 A 
HETATM   24 BR   UNL     1     -40.369  53.945 -48.214  1.00  0.00    -0.051 Br
HETATM   25  C   UNL     1     -41.768  54.597 -50.610  1.00  0.00     0.022 A 
HETATM   26  C   UNL     1     -42.074  54.491 -51.970  1.00  0.00     0.040 A 
ENDBRANCH  18  19
ENDBRANCH  17  18
ENDBRANCH   2  17
TORSDOF 5
ENDMDL
MODEL 10
REMARK VINA RESULT:      -7.0      1.716      2.009
REMARK  5 active torsions:
REMARK  status: ('A' for Active; 'I' for Inactive)
REMARK    1  A    between atoms: C_8  and  C_9 
REMARK    2  A    between atoms: N_10  and  N_11 
REMARK       I    between atoms: N_11  and  C_12 
REMARK    3  A    between atoms: C_12  and  C_13 
REMARK    4  A    between atoms: C_13  and  O_14 
REMARK    5  A    between atoms: O_14  and  C_15 
ROOT
HETATM    1  N   UNL     1     -42.401  56.069 -54.479  1.00  0.00    -0.246 N 
HETATM    2  C   UNL     1     -42.803  55.917 -55.799  1.00  0.00     0.261 C 
HETATM    3  O   UNL     1     -42.857  54.860 -56.427  1.00  0.00    -0.269 OA
HETATM    4  H   UNL     1     -42.643  56.949 -54.025  1.00  0.00     0.192 HD
ENDROOT
BRANCH   1   5
HETATM    5  N   UNL     1     -42.054  55.064 -53.607  1.00  0.00    -0.184 NA
HETATM    6  C   UNL     1     -40.826  54.653 -53.583  1.00  0.00     0.152 C 
BRANCH   6   7
HETATM    7  C   UNL     1     -40.445  53.577 -52.690  1.00  0.00     0.011 A 
HETATM    8  C   UNL     1     -40.170  52.218 -53.054  1.00  0.00     0.004 A 
HETATM    9  C   UNL     1     -40.184  51.503 -54.271  1.00  0.00     0.014 A 
HETATM   10  C   UNL     1     -39.831  51.531 -51.886  1.00  0.00     0.043 A 
HETATM   11  C   UNL     1     -39.857  50.143 -54.278  1.00  0.00     0.001 A 
HETATM   12  C   UNL     1     -39.518  49.490 -53.097  1.00  0.00     0.002 A 
HETATM   13  C   UNL     1     -39.498  50.171 -51.876  1.00  0.00     0.030 A 
HETATM   14  N   UNL     1     -39.902  52.435 -50.852  1.00  0.00    -0.364 N 
HETATM   15  H   UNL     1     -39.707  52.216 -49.884  1.00  0.00     0.165 HD
HETATM   16  C   UNL     1     -40.274  53.666 -51.321  1.00  0.00     0.102 A 
ENDBRANCH   6   7
ENDBRANCH   1   5
BRANCH   2  17
HETATM   17  C   UNL     1     -43.116  57.245 -56.486  1.00  0.00     0.280 C 
BRANCH  17  18
HETATM   18  O   UNL     1     -44.505  57.552 -56.448  1.00  0.00    -0.340 OA
BRANCH  18  19
HETATM   19  C   UNL     1     -45.057  58.040 -57.606  1.00  0.00     0.091 A 
HETATM   20  C   UNL     1     -45.602  59.334 -57.558  1.00  0.00     0.068 A 
HETATM   21 CL   UNL     1     -45.593  60.254 -56.094  1.00  0.00    -0.081 Cl
HETATM   22  C   UNL     1     -46.179  59.912 -58.693  1.00  0.00     0.046 A 
HETATM   23  C   UNL     1     -46.203  59.199 -59.887  1.00  0.00     0.012 A 
HETATM   24 BR   UNL     1     -46.979  59.970 -61.429  1.00  0.00    -0.051 Br
HETATM   25  C   UNL     1     -45.655  57.920 -59.956  1.00  0.00     0.022 A 
HETATM   26  C   UNL     1     -45.082  57.342 -58.819  1.00  0.00     0.040 A 
ENDBRANCH  18  19
ENDBRANCH  17  18
ENDBRANCH   2  17
TORSDOF 5
ENDMDL
