MODEL 1
REMARK VINA RESULT:      -8.7      0.000      0.000
REMARK  6 active torsions:
REMARK  status: ('A' for Active; 'I' for Inactive)
REMARK    1  A    between atoms: C_4  and  O_5 
REMARK    2  A    between atoms: O_5  and  C_6 
REMARK    3  A    between atoms: C_6  and  C_7 
REMARK       I    between atoms: C_7  and  N_8 
REMARK    4  A    between atoms: N_8  and  N_9 
REMARK       I    between atoms: N_9  and  C_10 
REMARK    5  A    between atoms: C_10  and  C_11 
REMARK    6  A    between atoms: C_12  and  C_13 
ROOT
HETATM    1  N   UNL     1     -43.850  55.974 -53.824  1.00  0.00    -0.263 N 
HETATM    2  C   UNL     1     -42.513  56.228 -53.575  1.00  0.00     0.274 C 
HETATM    3  O   UNL     1     -41.757  56.616 -54.464  1.00  0.00    -0.266 OA
HETATM    4  H   UNL     1     -44.516  55.978 -53.051  1.00  0.00     0.190 HD
ENDROOT
BRANCH   1   5
HETATM    5  N   UNL     1     -44.373  56.395 -55.063  1.00  0.00    -0.265 N 
HETATM    6  C   UNL     1     -44.912  57.671 -55.109  1.00  0.00     0.260 C 
HETATM    7  O   UNL     1     -45.058  58.348 -54.091  1.00  0.00    -0.269 OA
HETATM    8  H   UNL     1     -43.937  55.976 -55.884  1.00  0.00     0.190 HD
BRANCH   6   9
HETATM    9  C   UNL     1     -45.318  58.123 -56.508  1.00  0.00     0.280 C 
BRANCH   9  10
HETATM   10  O   UNL     1     -44.244  57.832 -57.400  1.00  0.00    -0.342 OA
BRANCH  10  11
HETATM   11  C   UNL     1     -44.608  57.000 -58.421  1.00  0.00     0.069 A 
HETATM   12  C   UNL     1     -45.798  57.154 -59.136  1.00  0.00     0.043 A 
HETATM   13  C   UNL     1     -46.087  56.303 -60.211  1.00  0.00    -0.059 A 
HETATM   14  C   UNL     1     -47.340  56.488 -61.016  1.00  0.00     0.048 C 
HETATM   15  C   UNL     1     -45.156  55.323 -60.577  1.00  0.00     0.007 A 
HETATM   16  C   UNL     1     -43.957  55.187 -59.873  1.00  0.00     0.003 A 
HETATM   17  C   UNL     1     -43.681  56.033 -58.801  1.00  0.00     0.037 A 
ENDBRANCH  10  11
ENDBRANCH   9  10
ENDBRANCH   6   9
ENDBRANCH   1   5
BRANCH   2  18
HETATM   18  C   UNL     1     -42.100  56.014 -52.197  1.00  0.00     0.081 A 
HETATM   19  C   UNL     1     -41.442  54.881 -51.620  1.00  0.00     0.104 A 
HETATM   20  N   UNL     1     -41.293  55.041 -50.292  1.00  0.00    -0.174 NA
HETATM   21  N   UNL     1     -41.807  56.245 -50.031  1.00  0.00    -0.288 N 
HETATM   22  H   UNL     1     -41.795  56.574 -49.070  1.00  0.00     0.188 HD
HETATM   23  C   UNL     1     -42.301  56.875 -51.131  1.00  0.00     0.128 A 
BRANCH  19  24
HETATM   24  C   UNL     1     -40.933  53.672 -52.268  1.00  0.00    -0.004 A 
HETATM   25  C   UNL     1     -41.300  53.344 -53.580  1.00  0.00     0.015 A 
HETATM   26  C   UNL     1     -40.791  52.196 -54.194  1.00  0.00     0.024 A 
HETATM   27  C   UNL     1     -39.905  51.374 -53.501  1.00  0.00     0.034 A 
HETATM   28 CL   UNL     1     -39.277  49.963 -54.258  1.00  0.00    -0.084 Cl
HETATM   29  C   UNL     1     -39.519  51.692 -52.200  1.00  0.00     0.024 A 
HETATM   30  C   UNL     1     -40.029  52.841 -51.588  1.00  0.00     0.015 A 
ENDBRANCH  19  24
ENDBRANCH   2  18
TORSDOF 6
ENDMDL
MODEL 2
REMARK VINA RESULT:      -8.7      1.250      1.596
REMARK  6 active torsions:
REMARK  status: ('A' for Active; 'I' for Inactive)
REMARK    1  A    between atoms: C_4  and  O_5 
REMARK    2  A    between atoms: O_5  and  C_6 
REMARK    3  A    between atoms: C_6  and  C_7 
REMARK       I    between atoms: C_7  and  N_8 
REMARK    4  A    between atoms: N_8  and  N_9 
REMARK       I    between atoms: N_9  and  C_10 
REMARK    5  A    between atoms: C_10  and  C_11 
REMARK    6  A    between atoms: C_12  and  C_13 
ROOT
HETATM    1  N   UNL     1     -41.750  56.802 -54.204  1.00  0.00    -0.263 N 
HETATM    2  C   UNL     1     -42.518  56.125 -53.274  1.00  0.00     0.274 C 
HETATM    3  O   UNL     1     -43.628  55.679 -53.560  1.00  0.00    -0.266 OA
HETATM    4  H   UNL     1     -40.741  56.871 -54.070  1.00  0.00     0.190 HD
ENDROOT
BRANCH   1   5
HETATM    5  N   UNL     1     -42.171  56.761 -55.549  1.00  0.00    -0.265 N 
HETATM    6  C   UNL     1     -42.300  57.979 -56.197  1.00  0.00     0.260 C 
HETATM    7  O   UNL     1     -42.193  59.047 -55.595  1.00  0.00    -0.269 OA
HETATM    8  H   UNL     1     -41.916  55.915 -56.059  1.00  0.00     0.190 HD
BRANCH   6   9
HETATM    9  C   UNL     1     -42.607  57.860 -57.687  1.00  0.00     0.280 C 
BRANCH   9  10
HETATM   10  O   UNL     1     -44.019  57.960 -57.861  1.00  0.00    -0.342 OA
BRANCH  10  11
HETATM   11  C   UNL     1     -44.520  57.019 -58.715  1.00  0.00     0.069 A 
HETATM   12  C   UNL     1     -45.712  57.195 -59.420  1.00  0.00     0.043 A 
HETATM   13  C   UNL     1     -46.145  56.216 -60.326  1.00  0.00    -0.059 A 
HETATM   14  C   UNL     1     -47.400  56.415 -61.123  1.00  0.00     0.048 C 
HETATM   15  C   UNL     1     -45.351  55.082 -60.536  1.00  0.00     0.007 A 
HETATM   16  C   UNL     1     -44.148  54.921 -59.846  1.00  0.00     0.003 A 
HETATM   17  C   UNL     1     -43.730  55.895 -58.942  1.00  0.00     0.037 A 
ENDBRANCH  10  11
ENDBRANCH   9  10
ENDBRANCH   6   9
ENDBRANCH   1   5
BRANCH   2  18
HETATM   18  C   UNL     1     -41.901  55.981 -51.965  1.00  0.00     0.081 A 
HETATM   19  C   UNL     1     -41.112  54.900 -51.456  1.00  0.00     0.104 A 
HETATM   20  N   UNL     1     -40.780  55.114 -50.170  1.00  0.00    -0.174 NA
HETATM   21  N   UNL     1     -41.308  56.304 -49.873  1.00  0.00    -0.288 N 
HETATM   22  H   UNL     1     -41.174  56.668 -48.935  1.00  0.00     0.188 HD
HETATM   23  C   UNL     1     -41.987  56.870 -50.908  1.00  0.00     0.128 A 
BRANCH  19  24
HETATM   24  C   UNL     1     -40.645  53.690 -52.135  1.00  0.00    -0.004 A 
HETATM   25  C   UNL     1     -39.956  52.688 -51.438  1.00  0.00     0.015 A 
HETATM   26  C   UNL     1     -39.534  51.528 -52.096  1.00  0.00     0.024 A 
HETATM   27  C   UNL     1     -39.806  51.362 -53.451  1.00  0.00     0.034 A 
HETATM   28 CL   UNL     1     -39.288  49.933 -54.258  1.00  0.00    -0.084 Cl
HETATM   29  C   UNL     1     -40.501  52.342 -54.157  1.00  0.00     0.024 A 
HETATM   30  C   UNL     1     -40.923  53.500 -53.498  1.00  0.00     0.015 A 
ENDBRANCH  19  24
ENDBRANCH   2  18
TORSDOF 6
ENDMDL
MODEL 3
REMARK VINA RESULT:      -8.6      1.850      2.574
REMARK  6 active torsions:
REMARK  status: ('A' for Active; 'I' for Inactive)
REMARK    1  A    between atoms: C_4  and  O_5 
REMARK    2  A    between atoms: O_5  and  C_6 
REMARK    3  A    between atoms: C_6  and  C_7 
REMARK       I    between atoms: C_7  and  N_8 
REMARK    4  A    between atoms: N_8  and  N_9 
REMARK       I    between atoms: N_9  and  C_10 
REMARK    5  A    between atoms: C_10  and  C_11 
REMARK    6  A    between atoms: C_12  and  C_13 
ROOT
HETATM    1  N   UNL     1     -42.260  56.290 -51.999  1.00  0.00    -0.263 N 
HETATM    2  C   UNL     1     -42.512  55.055 -51.428  1.00  0.00     0.274 C 
HETATM    3  O   UNL     1     -43.445  54.349 -51.810  1.00  0.00    -0.266 OA
HETATM    4  H   UNL     1     -41.331  56.702 -51.916  1.00  0.00     0.190 HD
ENDROOT
BRANCH   1   5
HETATM    5  N   UNL     1     -42.953  56.613 -53.183  1.00  0.00    -0.265 N 
HETATM    6  C   UNL     1     -42.247  56.489 -54.369  1.00  0.00     0.260 C 
HETATM    7  O   UNL     1     -41.041  56.247 -54.382  1.00  0.00    -0.269 OA
HETATM    8  H   UNL     1     -43.962  56.469 -53.150  1.00  0.00     0.190 HD
BRANCH   6   9
HETATM    9  C   UNL     1     -43.094  56.703 -55.620  1.00  0.00     0.280 C 
BRANCH   9  10
HETATM   10  O   UNL     1     -42.239  57.162 -56.664  1.00  0.00    -0.342 OA
BRANCH  10  11
HETATM   11  C   UNL     1     -42.725  56.889 -57.912  1.00  0.00     0.069 A 
HETATM   12  C   UNL     1     -43.396  55.704 -58.221  1.00  0.00     0.043 A 
HETATM   13  C   UNL     1     -43.922  55.507 -59.505  1.00  0.00    -0.059 A 
HETATM   14  C   UNL     1     -44.684  54.259 -59.835  1.00  0.00     0.048 C 
HETATM   15  C   UNL     1     -43.795  56.526 -60.458  1.00  0.00     0.007 A 
HETATM   16  C   UNL     1     -43.143  57.718 -60.138  1.00  0.00     0.003 A 
HETATM   17  C   UNL     1     -42.617  57.902 -58.861  1.00  0.00     0.037 A 
ENDBRANCH  10  11
ENDBRANCH   9  10
ENDBRANCH   6   9
ENDBRANCH   1   5
BRANCH   2  18
HETATM   18  C   UNL     1     -41.587  54.672 -50.374  1.00  0.00     0.081 A 
HETATM   19  C   UNL     1     -40.644  53.595 -50.350  1.00  0.00     0.104 A 
HETATM   20  N   UNL     1     -40.019  53.532 -49.160  1.00  0.00    -0.174 NA
HETATM   21  N   UNL     1     -40.519  54.551 -48.456  1.00  0.00    -0.288 N 
HETATM   22  H   UNL     1     -40.177  54.693 -47.511  1.00  0.00     0.188 HD
HETATM   23  C   UNL     1     -41.457  55.269 -49.131  1.00  0.00     0.128 A 
BRANCH  19  24
HETATM   24  C   UNL     1     -40.296  52.641 -51.405  1.00  0.00    -0.004 A 
HETATM   25  C   UNL     1     -39.931  51.324 -51.098  1.00  0.00     0.015 A 
HETATM   26  C   UNL     1     -39.621  50.417 -52.118  1.00  0.00     0.024 A 
HETATM   27  C   UNL     1     -39.684  50.823 -53.448  1.00  0.00     0.034 A 
HETATM   28 CL   UNL     1     -39.305  49.706 -54.701  1.00  0.00    -0.084 Cl
HETATM   29  C   UNL     1     -40.058  52.126 -53.772  1.00  0.00     0.024 A 
HETATM   30  C   UNL     1     -40.368  53.030 -52.751  1.00  0.00     0.015 A 
ENDBRANCH  19  24
ENDBRANCH   2  18
TORSDOF 6
ENDMDL
MODEL 4
REMARK VINA RESULT:      -8.4      2.374      3.069
REMARK  6 active torsions:
REMARK  status: ('A' for Active; 'I' for Inactive)
REMARK    1  A    between atoms: C_4  and  O_5 
REMARK    2  A    between atoms: O_5  and  C_6 
REMARK    3  A    between atoms: C_6  and  C_7 
REMARK       I    between atoms: C_7  and  N_8 
REMARK    4  A    between atoms: N_8  and  N_9 
REMARK       I    between atoms: N_9  and  C_10 
REMARK    5  A    between atoms: C_10  and  C_11 
REMARK    6  A    between atoms: C_12  and  C_13 
ROOT
HETATM    1  N   UNL     1     -42.819  56.411 -53.620  1.00  0.00    -0.263 N 
HETATM    2  C   UNL     1     -41.550  56.527 -53.081  1.00  0.00     0.274 C 
HETATM    3  O   UNL     1     -40.622  57.018 -53.723  1.00  0.00    -0.266 OA
HETATM    4  H   UNL     1     -43.623  56.321 -52.999  1.00  0.00     0.190 HD
ENDROOT
BRANCH   1   5
HETATM    5  N   UNL     1     -43.075  57.083 -54.832  1.00  0.00    -0.265 N 
HETATM    6  C   UNL     1     -43.104  56.306 -55.979  1.00  0.00     0.260 C 
HETATM    7  O   UNL     1     -42.784  55.118 -55.964  1.00  0.00    -0.269 OA
HETATM    8  H   UNL     1     -43.643  57.927 -54.750  1.00  0.00     0.190 HD
BRANCH   6   9
HETATM    9  C   UNL     1     -43.538  57.064 -57.230  1.00  0.00     0.280 C 
BRANCH   9  10
HETATM   10  O   UNL     1     -42.463  57.029 -58.167  1.00  0.00    -0.342 OA
BRANCH  10  11
HETATM   11  C   UNL     1     -42.263  58.226 -58.796  1.00  0.00     0.069 A 
HETATM   12  C   UNL     1     -41.993  59.408 -58.104  1.00  0.00     0.043 A 
HETATM   13  C   UNL     1     -41.740  60.593 -58.809  1.00  0.00    -0.059 A 
HETATM   14  C   UNL     1     -41.404  61.859 -58.079  1.00  0.00     0.048 C 
HETATM   15  C   UNL     1     -41.728  60.565 -60.210  1.00  0.00     0.007 A 
HETATM   16  C   UNL     1     -41.976  59.375 -60.897  1.00  0.00     0.003 A 
HETATM   17  C   UNL     1     -42.234  58.204 -60.188  1.00  0.00     0.037 A 
ENDBRANCH  10  11
ENDBRANCH   9  10
ENDBRANCH   6   9
ENDBRANCH   1   5
BRANCH   2  18
HETATM   18  C   UNL     1     -41.422  56.041 -51.716  1.00  0.00     0.081 A 
HETATM   19  C   UNL     1     -41.076  54.731 -51.255  1.00  0.00     0.104 A 
HETATM   20  N   UNL     1     -41.132  54.666 -49.913  1.00  0.00    -0.174 NA
HETATM   21  N   UNL     1     -41.470  55.898 -49.523  1.00  0.00    -0.288 N 
HETATM   22  H   UNL     1     -41.567  56.077 -48.529  1.00  0.00     0.188 HD
HETATM   23  C   UNL     1     -41.653  56.763 -50.557  1.00  0.00     0.128 A 
BRANCH  19  24
HETATM   24  C   UNL     1     -40.678  53.550 -52.024  1.00  0.00    -0.004 A 
HETATM   25  C   UNL     1     -41.129  53.354 -53.336  1.00  0.00     0.015 A 
HETATM   26  C   UNL     1     -40.725  52.232 -54.065  1.00  0.00     0.024 A 
HETATM   27  C   UNL     1     -39.860  51.305 -53.488  1.00  0.00     0.034 A 
HETATM   28 CL   UNL     1     -39.362  49.926 -54.388  1.00  0.00    -0.084 Cl
HETATM   29  C   UNL     1     -39.392  51.491 -52.189  1.00  0.00     0.024 A 
HETATM   30  C   UNL     1     -39.797  52.614 -51.462  1.00  0.00     0.015 A 
ENDBRANCH  19  24
ENDBRANCH   2  18
TORSDOF 6
ENDMDL
MODEL 5
REMARK VINA RESULT:      -8.4      4.343      9.332
REMARK  6 active torsions:
REMARK  status: ('A' for Active; 'I' for Inactive)
REMARK    1  A    between atoms: C_4  and  O_5 
REMARK    2  A    between atoms: O_5  and  C_6 
REMARK    3  A    between atoms: C_6  and  C_7 
REMARK       I    between atoms: C_7  and  N_8 
REMARK    4  A    between atoms: N_8  and  N_9 
REMARK       I    between atoms: N_9  and  C_10 
REMARK    5  A    between atoms: C_10  and  C_11 
REMARK    6  A    between atoms: C_12  and  C_13 
ROOT
HETATM    1  N   UNL     1     -43.096  56.646 -57.978  1.00  0.00    -0.263 N 
HETATM    2  C   UNL     1     -43.096  56.717 -59.360  1.00  0.00     0.274 C 
HETATM    3  O   UNL     1     -42.243  56.140 -60.032  1.00  0.00    -0.266 OA
HETATM    4  H   UNL     1     -43.957  56.835 -57.464  1.00  0.00     0.190 HD
ENDROOT
BRANCH   1   5
HETATM    5  N   UNL     1     -42.236  55.707 -57.375  1.00  0.00    -0.265 N 
HETATM    6  C   UNL     1     -42.431  55.463 -56.025  1.00  0.00     0.260 C 
HETATM    7  O   UNL     1     -43.216  56.132 -55.353  1.00  0.00    -0.269 OA
HETATM    8  H   UNL     1     -41.880  54.981 -57.997  1.00  0.00     0.190 HD
BRANCH   6   9
HETATM    9  C   UNL     1     -41.575  54.329 -55.469  1.00  0.00     0.280 C 
BRANCH   9  10
HETATM   10  O   UNL     1     -41.664  54.359 -54.046  1.00  0.00    -0.342 OA
BRANCH  10  11
HETATM   11  C   UNL     1     -40.980  53.339 -53.446  1.00  0.00     0.069 A 
HETATM   12  C   UNL     1     -40.619  52.171 -54.120  1.00  0.00     0.043 A 
HETATM   13  C   UNL     1     -39.868  51.185 -53.465  1.00  0.00    -0.059 A 
HETATM   14  C   UNL     1     -39.434  49.947 -54.191  1.00  0.00     0.048 C 
HETATM   15  C   UNL     1     -39.459  51.404 -52.143  1.00  0.00     0.007 A 
HETATM   16  C   UNL     1     -39.804  52.584 -51.481  1.00  0.00     0.003 A 
HETATM   17  C   UNL     1     -40.557  53.555 -52.137  1.00  0.00     0.037 A 
ENDBRANCH  10  11
ENDBRANCH   9  10
ENDBRANCH   6   9
ENDBRANCH   1   5
BRANCH   2  18
HETATM   18  C   UNL     1     -44.180  57.504 -59.928  1.00  0.00     0.081 A 
HETATM   19  C   UNL     1     -44.191  58.887 -60.296  1.00  0.00     0.104 A 
HETATM   20  N   UNL     1     -45.412  59.258 -60.724  1.00  0.00    -0.174 NA
HETATM   21  N   UNL     1     -46.148  58.146 -60.665  1.00  0.00    -0.288 N 
HETATM   22  H   UNL     1     -47.121  58.199 -60.952  1.00  0.00     0.188 HD
HETATM   23  C   UNL     1     -45.464  57.065 -60.200  1.00  0.00     0.128 A 
BRANCH  19  24
HETATM   24  C   UNL     1     -43.101  59.863 -60.277  1.00  0.00    -0.004 A 
HETATM   25  C   UNL     1     -42.599  60.412 -61.465  1.00  0.00     0.015 A 
HETATM   26  C   UNL     1     -41.570  61.358 -61.431  1.00  0.00     0.024 A 
HETATM   27  C   UNL     1     -41.044  61.766 -60.208  1.00  0.00     0.034 A 
HETATM   28 CL   UNL     1     -39.780  62.933 -60.167  1.00  0.00    -0.084 Cl
HETATM   29  C   UNL     1     -41.540  61.241 -59.016  1.00  0.00     0.024 A 
HETATM   30  C   UNL     1     -42.569  60.295 -59.052  1.00  0.00     0.015 A 
ENDBRANCH  19  24
ENDBRANCH   2  18
TORSDOF 6
ENDMDL
MODEL 6
REMARK VINA RESULT:      -8.3      2.159      2.508
REMARK  6 active torsions:
REMARK  status: ('A' for Active; 'I' for Inactive)
REMARK    1  A    between atoms: C_4  and  O_5 
REMARK    2  A    between atoms: O_5  and  C_6 
REMARK    3  A    between atoms: C_6  and  C_7 
REMARK       I    between atoms: C_7  and  N_8 
REMARK    4  A    between atoms: N_8  and  N_9 
REMARK       I    between atoms: N_9  and  C_10 
REMARK    5  A    between atoms: C_10  and  C_11 
REMARK    6  A    between atoms: C_12  and  C_13 
ROOT
HETATM    1  N   UNL     1     -41.129  56.850 -52.806  1.00  0.00    -0.263 N 
HETATM    2  C   UNL     1     -41.957  55.937 -52.179  1.00  0.00     0.274 C 
HETATM    3  O   UNL     1     -43.063  55.653 -52.636  1.00  0.00    -0.266 OA
HETATM    4  H   UNL     1     -40.126  56.831 -52.621  1.00  0.00     0.190 HD
ENDROOT
BRANCH   1   5
HETATM    5  N   UNL     1     -41.487  57.269 -54.104  1.00  0.00    -0.265 N 
HETATM    6  C   UNL     1     -41.824  58.605 -54.255  1.00  0.00     0.260 C 
HETATM    7  O   UNL     1     -41.944  59.355 -53.287  1.00  0.00    -0.269 OA
HETATM    8  H   UNL     1     -41.057  56.743 -54.865  1.00  0.00     0.190 HD
BRANCH   6   9
HETATM    9  C   UNL     1     -42.050  59.027 -55.703  1.00  0.00     0.280 C 
BRANCH   9  10
HETATM   10  O   UNL     1     -43.151  58.283 -56.218  1.00  0.00    -0.342 OA
BRANCH  10  11
HETATM   11  C   UNL     1     -42.963  57.874 -57.509  1.00  0.00     0.069 A 
HETATM   12  C   UNL     1     -42.582  58.745 -58.531  1.00  0.00     0.043 A 
HETATM   13  C   UNL     1     -42.349  58.253 -59.823  1.00  0.00    -0.059 A 
HETATM   14  C   UNL     1     -41.896  59.171 -60.919  1.00  0.00     0.048 C 
HETATM   15  C   UNL     1     -42.470  56.878 -60.063  1.00  0.00     0.007 A 
HETATM   16  C   UNL     1     -42.828  56.008 -59.032  1.00  0.00     0.003 A 
HETATM   17  C   UNL     1     -43.066  56.506 -57.753  1.00  0.00     0.037 A 
ENDBRANCH  10  11
ENDBRANCH   9  10
ENDBRANCH   6   9
ENDBRANCH   1   5
BRANCH   2  18
HETATM   18  C   UNL     1     -41.406  55.347 -50.970  1.00  0.00     0.081 A 
HETATM   19  C   UNL     1     -40.798  54.063 -50.790  1.00  0.00     0.104 A 
HETATM   20  N   UNL     1     -40.477  53.862 -49.499  1.00  0.00    -0.174 NA
HETATM   21  N   UNL     1     -40.834  54.988 -48.877  1.00  0.00    -0.288 N 
HETATM   22  H   UNL     1     -40.675  55.055 -47.877  1.00  0.00     0.188 HD
HETATM   23  C   UNL     1     -41.392  55.912 -49.706  1.00  0.00     0.128 A 
BRANCH  19  24
HETATM   24  C   UNL     1     -40.493  53.032 -51.784  1.00  0.00    -0.004 A 
HETATM   25  C   UNL     1     -40.754  53.238 -53.145  1.00  0.00     0.015 A 
HETATM   26  C   UNL     1     -40.438  52.252 -54.085  1.00  0.00     0.024 A 
HETATM   27  C   UNL     1     -39.852  51.060 -53.669  1.00  0.00     0.034 A 
HETATM   28 CL   UNL     1     -39.462  49.849 -54.827  1.00  0.00    -0.084 Cl
HETATM   29  C   UNL     1     -39.573  50.843 -52.321  1.00  0.00     0.024 A 
HETATM   30  C   UNL     1     -39.889  51.830 -51.382  1.00  0.00     0.015 A 
ENDBRANCH  19  24
ENDBRANCH   2  18
TORSDOF 6
ENDMDL
MODEL 7
REMARK VINA RESULT:      -8.0      1.644      2.450
REMARK  6 active torsions:
REMARK  status: ('A' for Active; 'I' for Inactive)
REMARK    1  A    between atoms: C_4  and  O_5 
REMARK    2  A    between atoms: O_5  and  C_6 
REMARK    3  A    between atoms: C_6  and  C_7 
REMARK       I    between atoms: C_7  and  N_8 
REMARK    4  A    between atoms: N_8  and  N_9 
REMARK       I    between atoms: N_9  and  C_10 
REMARK    5  A    between atoms: C_10  and  C_11 
REMARK    6  A    between atoms: C_12  and  C_13 
ROOT
HETATM    1  N   UNL     1     -44.094  56.338 -55.081  1.00  0.00    -0.263 N 
HETATM    2  C   UNL     1     -43.320  56.987 -54.135  1.00  0.00     0.274 C 
HETATM    3  O   UNL     1     -42.489  57.835 -54.457  1.00  0.00    -0.266 OA
HETATM    4  H   UNL     1     -44.974  55.906 -54.800  1.00  0.00     0.190 HD
ENDROOT
BRANCH   1   5
HETATM    5  N   UNL     1     -44.070  56.841 -56.397  1.00  0.00    -0.265 N 
HETATM    6  C   UNL     1     -43.323  56.128 -57.321  1.00  0.00     0.260 C 
HETATM    7  O   UNL     1     -42.604  55.187 -56.984  1.00  0.00    -0.269 OA
HETATM    8  H   UNL     1     -44.899  57.364 -56.678  1.00  0.00     0.190 HD
BRANCH   6   9
HETATM    9  C   UNL     1     -43.462  56.633 -58.754  1.00  0.00     0.280 C 
BRANCH   9  10
HETATM   10  O   UNL     1     -44.443  55.835 -59.414  1.00  0.00    -0.342 OA
BRANCH  10  11
HETATM   11  C   UNL     1     -45.483  56.569 -59.910  1.00  0.00     0.069 A 
HETATM   12  C   UNL     1     -45.569  57.955 -59.765  1.00  0.00     0.043 A 
HETATM   13  C   UNL     1     -46.633  58.658 -60.347  1.00  0.00    -0.059 A 
HETATM   14  C   UNL     1     -46.712  60.152 -60.237  1.00  0.00     0.048 C 
HETATM   15  C   UNL     1     -47.585  57.958 -61.099  1.00  0.00     0.007 A 
HETATM   16  C   UNL     1     -47.483  56.575 -61.260  1.00  0.00     0.003 A 
HETATM   17  C   UNL     1     -46.426  55.883 -60.672  1.00  0.00     0.037 A 
ENDBRANCH  10  11
ENDBRANCH   9  10
ENDBRANCH   6   9
ENDBRANCH   1   5
BRANCH   2  18
HETATM   18  C   UNL     1     -43.587  56.596 -52.759  1.00  0.00     0.081 A 
HETATM   19  C   UNL     1     -43.122  55.446 -52.044  1.00  0.00     0.104 A 
HETATM   20  N   UNL     1     -43.649  55.408 -50.807  1.00  0.00    -0.174 NA
HETATM   21  N   UNL     1     -44.398  56.510 -50.718  1.00  0.00    -0.288 N 
HETATM   22  H   UNL     1     -44.894  56.685 -49.850  1.00  0.00     0.188 HD
HETATM   23  C   UNL     1     -44.396  57.260 -51.854  1.00  0.00     0.128 A 
BRANCH  19  24
HETATM   24  C   UNL     1     -42.194  54.399 -52.471  1.00  0.00    -0.004 A 
HETATM   25  C   UNL     1     -42.282  53.828 -53.748  1.00  0.00     0.015 A 
HETATM   26  C   UNL     1     -41.375  52.843 -54.150  1.00  0.00     0.024 A 
HETATM   27  C   UNL     1     -40.370  52.430 -53.279  1.00  0.00     0.034 A 
HETATM   28 CL   UNL     1     -39.253  51.219 -53.775  1.00  0.00    -0.084 Cl
HETATM   29  C   UNL     1     -40.259  52.995 -52.010  1.00  0.00     0.024 A 
HETATM   30  C   UNL     1     -41.166  53.981 -51.611  1.00  0.00     0.015 A 
ENDBRANCH  19  24
ENDBRANCH   2  18
TORSDOF 6
ENDMDL
MODEL 8
REMARK VINA RESULT:      -8.0      3.984      9.345
REMARK  6 active torsions:
REMARK  status: ('A' for Active; 'I' for Inactive)
REMARK    1  A    between atoms: C_4  and  O_5 
REMARK    2  A    between atoms: O_5  and  C_6 
REMARK    3  A    between atoms: C_6  and  C_7 
REMARK       I    between atoms: C_7  and  N_8 
REMARK    4  A    between atoms: N_8  and  N_9 
REMARK       I    between atoms: N_9  and  C_10 
REMARK    5  A    between atoms: C_10  and  C_11 
REMARK    6  A    between atoms: C_12  and  C_13 
ROOT
HETATM    1  N   UNL     1     -43.659  56.002 -57.605  1.00  0.00    -0.263 N 
HETATM    2  C   UNL     1     -43.467  56.609 -58.834  1.00  0.00     0.274 C 
HETATM    3  O   UNL     1     -42.481  57.308 -59.057  1.00  0.00    -0.266 OA
HETATM    4  H   UNL     1     -44.271  55.189 -57.535  1.00  0.00     0.190 HD
ENDROOT
BRANCH   1   5
HETATM    5  N   UNL     1     -42.581  56.015 -56.697  1.00  0.00    -0.265 N 
HETATM    6  C   UNL     1     -42.418  54.888 -55.909  1.00  0.00     0.260 C 
HETATM    7  O   UNL     1     -43.250  53.981 -55.898  1.00  0.00    -0.269 OA
HETATM    8  H   UNL     1     -41.782  56.584 -56.979  1.00  0.00     0.190 HD
BRANCH   6   9
HETATM    9  C   UNL     1     -41.149  54.901 -55.062  1.00  0.00     0.280 C 
BRANCH   9  10
HETATM   10  O   UNL     1     -41.501  54.548 -53.726  1.00  0.00    -0.342 OA
BRANCH  10  11
HETATM   11  C   UNL     1     -40.881  53.410 -53.293  1.00  0.00     0.069 A 
HETATM   12  C   UNL     1     -40.641  52.315 -54.125  1.00  0.00     0.043 A 
HETATM   13  C   UNL     1     -39.949  51.198 -53.636  1.00  0.00    -0.059 A 
HETATM   14  C   UNL     1     -39.644  50.036 -54.533  1.00  0.00     0.048 C 
HETATM   15  C   UNL     1     -39.476  51.211 -52.318  1.00  0.00     0.007 A 
HETATM   16  C   UNL     1     -39.699  52.318 -51.496  1.00  0.00     0.003 A 
HETATM   17  C   UNL     1     -40.394  53.420 -51.988  1.00  0.00     0.037 A 
ENDBRANCH  10  11
ENDBRANCH   9  10
ENDBRANCH   6   9
ENDBRANCH   1   5
BRANCH   2  18
HETATM   18  C   UNL     1     -44.505  56.335 -59.815  1.00  0.00     0.081 A 
HETATM   19  C   UNL     1     -45.746  57.016 -60.026  1.00  0.00     0.104 A 
HETATM   20  N   UNL     1     -46.464  56.413 -60.992  1.00  0.00    -0.174 NA
HETATM   21  N   UNL     1     -45.697  55.402 -61.409  1.00  0.00    -0.288 N 
HETATM   22  H   UNL     1     -46.051  54.806 -62.150  1.00  0.00     0.188 HD
HETATM   23  C   UNL     1     -44.514  55.308 -60.744  1.00  0.00     0.128 A 
BRANCH  19  24
HETATM   24  C   UNL     1     -46.272  58.215 -59.372  1.00  0.00    -0.004 A 
HETATM   25  C   UNL     1     -46.510  59.390 -60.097  1.00  0.00     0.015 A 
HETATM   26  C   UNL     1     -47.031  60.523 -59.462  1.00  0.00     0.024 A 
HETATM   27  C   UNL     1     -47.324  60.481 -58.102  1.00  0.00     0.034 A 
HETATM   28 CL   UNL     1     -47.968  61.874 -57.323  1.00  0.00    -0.084 Cl
HETATM   29  C   UNL     1     -47.106  59.316 -57.368  1.00  0.00     0.024 A 
HETATM   30  C   UNL     1     -46.586  58.186 -58.005  1.00  0.00     0.015 A 
ENDBRANCH  19  24
ENDBRANCH   2  18
TORSDOF 6
ENDMDL
MODEL 9
REMARK VINA RESULT:      -7.9      1.483      2.121
REMARK  6 active torsions:
REMARK  status: ('A' for Active; 'I' for Inactive)
REMARK    1  A    between atoms: C_4  and  O_5 
REMARK    2  A    between atoms: O_5  and  C_6 
REMARK    3  A    between atoms: C_6  and  C_7 
REMARK       I    between atoms: C_7  and  N_8 
REMARK    4  A    between atoms: N_8  and  N_9 
REMARK       I    between atoms: N_9  and  C_10 
REMARK    5  A    between atoms: C_10  and  C_11 
REMARK    6  A    between atoms: C_12  and  C_13 
ROOT
HETATM    1  N   UNL     1     -42.099  56.158 -54.268  1.00  0.00    -0.263 N 
HETATM    2  C   UNL     1     -41.260  56.705 -53.314  1.00  0.00     0.274 C 
HETATM    3  O   UNL     1     -40.437  57.571 -53.604  1.00  0.00    -0.266 OA
HETATM    4  H   UNL     1     -42.968  55.709 -53.977  1.00  0.00     0.190 HD
ENDROOT
BRANCH   1   5
HETATM    5  N   UNL     1     -42.146  56.784 -55.530  1.00  0.00    -0.265 N 
HETATM    6  C   UNL     1     -42.671  56.040 -56.574  1.00  0.00     0.260 C 
HETATM    7  O   UNL     1     -42.951  54.849 -56.443  1.00  0.00    -0.269 OA
HETATM    8  H   UNL     1     -42.233  57.800 -55.508  1.00  0.00     0.190 HD
BRANCH   6   9
HETATM    9  C   UNL     1     -42.836  56.824 -57.872  1.00  0.00     0.280 C 
BRANCH   9  10
HETATM   10  O   UNL     1     -43.479  58.061 -57.568  1.00  0.00    -0.342 OA
BRANCH  10  11
HETATM   11  C   UNL     1     -44.703  58.188 -58.162  1.00  0.00     0.069 A 
HETATM   12  C   UNL     1     -45.231  57.222 -59.021  1.00  0.00     0.043 A 
HETATM   13  C   UNL     1     -46.518  57.383 -59.554  1.00  0.00    -0.059 A 
HETATM   14  C   UNL     1     -47.115  56.331 -60.441  1.00  0.00     0.048 C 
HETATM   15  C   UNL     1     -47.274  58.504 -59.187  1.00  0.00     0.007 A 
HETATM   16  C   UNL     1     -46.749  59.456 -58.310  1.00  0.00     0.003 A 
HETATM   17  C   UNL     1     -45.467  59.291 -57.791  1.00  0.00     0.037 A 
ENDBRANCH  10  11
ENDBRANCH   9  10
ENDBRANCH   6   9
ENDBRANCH   1   5
BRANCH   2  18
HETATM   18  C   UNL     1     -41.450  56.186 -51.968  1.00  0.00     0.081 A 
HETATM   19  C   UNL     1     -41.307  54.843 -51.492  1.00  0.00     0.104 A 
HETATM   20  N   UNL     1     -41.640  54.760 -50.191  1.00  0.00    -0.174 NA
HETATM   21  N   UNL     1     -41.953  56.008 -49.836  1.00  0.00    -0.288 N 
HETATM   22  H   UNL     1     -42.236  56.177 -48.875  1.00  0.00     0.188 HD
HETATM   23  C   UNL     1     -41.855  56.904 -50.856  1.00  0.00     0.128 A 
BRANCH  19  24
HETATM   24  C   UNL     1     -40.854  53.648 -52.205  1.00  0.00    -0.004 A 
HETATM   25  C   UNL     1     -41.357  53.327 -53.473  1.00  0.00     0.015 A 
HETATM   26  C   UNL     1     -40.900  52.192 -54.151  1.00  0.00     0.024 A 
HETATM   27  C   UNL     1     -39.932  51.379 -53.568  1.00  0.00     0.034 A 
HETATM   28 CL   UNL     1     -39.369  49.985 -54.404  1.00  0.00    -0.084 Cl
HETATM   29  C   UNL     1     -39.411  51.691 -52.313  1.00  0.00     0.024 A 
HETATM   30  C   UNL     1     -39.869  52.826 -51.638  1.00  0.00     0.015 A 
ENDBRANCH  19  24
ENDBRANCH   2  18
TORSDOF 6
ENDMDL
MODEL 10
REMARK VINA RESULT:      -7.8      2.078      2.590
REMARK  6 active torsions:
REMARK  status: ('A' for Active; 'I' for Inactive)
REMARK    1  A    between atoms: C_4  and  O_5 
REMARK    2  A    between atoms: O_5  and  C_6 
REMARK    3  A    between atoms: C_6  and  C_7 
REMARK       I    between atoms: C_7  and  N_8 
REMARK    4  A    between atoms: N_8  and  N_9 
REMARK       I    between atoms: N_9  and  C_10 
REMARK    5  A    between atoms: C_10  and  C_11 
REMARK    6  A    between atoms: C_12  and  C_13 
ROOT
HETATM    1  N   UNL     1     -43.435  56.785 -54.566  1.00  0.00    -0.263 N 
HETATM    2  C   UNL     1     -43.387  55.725 -53.679  1.00  0.00     0.274 C 
HETATM    3  O   UNL     1     -43.982  54.672 -53.904  1.00  0.00    -0.266 OA
HETATM    4  H   UNL     1     -42.704  57.496 -54.541  1.00  0.00     0.190 HD
ENDROOT
BRANCH   1   5
HETATM    5  N   UNL     1     -43.988  56.544 -55.840  1.00  0.00    -0.265 N 
HETATM    6  C   UNL     1     -43.142  56.704 -56.926  1.00  0.00     0.260 C 
HETATM    7  O   UNL     1     -42.010  57.170 -56.800  1.00  0.00    -0.269 OA
HETATM    8  H   UNL     1     -44.754  55.870 -55.861  1.00  0.00     0.190 HD
BRANCH   6   9
HETATM    9  C   UNL     1     -43.755  56.280 -58.257  1.00  0.00     0.280 C 
BRANCH   9  10
HETATM   10  O   UNL     1     -42.787  56.497 -59.282  1.00  0.00    -0.342 OA
BRANCH  10  11
HETATM   11  C   UNL     1     -42.982  57.665 -59.963  1.00  0.00     0.069 A 
HETATM   12  C   UNL     1     -44.246  58.224 -60.161  1.00  0.00     0.043 A 
HETATM   13  C   UNL     1     -44.376  59.455 -60.819  1.00  0.00    -0.059 A 
HETATM   14  C   UNL     1     -45.724  60.087 -60.998  1.00  0.00     0.048 C 
HETATM   15  C   UNL     1     -43.222  60.129 -61.241  1.00  0.00     0.007 A 
HETATM   16  C   UNL     1     -41.959  59.577 -61.020  1.00  0.00     0.003 A 
HETATM   17  C   UNL     1     -41.840  58.349 -60.372  1.00  0.00     0.037 A 
ENDBRANCH  10  11
ENDBRANCH   9  10
ENDBRANCH   6   9
ENDBRANCH   1   5
BRANCH   2  18
HETATM   18  C   UNL     1     -42.576  55.959 -52.495  1.00  0.00     0.081 A 
HETATM   19  C   UNL     1     -41.516  55.160 -51.957  1.00  0.00     0.104 A 
HETATM   20  N   UNL     1     -41.060  55.685 -50.805  1.00  0.00    -0.174 NA
HETATM   21  N   UNL     1     -41.777  56.797 -50.626  1.00  0.00    -0.288 N 
HETATM   22  H   UNL     1     -41.591  57.360 -49.803  1.00  0.00     0.188 HD
HETATM   23  C   UNL     1     -42.696  57.013 -51.606  1.00  0.00     0.128 A 
BRANCH  19  24
HETATM   24  C   UNL     1     -40.908  53.941 -52.492  1.00  0.00    -0.004 A 
HETATM   25  C   UNL     1     -40.462  52.921 -51.641  1.00  0.00     0.015 A 
HETATM   26  C   UNL     1     -39.901  51.753 -52.167  1.00  0.00     0.024 A 
HETATM   27  C   UNL     1     -39.791  51.597 -53.547  1.00  0.00     0.034 A 
HETATM   28 CL   UNL     1     -39.103  50.158 -54.192  1.00  0.00    -0.084 Cl
HETATM   29  C   UNL     1     -40.241  52.596 -54.407  1.00  0.00     0.024 A 
HETATM   30  C   UNL     1     -40.802  53.763 -53.880  1.00  0.00     0.015 A 
ENDBRANCH  19  24
ENDBRANCH   2  18
TORSDOF 6
ENDMDL
