MODEL 1
REMARK VINA RESULT:      -8.3      0.000      0.000
REMARK  9 active torsions:
REMARK  status: ('A' for Active; 'I' for Inactive)
REMARK    1  A    between atoms: C_2  and  O_3 
REMARK    2  A    between atoms: O_3  and  C_4 
REMARK    3  A    between atoms: C_5  and  C_6 
REMARK    4  A    between atoms: N_7  and  C_9 
REMARK    5  A    between atoms: C_9  and  C_10 
REMARK       I    between atoms: C_10  and  N_11 
REMARK    6  A    between atoms: N_11  and  C_12 
REMARK    7  A    between atoms: C_20  and  C_21 
REMARK    8  A    between atoms: C_21  and  O_22 
REMARK    9  A    between atoms: C_28  and  O_29 
ROOT
HETATM    1  C   UNL     1     -42.300  56.471 -51.761  1.00  0.00     0.231 C 
HETATM    2  N   UNL     1     -42.779  56.395 -53.223  1.00  0.00    -0.054 N 
HETATM    3  H   UNL     1     -43.682  56.883 -53.144  1.00  0.00     0.281 HD
HETATM    4  C   UNL     1     -43.125  55.008 -53.681  1.00  0.00     0.239 C 
HETATM    5  C   UNL     1     -41.979  54.046 -53.434  1.00  0.00     0.066 C 
HETATM    6  C   UNL     1     -41.635  54.009 -51.947  1.00  0.00     0.065 C 
HETATM    7  C   UNL     1     -41.196  55.416 -51.476  1.00  0.00     0.055 C 
HETATM    8  C   UNL     1     -40.539  52.970 -51.657  1.00  0.00     0.038 C 
HETATM    9  C   UNL     1     -40.180  52.930 -50.172  1.00  0.00     0.003 C 
HETATM   10  C   UNL     1     -39.791  54.308 -49.654  1.00  0.00     0.001 C 
HETATM   11  C   UNL     1     -40.846  55.367 -49.969  1.00  0.00     0.010 C 
ENDROOT
BRANCH   2  12
HETATM   12  C   UNL     1     -42.011  57.236 -54.269  1.00  0.00     0.338 C 
BRANCH  12  13
HETATM   13  C   UNL     1     -43.006  57.864 -55.267  1.00  0.00     0.248 C 
HETATM   14  N   UNL     1     -42.432  57.990 -56.535  1.00  0.00    -0.319 N 
HETATM   15  H   UNL     1     -41.454  57.759 -56.649  1.00  0.00     0.169 HD
HETATM   16  O   UNL     1     -44.185  58.047 -54.986  1.00  0.00    -0.271 OA
BRANCH  14  17
HETATM   17  C   UNL     1     -43.193  57.653 -57.636  1.00  0.00     0.094 C 
HETATM   18  S   UNL     1     -42.951  56.023 -58.063  1.00  0.00    -0.075 SA
HETATM   19  C   UNL     1     -44.243  56.072 -59.157  1.00  0.00    -0.008 C 
HETATM   20  C   UNL     1     -44.781  57.341 -59.286  1.00  0.00    -0.026 C 
HETATM   21  C   UNL     1     -44.708  54.850 -59.889  1.00  0.00     0.047 C 
HETATM   22  C   UNL     1     -45.870  57.626 -60.289  1.00  0.00     0.041 C 
HETATM   23  C   UNL     1     -44.123  58.306 -58.421  1.00  0.00     0.080 C 
HETATM   24  C   UNL     1     -46.543  56.343 -60.801  1.00  0.00     0.005 C 
HETATM   25  C   UNL     1     -45.522  55.245 -61.127  1.00  0.00     0.005 C 
BRANCH  23  26
HETATM   26  C   UNL     1     -44.369  59.752 -58.428  1.00  0.00     0.296 C 
HETATM   27  O   UNL     1     -44.060  60.479 -59.364  1.00  0.00    -0.259 OA
BRANCH  26  28
HETATM   28  O   UNL     1     -44.858  60.206 -57.235  1.00  0.00    -0.322 OA
HETATM   29  C   UNL     1     -44.097  61.269 -56.661  1.00  0.00     0.213 C 
ENDBRANCH  26  28
ENDBRANCH  23  26
ENDBRANCH  14  17
ENDBRANCH  12  13
ENDBRANCH   2  12
BRANCH   1  30
HETATM   30  C   UNL     1     -42.103  57.913 -51.299  1.00  0.00     0.006 A 
HETATM   31  C   UNL     1     -43.127  58.881 -51.244  1.00  0.00     0.077 A 
HETATM   32  C   UNL     1     -42.847  60.174 -50.786  1.00  0.00     0.037 A 
HETATM   33  C   UNL     1     -41.557  60.522 -50.387  1.00  0.00     0.003 A 
HETATM   34  C   UNL     1     -40.539  59.580 -50.430  1.00  0.00     0.001 A 
HETATM   35  C   UNL     1     -40.807  58.288 -50.879  1.00  0.00     0.012 A 
BRANCH  31  36
HETATM   36  O   UNL     1     -44.390  58.477 -51.590  1.00  0.00    -0.351 OA
BRANCH  36  37
HETATM   37  C   UNL     1     -45.462  58.924 -50.751  1.00  0.00     0.171 C 
HETATM   38  C   UNL     1     -46.260  59.958 -51.528  1.00  0.00     0.034 C 
ENDBRANCH  36  37
ENDBRANCH  31  36
ENDBRANCH   1  30
BRANCH   6  39
HETATM   39  O   UNL     1     -42.834  53.644 -51.252  1.00  0.00    -0.389 OA
HETATM   40  H   UNL     1     -43.134  54.396 -50.704  1.00  0.00     0.210 HD
ENDBRANCH   6  39
TORSDOF 9
ENDMDL
MODEL 2
REMARK VINA RESULT:      -8.1      2.084      8.167
REMARK  9 active torsions:
REMARK  status: ('A' for Active; 'I' for Inactive)
REMARK    1  A    between atoms: C_2  and  O_3 
REMARK    2  A    between atoms: O_3  and  C_4 
REMARK    3  A    between atoms: C_5  and  C_6 
REMARK    4  A    between atoms: N_7  and  C_9 
REMARK    5  A    between atoms: C_9  and  C_10 
REMARK       I    between atoms: C_10  and  N_11 
REMARK    6  A    between atoms: N_11  and  C_12 
REMARK    7  A    between atoms: C_20  and  C_21 
REMARK    8  A    between atoms: C_21  and  O_22 
REMARK    9  A    between atoms: C_28  and  O_29 
ROOT
HETATM    1  C   UNL     1     -44.013  57.963 -58.027  1.00  0.00     0.231 C 
HETATM    2  N   UNL     1     -43.299  57.399 -56.784  1.00  0.00    -0.054 N 
HETATM    3  H   UNL     1     -42.627  58.157 -56.601  1.00  0.00     0.281 HD
HETATM    4  C   UNL     1     -42.455  56.189 -57.060  1.00  0.00     0.239 C 
HETATM    5  C   UNL     1     -43.256  55.110 -57.763  1.00  0.00     0.066 C 
HETATM    6  C   UNL     1     -43.811  55.642 -59.082  1.00  0.00     0.065 C 
HETATM    7  C   UNL     1     -44.751  56.841 -58.809  1.00  0.00     0.055 C 
HETATM    8  C   UNL     1     -44.547  54.538 -59.860  1.00  0.00     0.038 C 
HETATM    9  C   UNL     1     -45.115  55.062 -61.178  1.00  0.00     0.003 C 
HETATM   10  C   UNL     1     -46.006  56.277 -60.959  1.00  0.00     0.001 C 
HETATM   11  C   UNL     1     -45.310  57.370 -60.151  1.00  0.00     0.010 C 
ENDROOT
BRANCH   2  12
HETATM   12  C   UNL     1     -44.112  57.320 -55.470  1.00  0.00     0.338 C 
BRANCH  12  13
HETATM   13  C   UNL     1     -43.181  56.935 -54.302  1.00  0.00     0.248 C 
HETATM   14  N   UNL     1     -43.707  55.864 -53.575  1.00  0.00    -0.319 N 
HETATM   15  H   UNL     1     -44.630  55.526 -53.811  1.00  0.00     0.169 HD
HETATM   16  O   UNL     1     -42.060  57.413 -54.175  1.00  0.00    -0.271 OA
BRANCH  14  17
HETATM   17  C   UNL     1     -42.852  54.855 -53.182  1.00  0.00     0.094 C 
HETATM   18  S   UNL     1     -42.512  53.810 -54.482  1.00  0.00    -0.075 SA
HETATM   19  C   UNL     1     -41.290  53.038 -53.599  1.00  0.00    -0.008 C 
HETATM   20  C   UNL     1     -41.215  53.487 -52.292  1.00  0.00    -0.026 C 
HETATM   21  C   UNL     1     -40.417  51.983 -54.209  1.00  0.00     0.047 C 
HETATM   22  C   UNL     1     -40.267  52.854 -51.305  1.00  0.00     0.041 C 
HETATM   23  C   UNL     1     -42.184  54.535 -52.016  1.00  0.00     0.080 C 
HETATM   24  C   UNL     1     -39.184  52.010 -51.995  1.00  0.00     0.005 C 
HETATM   25  C   UNL     1     -39.760  51.134 -53.114  1.00  0.00     0.005 C 
BRANCH  23  26
HETATM   26  C   UNL     1     -42.447  55.115 -50.695  1.00  0.00     0.296 C 
HETATM   27  O   UNL     1     -42.703  54.439 -49.707  1.00  0.00    -0.259 OA
BRANCH  26  28
HETATM   28  O   UNL     1     -42.500  56.481 -50.723  1.00  0.00    -0.322 OA
HETATM   29  C   UNL     1     -41.225  57.115 -50.619  1.00  0.00     0.213 C 
ENDBRANCH  26  28
ENDBRANCH  23  26
ENDBRANCH  14  17
ENDBRANCH  12  13
ENDBRANCH   2  12
BRANCH   1  30
HETATM   30  C   UNL     1     -44.735  59.273 -57.726  1.00  0.00     0.006 A 
HETATM   31  C   UNL     1     -44.090  60.501 -57.468  1.00  0.00     0.077 A 
HETATM   32  C   UNL     1     -44.846  61.652 -57.220  1.00  0.00     0.037 A 
HETATM   33  C   UNL     1     -46.239  61.601 -57.219  1.00  0.00     0.003 A 
HETATM   34  C   UNL     1     -46.890  60.402 -57.476  1.00  0.00     0.001 A 
HETATM   35  C   UNL     1     -46.148  59.250 -57.729  1.00  0.00     0.012 A 
BRANCH  31  36
HETATM   36  O   UNL     1     -42.722  60.516 -57.538  1.00  0.00    -0.351 OA
BRANCH  36  37
HETATM   37  C   UNL     1     -42.144  61.038 -58.741  1.00  0.00     0.171 C 
HETATM   38  C   UNL     1     -40.887  61.800 -58.360  1.00  0.00     0.034 C 
ENDBRANCH  36  37
ENDBRANCH  31  36
ENDBRANCH   1  30
BRANCH   6  39
HETATM   39  O   UNL     1     -42.691  56.100 -59.849  1.00  0.00    -0.389 OA
HETATM   40  H   UNL     1     -42.465  55.431 -60.526  1.00  0.00     0.210 HD
ENDBRANCH   6  39
TORSDOF 9
ENDMDL
MODEL 3
REMARK VINA RESULT:      -7.9      1.846      2.872
REMARK  9 active torsions:
REMARK  status: ('A' for Active; 'I' for Inactive)
REMARK    1  A    between atoms: C_2  and  O_3 
REMARK    2  A    between atoms: O_3  and  C_4 
REMARK    3  A    between atoms: C_5  and  C_6 
REMARK    4  A    between atoms: N_7  and  C_9 
REMARK    5  A    between atoms: C_9  and  C_10 
REMARK       I    between atoms: C_10  and  N_11 
REMARK    6  A    between atoms: N_11  and  C_12 
REMARK    7  A    between atoms: C_20  and  C_21 
REMARK    8  A    between atoms: C_21  and  O_22 
REMARK    9  A    between atoms: C_28  and  O_29 
ROOT
HETATM    1  C   UNL     1     -42.241  56.469 -51.774  1.00  0.00     0.231 C 
HETATM    2  N   UNL     1     -42.609  56.382 -53.268  1.00  0.00    -0.054 N 
HETATM    3  H   UNL     1     -43.499  56.901 -53.266  1.00  0.00     0.281 HD
HETATM    4  C   UNL     1     -42.967  55.000 -53.730  1.00  0.00     0.239 C 
HETATM    5  C   UNL     1     -41.876  54.005 -53.380  1.00  0.00     0.066 C 
HETATM    6  C   UNL     1     -41.649  53.983 -51.871  1.00  0.00     0.065 C 
HETATM    7  C   UNL     1     -41.199  55.383 -51.388  1.00  0.00     0.055 C 
HETATM    8  C   UNL     1     -40.614  52.914 -51.481  1.00  0.00     0.038 C 
HETATM    9  C   UNL     1     -40.372  52.888 -49.972  1.00  0.00     0.003 C 
HETATM   10  C   UNL     1     -39.977  54.262 -49.447  1.00  0.00     0.001 C 
HETATM   11  C   UNL     1     -40.968  55.349 -49.859  1.00  0.00     0.010 C 
ENDROOT
BRANCH   2  12
HETATM   12  C   UNL     1     -41.735  57.179 -54.264  1.00  0.00     0.338 C 
BRANCH  12  13
HETATM   13  C   UNL     1     -42.371  57.134 -55.669  1.00  0.00     0.248 C 
HETATM   14  N   UNL     1     -43.173  58.257 -55.892  1.00  0.00    -0.319 N 
HETATM   15  H   UNL     1     -43.324  58.903 -55.129  1.00  0.00     0.169 HD
HETATM   16  O   UNL     1     -42.048  56.299 -56.506  1.00  0.00    -0.271 OA
BRANCH  14  17
HETATM   17  C   UNL     1     -43.094  58.885 -57.118  1.00  0.00     0.094 C 
HETATM   18  S   UNL     1     -42.093  60.259 -57.031  1.00  0.00    -0.075 SA
HETATM   19  C   UNL     1     -42.102  60.427 -58.716  1.00  0.00    -0.008 C 
HETATM   20  C   UNL     1     -42.948  59.523 -59.335  1.00  0.00    -0.026 C 
HETATM   21  C   UNL     1     -41.275  61.463 -59.414  1.00  0.00     0.047 C 
HETATM   22  C   UNL     1     -43.186  59.572 -60.823  1.00  0.00     0.041 C 
HETATM   23  C   UNL     1     -43.590  58.632 -58.382  1.00  0.00     0.080 C 
HETATM   24  C   UNL     1     -42.125  60.409 -61.556  1.00  0.00     0.005 C 
HETATM   25  C   UNL     1     -41.818  61.721 -60.824  1.00  0.00     0.005 C 
BRANCH  23  26
HETATM   26  C   UNL     1     -44.640  57.662 -58.709  1.00  0.00     0.296 C 
HETATM   27  O   UNL     1     -45.833  57.892 -58.558  1.00  0.00    -0.259 OA
BRANCH  26  28
HETATM   28  O   UNL     1     -44.134  56.445 -59.073  1.00  0.00    -0.322 OA
HETATM   29  C   UNL     1     -44.415  56.079 -60.424  1.00  0.00     0.213 C 
ENDBRANCH  26  28
ENDBRANCH  23  26
ENDBRANCH  14  17
ENDBRANCH  12  13
ENDBRANCH   2  12
BRANCH   1  30
HETATM   30  C   UNL     1     -42.032  57.911 -51.320  1.00  0.00     0.006 A 
HETATM   31  C   UNL     1     -43.032  58.906 -51.333  1.00  0.00     0.077 A 
HETATM   32  C   UNL     1     -42.742  60.198 -50.877  1.00  0.00     0.037 A 
HETATM   33  C   UNL     1     -41.466  60.518 -50.413  1.00  0.00     0.003 A 
HETATM   34  C   UNL     1     -40.473  59.549 -50.390  1.00  0.00     0.001 A 
HETATM   35  C   UNL     1     -40.750  58.259 -50.836  1.00  0.00     0.012 A 
BRANCH  31  36
HETATM   36  O   UNL     1     -44.284  58.530 -51.741  1.00  0.00    -0.351 OA
BRANCH  36  37
HETATM   37  C   UNL     1     -44.876  59.298 -52.796  1.00  0.00     0.171 C 
HETATM   38  C   UNL     1     -46.071  60.037 -52.219  1.00  0.00     0.034 C 
ENDBRANCH  36  37
ENDBRANCH  31  36
ENDBRANCH   1  30
BRANCH   6  39
HETATM   39  O   UNL     1     -42.910  53.670 -51.266  1.00  0.00    -0.389 OA
HETATM   40  H   UNL     1     -43.336  52.942 -51.760  1.00  0.00     0.210 HD
ENDBRANCH   6  39
TORSDOF 9
ENDMDL
MODEL 4
REMARK VINA RESULT:      -7.8      0.859      2.020
REMARK  9 active torsions:
REMARK  status: ('A' for Active; 'I' for Inactive)
REMARK    1  A    between atoms: C_2  and  O_3 
REMARK    2  A    between atoms: O_3  and  C_4 
REMARK    3  A    between atoms: C_5  and  C_6 
REMARK    4  A    between atoms: N_7  and  C_9 
REMARK    5  A    between atoms: C_9  and  C_10 
REMARK       I    between atoms: C_10  and  N_11 
REMARK    6  A    between atoms: N_11  and  C_12 
REMARK    7  A    between atoms: C_20  and  C_21 
REMARK    8  A    between atoms: C_21  and  O_22 
REMARK    9  A    between atoms: C_28  and  O_29 
ROOT
HETATM    1  C   UNL     1     -42.838  56.221 -51.979  1.00  0.00     0.231 C 
HETATM    2  N   UNL     1     -42.670  56.160 -53.510  1.00  0.00    -0.054 N 
HETATM    3  H   UNL     1     -43.654  56.240 -53.804  1.00  0.00     0.281 HD
HETATM    4  C   UNL     1     -42.218  54.823 -54.022  1.00  0.00     0.239 C 
HETATM    5  C   UNL     1     -40.956  54.365 -53.318  1.00  0.00     0.066 C 
HETATM    6  C   UNL     1     -41.199  54.266 -51.814  1.00  0.00     0.065 C 
HETATM    7  C   UNL     1     -41.586  55.656 -51.254  1.00  0.00     0.055 C 
HETATM    8  C   UNL     1     -39.962  53.711 -51.087  1.00  0.00     0.038 C 
HETATM    9  C   UNL     1     -40.190  53.616 -49.579  1.00  0.00     0.003 C 
HETATM   10  C   UNL     1     -40.625  54.953 -48.996  1.00  0.00     0.001 C 
HETATM   11  C   UNL     1     -41.826  55.545 -49.729  1.00  0.00     0.010 C 
ENDROOT
BRANCH   2  12
HETATM   12  C   UNL     1     -41.994  57.367 -54.201  1.00  0.00     0.338 C 
BRANCH  12  13
HETATM   13  C   UNL     1     -42.953  57.974 -55.247  1.00  0.00     0.248 C 
HETATM   14  N   UNL     1     -42.354  58.019 -56.509  1.00  0.00    -0.319 N 
HETATM   15  H   UNL     1     -41.382  57.753 -56.593  1.00  0.00     0.169 HD
HETATM   16  O   UNL     1     -44.130  58.207 -54.996  1.00  0.00    -0.271 OA
BRANCH  14  17
HETATM   17  C   UNL     1     -43.107  57.651 -57.605  1.00  0.00     0.094 C 
HETATM   18  S   UNL     1     -42.848  56.014 -57.994  1.00  0.00    -0.075 SA
HETATM   19  C   UNL     1     -44.135  56.027 -59.095  1.00  0.00    -0.008 C 
HETATM   20  C   UNL     1     -44.684  57.288 -59.255  1.00  0.00    -0.026 C 
HETATM   21  C   UNL     1     -44.587  54.785 -59.801  1.00  0.00     0.047 C 
HETATM   22  C   UNL     1     -45.770  57.541 -60.270  1.00  0.00     0.041 C 
HETATM   23  C   UNL     1     -44.038  58.278 -58.409  1.00  0.00     0.080 C 
HETATM   24  C   UNL     1     -46.430  56.240 -60.755  1.00  0.00     0.005 C 
HETATM   25  C   UNL     1     -45.398  55.145 -61.051  1.00  0.00     0.005 C 
BRANCH  23  26
HETATM   26  C   UNL     1     -44.297  59.721 -58.450  1.00  0.00     0.296 C 
HETATM   27  O   UNL     1     -43.711  60.485 -59.207  1.00  0.00    -0.259 OA
BRANCH  26  28
HETATM   28  O   UNL     1     -45.161  60.127 -57.472  1.00  0.00    -0.322 OA
HETATM   29  C   UNL     1     -44.733  61.290 -56.762  1.00  0.00     0.213 C 
ENDBRANCH  26  28
ENDBRANCH  23  26
ENDBRANCH  14  17
ENDBRANCH  12  13
ENDBRANCH   2  12
BRANCH   1  30
HETATM   30  C   UNL     1     -43.439  57.548 -51.523  1.00  0.00     0.006 A 
HETATM   31  C   UNL     1     -42.687  58.693 -51.185  1.00  0.00     0.077 A 
HETATM   32  C   UNL     1     -43.337  59.870 -50.795  1.00  0.00     0.037 A 
HETATM   33  C   UNL     1     -44.728  59.925 -50.730  1.00  0.00     0.003 A 
HETATM   34  C   UNL     1     -45.483  58.809 -51.064  1.00  0.00     0.001 A 
HETATM   35  C   UNL     1     -44.848  57.633 -51.458  1.00  0.00     0.012 A 
BRANCH  31  36
HETATM   36  O   UNL     1     -41.326  58.610 -51.321  1.00  0.00    -0.351 OA
BRANCH  36  37
HETATM   37  C   UNL     1     -40.537  59.276 -50.327  1.00  0.00     0.171 C 
HETATM   38  C   UNL     1     -39.109  59.350 -50.840  1.00  0.00     0.034 C 
ENDBRANCH  36  37
ENDBRANCH  31  36
ENDBRANCH   1  30
BRANCH   6  39
HETATM   39  O   UNL     1     -42.302  53.371 -51.629  1.00  0.00    -0.389 OA
HETATM   40  H   UNL     1     -41.983  52.447 -51.679  1.00  0.00     0.210 HD
ENDBRANCH   6  39
TORSDOF 9
ENDMDL
MODEL 5
REMARK VINA RESULT:      -7.8      1.995      8.936
REMARK  9 active torsions:
REMARK  status: ('A' for Active; 'I' for Inactive)
REMARK    1  A    between atoms: C_2  and  O_3 
REMARK    2  A    between atoms: O_3  and  C_4 
REMARK    3  A    between atoms: C_5  and  C_6 
REMARK    4  A    between atoms: N_7  and  C_9 
REMARK    5  A    between atoms: C_9  and  C_10 
REMARK       I    between atoms: C_10  and  N_11 
REMARK    6  A    between atoms: N_11  and  C_12 
REMARK    7  A    between atoms: C_20  and  C_21 
REMARK    8  A    between atoms: C_21  and  O_22 
REMARK    9  A    between atoms: C_28  and  O_29 
ROOT
HETATM    1  C   UNL     1     -43.841  58.580 -58.631  1.00  0.00     0.231 C 
HETATM    2  N   UNL     1     -43.584  58.467 -57.116  1.00  0.00    -0.054 N 
HETATM    3  H   UNL     1     -44.539  58.270 -56.785  1.00  0.00     0.281 HD
HETATM    4  C   UNL     1     -43.206  59.764 -56.462  1.00  0.00     0.239 C 
HETATM    5  C   UNL     1     -42.028  60.410 -57.166  1.00  0.00     0.066 C 
HETATM    6  C   UNL     1     -42.370  60.671 -58.631  1.00  0.00     0.065 C 
HETATM    7  C   UNL     1     -42.683  59.333 -59.342  1.00  0.00     0.055 C 
HETATM    8  C   UNL     1     -41.226  61.413 -59.344  1.00  0.00     0.038 C 
HETATM    9  C   UNL     1     -41.553  61.673 -60.814  1.00  0.00     0.003 C 
HETATM   10  C   UNL     1     -41.919  60.386 -61.540  1.00  0.00     0.001 C 
HETATM   11  C   UNL     1     -43.024  59.609 -60.826  1.00  0.00     0.010 C 
ENDROOT
BRANCH   2  12
HETATM   12  C   UNL     1     -42.776  57.245 -56.620  1.00  0.00     0.338 C 
BRANCH  12  13
HETATM   13  C   UNL     1     -42.610  57.316 -55.088  1.00  0.00     0.248 C 
HETATM   14  N   UNL     1     -43.445  56.394 -54.450  1.00  0.00    -0.319 N 
HETATM   15  H   UNL     1     -44.101  55.868 -55.010  1.00  0.00     0.169 HD
HETATM   16  O   UNL     1     -41.727  57.980 -54.556  1.00  0.00    -0.271 OA
BRANCH  14  17
HETATM   17  C   UNL     1     -42.931  55.663 -53.398  1.00  0.00     0.094 C 
HETATM   18  S   UNL     1     -42.054  54.320 -53.967  1.00  0.00    -0.075 SA
HETATM   19  C   UNL     1     -41.446  54.006 -52.419  1.00  0.00    -0.008 C 
HETATM   20  C   UNL     1     -41.990  54.838 -51.456  1.00  0.00    -0.026 C 
HETATM   21  C   UNL     1     -40.437  52.927 -52.167  1.00  0.00     0.047 C 
HETATM   22  C   UNL     1     -41.665  54.655 -49.994  1.00  0.00     0.041 C 
HETATM   23  C   UNL     1     -42.923  55.797 -52.024  1.00  0.00     0.080 C 
HETATM   24  C   UNL     1     -40.423  53.776 -49.779  1.00  0.00     0.005 C 
HETATM   25  C   UNL     1     -40.427  52.538 -50.684  1.00  0.00     0.005 C 
BRANCH  23  26
HETATM   26  C   UNL     1     -43.764  56.717 -51.251  1.00  0.00     0.296 C 
HETATM   27  O   UNL     1     -44.653  56.339 -50.498  1.00  0.00    -0.259 OA
BRANCH  26  28
HETATM   28  O   UNL     1     -43.529  58.027 -51.561  1.00  0.00    -0.322 OA
HETATM   29  C   UNL     1     -42.248  58.503 -51.146  1.00  0.00     0.213 C 
ENDBRANCH  26  28
ENDBRANCH  23  26
ENDBRANCH  14  17
ENDBRANCH  12  13
ENDBRANCH   2  12
BRANCH   1  30
HETATM   30  C   UNL     1     -44.365  57.273 -59.221  1.00  0.00     0.006 A 
HETATM   31  C   UNL     1     -45.715  57.029 -59.549  1.00  0.00     0.077 A 
HETATM   32  C   UNL     1     -46.091  55.800 -60.103  1.00  0.00     0.037 A 
HETATM   33  C   UNL     1     -45.143  54.804 -60.332  1.00  0.00     0.003 A 
HETATM   34  C   UNL     1     -43.810  55.029 -60.019  1.00  0.00     0.001 A 
HETATM   35  C   UNL     1     -43.422  56.251 -59.471  1.00  0.00     0.012 A 
BRANCH  31  36
HETATM   36  O   UNL     1     -46.601  58.058 -59.362  1.00  0.00    -0.351 OA
BRANCH  36  37
HETATM   37  C   UNL     1     -47.097  58.702 -60.542  1.00  0.00     0.171 C 
HETATM   38  C   UNL     1     -46.761  60.180 -60.441  1.00  0.00     0.034 C 
ENDBRANCH  36  37
ENDBRANCH  31  36
ENDBRANCH   1  30
BRANCH   6  39
HETATM   39  O   UNL     1     -43.548  61.487 -58.643  1.00  0.00    -0.389 OA
HETATM   40  H   UNL     1     -43.631  61.951 -57.786  1.00  0.00     0.210 HD
ENDBRANCH   6  39
TORSDOF 9
ENDMDL
MODEL 6
REMARK VINA RESULT:      -7.8      2.319      7.829
REMARK  9 active torsions:
REMARK  status: ('A' for Active; 'I' for Inactive)
REMARK    1  A    between atoms: C_2  and  O_3 
REMARK    2  A    between atoms: O_3  and  C_4 
REMARK    3  A    between atoms: C_5  and  C_6 
REMARK    4  A    between atoms: N_7  and  C_9 
REMARK    5  A    between atoms: C_9  and  C_10 
REMARK       I    between atoms: C_10  and  N_11 
REMARK    6  A    between atoms: N_11  and  C_12 
REMARK    7  A    between atoms: C_20  and  C_21 
REMARK    8  A    between atoms: C_21  and  O_22 
REMARK    9  A    between atoms: C_28  and  O_29 
ROOT
HETATM    1  C   UNL     1     -44.092  59.327 -54.898  1.00  0.00     0.231 C 
HETATM    2  N   UNL     1     -43.761  58.045 -54.109  1.00  0.00    -0.054 N 
HETATM    3  H   UNL     1     -44.149  57.335 -54.746  1.00  0.00     0.281 HD
HETATM    4  C   UNL     1     -44.541  57.893 -52.836  1.00  0.00     0.239 C 
HETATM    5  C   UNL     1     -44.403  59.122 -51.958  1.00  0.00     0.066 C 
HETATM    6  C   UNL     1     -44.901  60.358 -52.703  1.00  0.00     0.065 C 
HETATM    7  C   UNL     1     -44.053  60.578 -53.979  1.00  0.00     0.055 C 
HETATM    8  C   UNL     1     -44.861  61.604 -51.801  1.00  0.00     0.038 C 
HETATM    9  C   UNL     1     -45.349  62.849 -52.538  1.00  0.00     0.003 C 
HETATM   10  C   UNL     1     -44.574  63.073 -53.829  1.00  0.00     0.001 C 
HETATM   11  C   UNL     1     -44.563  61.835 -54.723  1.00  0.00     0.010 C 
ENDROOT
BRANCH   2  12
HETATM   12  C   UNL     1     -42.271  57.644 -53.994  1.00  0.00     0.338 C 
BRANCH  12  13
HETATM   13  C   UNL     1     -42.096  56.166 -54.400  1.00  0.00     0.248 C 
HETATM   14  N   UNL     1     -40.821  55.702 -54.062  1.00  0.00    -0.319 N 
HETATM   15  H   UNL     1     -40.149  56.360 -53.692  1.00  0.00     0.169 HD
HETATM   16  O   UNL     1     -43.032  55.483 -54.799  1.00  0.00    -0.271 OA
BRANCH  14  17
HETATM   17  C   UNL     1     -40.709  54.448 -53.497  1.00  0.00     0.094 C 
HETATM   18  S   UNL     1     -40.299  53.289 -54.674  1.00  0.00    -0.075 SA
HETATM   19  C   UNL     1     -40.007  52.120 -53.484  1.00  0.00    -0.008 C 
HETATM   20  C   UNL     1     -40.327  52.564 -52.213  1.00  0.00    -0.026 C 
HETATM   21  C   UNL     1     -39.469  50.762 -53.821  1.00  0.00     0.047 C 
HETATM   22  C   UNL     1     -40.244  51.643 -51.022  1.00  0.00     0.041 C 
HETATM   23  C   UNL     1     -40.802  53.938 -52.217  1.00  0.00     0.080 C 
HETATM   24  C   UNL     1     -39.416  50.382 -51.316  1.00  0.00     0.005 C 
HETATM   25  C   UNL     1     -39.754  49.775 -52.684  1.00  0.00     0.005 C 
BRANCH  23  26
HETATM   26  C   UNL     1     -41.348  54.646 -51.054  1.00  0.00     0.296 C 
HETATM   27  O   UNL     1     -42.396  54.326 -50.507  1.00  0.00    -0.259 OA
BRANCH  26  28
HETATM   28  O   UNL     1     -40.628  55.764 -50.736  1.00  0.00    -0.322 OA
HETATM   29  C   UNL     1     -41.426  56.932 -50.536  1.00  0.00     0.213 C 
ENDBRANCH  26  28
ENDBRANCH  23  26
ENDBRANCH  14  17
ENDBRANCH  12  13
ENDBRANCH   2  12
BRANCH   1  30
HETATM   30  C   UNL     1     -43.387  59.363 -56.251  1.00  0.00     0.006 A 
HETATM   31  C   UNL     1     -43.742  58.565 -57.359  1.00  0.00     0.077 A 
HETATM   32  C   UNL     1     -43.042  58.687 -58.565  1.00  0.00     0.037 A 
HETATM   33  C   UNL     1     -41.986  59.589 -58.685  1.00  0.00     0.003 A 
HETATM   34  C   UNL     1     -41.626  60.384 -57.606  1.00  0.00     0.001 A 
HETATM   35  C   UNL     1     -42.319  60.275 -56.402  1.00  0.00     0.012 A 
BRANCH  31  36
HETATM   36  O   UNL     1     -44.824  57.736 -57.213  1.00  0.00    -0.351 OA
BRANCH  36  37
HETATM   37  C   UNL     1     -45.853  57.839 -58.205  1.00  0.00     0.171 C 
HETATM   38  C   UNL     1     -46.823  58.919 -57.757  1.00  0.00     0.034 C 
ENDBRANCH  36  37
ENDBRANCH  31  36
ENDBRANCH   1  30
BRANCH   6  39
HETATM   39  O   UNL     1     -46.255  60.093 -53.090  1.00  0.00    -0.389 OA
HETATM   40  H   UNL     1     -46.268  59.714 -53.991  1.00  0.00     0.210 HD
ENDBRANCH   6  39
TORSDOF 9
ENDMDL
MODEL 7
REMARK VINA RESULT:      -7.7      2.435      8.965
REMARK  9 active torsions:
REMARK  status: ('A' for Active; 'I' for Inactive)
REMARK    1  A    between atoms: C_2  and  O_3 
REMARK    2  A    between atoms: O_3  and  C_4 
REMARK    3  A    between atoms: C_5  and  C_6 
REMARK    4  A    between atoms: N_7  and  C_9 
REMARK    5  A    between atoms: C_9  and  C_10 
REMARK       I    between atoms: C_10  and  N_11 
REMARK    6  A    between atoms: N_11  and  C_12 
REMARK    7  A    between atoms: C_20  and  C_21 
REMARK    8  A    between atoms: C_21  and  O_22 
REMARK    9  A    between atoms: C_28  and  O_29 
ROOT
HETATM    1  C   UNL     1     -43.698  59.291 -59.158  1.00  0.00     0.231 C 
HETATM    2  N   UNL     1     -42.941  59.067 -57.836  1.00  0.00    -0.054 N 
HETATM    3  H   UNL     1     -43.734  58.947 -57.190  1.00  0.00     0.281 HD
HETATM    4  C   UNL     1     -42.212  60.280 -57.335  1.00  0.00     0.239 C 
HETATM    5  C   UNL     1     -41.291  60.844 -58.399  1.00  0.00     0.066 C 
HETATM    6  C   UNL     1     -42.093  61.222 -59.642  1.00  0.00     0.065 C 
HETATM    7  C   UNL     1     -42.786  59.965 -60.220  1.00  0.00     0.055 C 
HETATM    8  C   UNL     1     -41.196  61.885 -60.701  1.00  0.00     0.038 C 
HETATM    9  C   UNL     1     -41.986  62.260 -61.954  1.00  0.00     0.003 C 
HETATM   10  C   UNL     1     -42.727  61.060 -62.526  1.00  0.00     0.001 C 
HETATM   11  C   UNL     1     -43.592  60.358 -61.481  1.00  0.00     0.010 C 
ENDROOT
BRANCH   2  12
HETATM   12  C   UNL     1     -42.154  57.744 -57.681  1.00  0.00     0.338 C 
BRANCH  12  13
HETATM   13  C   UNL     1     -42.757  56.910 -56.531  1.00  0.00     0.248 C 
HETATM   14  N   UNL     1     -41.762  56.203 -55.850  1.00  0.00    -0.319 N 
HETATM   15  H   UNL     1     -40.817  56.231 -56.208  1.00  0.00     0.169 HD
HETATM   16  O   UNL     1     -43.929  57.021 -56.188  1.00  0.00    -0.271 OA
BRANCH  14  17
HETATM   17  C   UNL     1     -41.811  56.167 -54.471  1.00  0.00     0.094 C 
HETATM   18  S   UNL     1     -42.365  54.652 -53.925  1.00  0.00    -0.075 SA
HETATM   19  C   UNL     1     -41.956  55.030 -52.326  1.00  0.00    -0.008 C 
HETATM   20  C   UNL     1     -41.511  56.333 -52.186  1.00  0.00    -0.026 C 
HETATM   21  C   UNL     1     -42.089  54.032 -51.217  1.00  0.00     0.047 C 
HETATM   22  C   UNL     1     -41.198  56.907 -50.827  1.00  0.00     0.041 C 
HETATM   23  C   UNL     1     -41.474  57.040 -53.456  1.00  0.00     0.080 C 
HETATM   24  C   UNL     1     -41.038  55.816 -49.756  1.00  0.00     0.005 C 
HETATM   25  C   UNL     1     -42.127  54.742 -49.859  1.00  0.00     0.005 C 
BRANCH  23  26
HETATM   26  C   UNL     1     -41.183  58.468 -53.619  1.00  0.00     0.296 C 
HETATM   27  O   UNL     1     -40.077  58.952 -53.419  1.00  0.00    -0.259 OA
BRANCH  26  28
HETATM   28  O   UNL     1     -42.303  59.203 -53.892  1.00  0.00    -0.322 OA
HETATM   29  C   UNL     1     -42.376  60.438 -53.178  1.00  0.00     0.213 C 
ENDBRANCH  26  28
ENDBRANCH  23  26
ENDBRANCH  14  17
ENDBRANCH  12  13
ENDBRANCH   2  12
BRANCH   1  30
HETATM   30  C   UNL     1     -44.541  58.079 -59.547  1.00  0.00     0.006 A 
HETATM   31  C   UNL     1     -45.903  57.916 -59.221  1.00  0.00     0.077 A 
HETATM   32  C   UNL     1     -46.593  56.772 -59.642  1.00  0.00     0.037 A 
HETATM   33  C   UNL     1     -45.944  55.782 -60.379  1.00  0.00     0.003 A 
HETATM   34  C   UNL     1     -44.605  55.930 -60.712  1.00  0.00     0.001 A 
HETATM   35  C   UNL     1     -43.909  57.066 -60.303  1.00  0.00     0.012 A 
BRANCH  31  36
HETATM   36  O   UNL     1     -46.513  58.941 -58.547  1.00  0.00    -0.351 OA
BRANCH  36  37
HETATM   37  C   UNL     1     -47.653  59.539 -59.179  1.00  0.00     0.171 C 
HETATM   38  C   UNL     1     -47.145  60.556 -60.186  1.00  0.00     0.034 C 
ENDBRANCH  36  37
ENDBRANCH  31  36
ENDBRANCH   1  30
BRANCH   6  39
HETATM   39  O   UNL     1     -43.099  62.150 -59.220  1.00  0.00    -0.389 OA
HETATM   40  H   UNL     1     -42.959  62.377 -58.279  1.00  0.00     0.210 HD
ENDBRANCH   6  39
TORSDOF 9
ENDMDL
MODEL 8
REMARK VINA RESULT:      -7.7      2.816      7.662
REMARK  9 active torsions:
REMARK  status: ('A' for Active; 'I' for Inactive)
REMARK    1  A    between atoms: C_2  and  O_3 
REMARK    2  A    between atoms: O_3  and  C_4 
REMARK    3  A    between atoms: C_5  and  C_6 
REMARK    4  A    between atoms: N_7  and  C_9 
REMARK    5  A    between atoms: C_9  and  C_10 
REMARK       I    between atoms: C_10  and  N_11 
REMARK    6  A    between atoms: N_11  and  C_12 
REMARK    7  A    between atoms: C_20  and  C_21 
REMARK    8  A    between atoms: C_21  and  O_22 
REMARK    9  A    between atoms: C_28  and  O_29 
ROOT
HETATM    1  C   UNL     1     -43.634  60.523 -54.251  1.00  0.00     0.231 C 
HETATM    2  N   UNL     1     -43.071  59.111 -54.506  1.00  0.00    -0.054 N 
HETATM    3  H   UNL     1     -42.437  59.021 -53.700  1.00  0.00     0.281 HD
HETATM    4  C   UNL     1     -42.183  59.016 -55.712  1.00  0.00     0.239 C 
HETATM    5  C   UNL     1     -42.877  59.556 -56.948  1.00  0.00     0.066 C 
HETATM    6  C   UNL     1     -43.273  61.015 -56.734  1.00  0.00     0.065 C 
HETATM    7  C   UNL     1     -44.255  61.121 -55.543  1.00  0.00     0.055 C 
HETATM    8  C   UNL     1     -43.893  61.614 -58.008  1.00  0.00     0.038 C 
HETATM    9  C   UNL     1     -44.302  63.072 -57.803  1.00  0.00     0.003 C 
HETATM   10  C   UNL     1     -45.229  63.229 -56.606  1.00  0.00     0.001 C 
HETATM   11  C   UNL     1     -44.653  62.602 -55.338  1.00  0.00     0.010 C 
ENDROOT
BRANCH   2  12
HETATM   12  C   UNL     1     -44.038  57.917 -54.333  1.00  0.00     0.338 C 
BRANCH  12  13
HETATM   13  C   UNL     1     -43.565  57.027 -53.165  1.00  0.00     0.248 C 
HETATM   14  N   UNL     1     -43.966  55.701 -53.351  1.00  0.00    -0.319 N 
HETATM   15  H   UNL     1     -44.566  55.482 -54.135  1.00  0.00     0.169 HD
HETATM   16  O   UNL     1     -42.795  57.436 -52.303  1.00  0.00    -0.271 OA
BRANCH  14  17
HETATM   17  C   UNL     1     -43.059  54.698 -53.074  1.00  0.00     0.094 C 
HETATM   18  S   UNL     1     -42.439  54.029 -54.512  1.00  0.00    -0.075 SA
HETATM   19  C   UNL     1     -41.262  53.165 -53.654  1.00  0.00    -0.008 C 
HETATM   20  C   UNL     1     -41.407  53.289 -52.283  1.00  0.00    -0.026 C 
HETATM   21  C   UNL     1     -40.205  52.361 -54.348  1.00  0.00     0.047 C 
HETATM   22  C   UNL     1     -40.529  52.513 -51.334  1.00  0.00     0.041 C 
HETATM   23  C   UNL     1     -42.515  54.159 -51.925  1.00  0.00     0.080 C 
HETATM   24  C   UNL     1     -39.278  51.949 -52.026  1.00  0.00     0.005 C 
HETATM   25  C   UNL     1     -39.603  51.328 -53.390  1.00  0.00     0.005 C 
BRANCH  23  26
HETATM   26  C   UNL     1     -43.010  54.379 -50.562  1.00  0.00     0.296 C 
HETATM   27  O   UNL     1     -44.196  54.519 -50.295  1.00  0.00    -0.259 OA
BRANCH  26  28
HETATM   28  O   UNL     1     -41.998  54.535 -49.656  1.00  0.00    -0.322 OA
HETATM   29  C   UNL     1     -41.391  55.828 -49.678  1.00  0.00     0.213 C 
ENDBRANCH  26  28
ENDBRANCH  23  26
ENDBRANCH  14  17
ENDBRANCH  12  13
ENDBRANCH   2  12
BRANCH   1  30
HETATM   30  C   UNL     1     -44.406  60.601 -52.937  1.00  0.00     0.006 A 
HETATM   31  C   UNL     1     -43.808  60.672 -51.661  1.00  0.00     0.077 A 
HETATM   32  C   UNL     1     -44.607  60.759 -50.515  1.00  0.00     0.037 A 
HETATM   33  C   UNL     1     -45.997  60.771 -50.618  1.00  0.00     0.003 A 
HETATM   34  C   UNL     1     -46.602  60.706 -51.866  1.00  0.00     0.001 A 
HETATM   35  C   UNL     1     -45.817  60.624 -53.014  1.00  0.00     0.012 A 
BRANCH  31  36
HETATM   36  O   UNL     1     -42.439  60.717 -51.614  1.00  0.00    -0.351 OA
BRANCH  36  37
HETATM   37  C   UNL     1     -41.826  60.365 -50.367  1.00  0.00     0.171 C 
HETATM   38  C   UNL     1     -40.550  59.601 -50.677  1.00  0.00     0.034 C 
ENDBRANCH  36  37
ENDBRANCH  31  36
ENDBRANCH   1  30
BRANCH   6  39
HETATM   39  O   UNL     1     -42.073  61.727 -56.407  1.00  0.00    -0.389 OA
HETATM   40  H   UNL     1     -41.408  61.584 -57.110  1.00  0.00     0.210 HD
ENDBRANCH   6  39
TORSDOF 9
ENDMDL
MODEL 9
REMARK VINA RESULT:      -7.6      2.722      9.164
REMARK  9 active torsions:
REMARK  status: ('A' for Active; 'I' for Inactive)
REMARK    1  A    between atoms: C_2  and  O_3 
REMARK    2  A    between atoms: O_3  and  C_4 
REMARK    3  A    between atoms: C_5  and  C_6 
REMARK    4  A    between atoms: N_7  and  C_9 
REMARK    5  A    between atoms: C_9  and  C_10 
REMARK       I    between atoms: C_10  and  N_11 
REMARK    6  A    between atoms: N_11  and  C_12 
REMARK    7  A    between atoms: C_20  and  C_21 
REMARK    8  A    between atoms: C_21  and  O_22 
REMARK    9  A    between atoms: C_28  and  O_29 
ROOT
HETATM    1  C   UNL     1     -43.658  58.703 -58.383  1.00  0.00     0.231 C 
HETATM    2  N   UNL     1     -43.380  58.565 -56.874  1.00  0.00    -0.054 N 
HETATM    3  H   UNL     1     -44.325  58.335 -56.536  1.00  0.00     0.281 HD
HETATM    4  C   UNL     1     -43.029  59.858 -56.197  1.00  0.00     0.239 C 
HETATM    5  C   UNL     1     -41.877  60.550 -56.901  1.00  0.00     0.066 C 
HETATM    6  C   UNL     1     -42.244  60.832 -58.356  1.00  0.00     0.065 C 
HETATM    7  C   UNL     1     -42.530  59.501 -59.092  1.00  0.00     0.055 C 
HETATM    8  C   UNL     1     -41.130  61.620 -59.066  1.00  0.00     0.038 C 
HETATM    9  C   UNL     1     -41.482  61.901 -60.526  1.00  0.00     0.003 C 
HETATM   10  C   UNL     1     -41.822  60.620 -61.275  1.00  0.00     0.001 C 
HETATM   11  C   UNL     1     -42.897  59.799 -60.565  1.00  0.00     0.010 C 
ENDROOT
BRANCH   2  12
HETATM   12  C   UNL     1     -42.534  57.355 -56.413  1.00  0.00     0.338 C 
BRANCH  12  13
HETATM   13  C   UNL     1     -42.200  57.493 -54.914  1.00  0.00     0.248 C 
HETATM   14  N   UNL     1     -42.823  56.488 -54.167  1.00  0.00    -0.319 N 
HETATM   15  H   UNL     1     -43.465  55.864 -54.637  1.00  0.00     0.169 HD
HETATM   16  O   UNL     1     -41.357  58.282 -54.502  1.00  0.00    -0.271 OA
BRANCH  14  17
HETATM   17  C   UNL     1     -42.096  55.862 -53.176  1.00  0.00     0.094 C 
HETATM   18  S   UNL     1     -42.344  56.622 -51.673  1.00  0.00    -0.075 SA
HETATM   19  C   UNL     1     -41.549  55.368 -50.858  1.00  0.00    -0.008 C 
HETATM   20  C   UNL     1     -40.999  54.438 -51.723  1.00  0.00    -0.026 C 
HETATM   21  C   UNL     1     -41.469  55.319 -49.362  1.00  0.00     0.047 C 
HETATM   22  C   UNL     1     -40.155  53.299 -51.208  1.00  0.00     0.041 C 
HETATM   23  C   UNL     1     -41.272  54.755 -53.115  1.00  0.00     0.080 C 
HETATM   24  C   UNL     1     -40.332  53.079 -49.697  1.00  0.00     0.005 C 
HETATM   25  C   UNL     1     -40.326  54.400 -48.917  1.00  0.00     0.005 C 
BRANCH  23  26
HETATM   26  C   UNL     1     -40.711  54.045 -54.269  1.00  0.00     0.296 C 
HETATM   27  O   UNL     1     -39.888  54.544 -55.026  1.00  0.00    -0.259 OA
BRANCH  26  28
HETATM   28  O   UNL     1     -41.300  52.828 -54.472  1.00  0.00    -0.322 OA
HETATM   29  C   UNL     1     -40.405  51.721 -54.353  1.00  0.00     0.213 C 
ENDBRANCH  26  28
ENDBRANCH  23  26
ENDBRANCH  14  17
ENDBRANCH  12  13
ENDBRANCH   2  12
BRANCH   1  30
HETATM   30  C   UNL     1     -44.155  57.395 -58.994  1.00  0.00     0.006 A 
HETATM   31  C   UNL     1     -45.505  57.112 -59.290  1.00  0.00     0.077 A 
HETATM   32  C   UNL     1     -45.855  55.886 -59.868  1.00  0.00     0.037 A 
HETATM   33  C   UNL     1     -44.881  54.931 -60.152  1.00  0.00     0.003 A 
HETATM   34  C   UNL     1     -43.547  55.195 -59.871  1.00  0.00     0.001 A 
HETATM   35  C   UNL     1     -43.185  56.413 -59.301  1.00  0.00     0.012 A 
BRANCH  31  36
HETATM   36  O   UNL     1     -46.419  58.104 -59.049  1.00  0.00    -0.351 OA
BRANCH  36  37
HETATM   37  C   UNL     1     -47.257  58.489 -60.146  1.00  0.00     0.171 C 
HETATM   38  C   UNL     1     -46.514  59.543 -60.949  1.00  0.00     0.034 C 
ENDBRANCH  36  37
ENDBRANCH  31  36
ENDBRANCH   1  30
BRANCH   6  39
HETATM   39  O   UNL     1     -43.444  61.616 -58.337  1.00  0.00    -0.389 OA
HETATM   40  H   UNL     1     -44.218  61.029 -58.449  1.00  0.00     0.210 HD
ENDBRANCH   6  39
TORSDOF 9
ENDMDL
MODEL 10
REMARK VINA RESULT:      -7.4      2.446      8.259
REMARK  9 active torsions:
REMARK  status: ('A' for Active; 'I' for Inactive)
REMARK    1  A    between atoms: C_2  and  O_3 
REMARK    2  A    between atoms: O_3  and  C_4 
REMARK    3  A    between atoms: C_5  and  C_6 
REMARK    4  A    between atoms: N_7  and  C_9 
REMARK    5  A    between atoms: C_9  and  C_10 
REMARK       I    between atoms: C_10  and  N_11 
REMARK    6  A    between atoms: N_11  and  C_12 
REMARK    7  A    between atoms: C_20  and  C_21 
REMARK    8  A    between atoms: C_21  and  O_22 
REMARK    9  A    between atoms: C_28  and  O_29 
ROOT
HETATM    1  C   UNL     1     -43.985  58.750 -56.761  1.00  0.00     0.231 C 
HETATM    2  N   UNL     1     -43.606  57.458 -56.011  1.00  0.00    -0.054 N 
HETATM    3  H   UNL     1     -44.062  56.758 -56.613  1.00  0.00     0.281 HD
HETATM    4  C   UNL     1     -44.271  57.311 -54.673  1.00  0.00     0.239 C 
HETATM    5  C   UNL     1     -44.033  58.533 -53.806  1.00  0.00     0.066 C 
HETATM    6  C   UNL     1     -44.575  59.782 -54.498  1.00  0.00     0.065 C 
HETATM    7  C   UNL     1     -43.842  59.995 -55.844  1.00  0.00     0.055 C 
HETATM    8  C   UNL     1     -44.433  61.020 -53.597  1.00  0.00     0.038 C 
HETATM    9  C   UNL     1     -44.964  62.279 -54.282  1.00  0.00     0.003 C 
HETATM   10  C   UNL     1     -44.305  62.497 -55.637  1.00  0.00     0.001 C 
HETATM   11  C   UNL     1     -44.396  61.264 -56.534  1.00  0.00     0.010 C 
ENDROOT
BRANCH   2  12
HETATM   12  C   UNL     1     -42.120  57.032 -56.033  1.00  0.00     0.338 C 
BRANCH  12  13
HETATM   13  C   UNL     1     -42.007  55.519 -55.753  1.00  0.00     0.248 C 
HETATM   14  N   UNL     1     -40.796  55.215 -55.123  1.00  0.00    -0.319 N 
HETATM   15  H   UNL     1     -40.116  55.953 -55.002  1.00  0.00     0.169 HD
HETATM   16  O   UNL     1     -42.949  54.752 -55.916  1.00  0.00    -0.271 OA
BRANCH  14  17
HETATM   17  C   UNL     1     -40.811  54.322 -54.071  1.00  0.00     0.094 C 
HETATM   18  S   UNL     1     -40.140  52.828 -54.537  1.00  0.00    -0.075 SA
HETATM   19  C   UNL     1     -40.121  52.287 -52.932  1.00  0.00    -0.008 C 
HETATM   20  C   UNL     1     -40.723  53.180 -52.063  1.00  0.00    -0.026 C 
HETATM   21  C   UNL     1     -39.516  50.971 -52.546  1.00  0.00     0.047 C 
HETATM   22  C   UNL     1     -40.910  52.844 -50.605  1.00  0.00     0.041 C 
HETATM   23  C   UNL     1     -41.190  54.377 -52.744  1.00  0.00     0.080 C 
HETATM   24  C   UNL     1     -40.032  51.662 -50.163  1.00  0.00     0.005 C 
HETATM   25  C   UNL     1     -40.049  50.516 -51.183  1.00  0.00     0.005 C 
BRANCH  23  26
HETATM   26  C   UNL     1     -41.988  55.442 -52.128  1.00  0.00     0.296 C 
HETATM   27  O   UNL     1     -41.499  56.471 -51.680  1.00  0.00    -0.259 OA
BRANCH  26  28
HETATM   28  O   UNL     1     -43.306  55.101 -51.997  1.00  0.00    -0.322 OA
HETATM   29  C   UNL     1     -43.780  55.115 -50.650  1.00  0.00     0.213 C 
ENDBRANCH  26  28
ENDBRANCH  23  26
ENDBRANCH  14  17
ENDBRANCH  12  13
ENDBRANCH   2  12
BRANCH   1  30
HETATM   30  C   UNL     1     -43.405  58.782 -58.172  1.00  0.00     0.006 A 
HETATM   31  C   UNL     1     -43.651  57.805 -59.161  1.00  0.00     0.077 A 
HETATM   32  C   UNL     1     -43.084  57.937 -60.434  1.00  0.00     0.037 A 
HETATM   33  C   UNL     1     -42.267  59.025 -60.739  1.00  0.00     0.003 A 
HETATM   34  C   UNL     1     -42.018  59.996 -59.779  1.00  0.00     0.001 A 
HETATM   35  C   UNL     1     -42.581  59.879 -58.510  1.00  0.00     0.012 A 
BRANCH  31  36
HETATM   36  O   UNL     1     -44.507  56.786 -58.834  1.00  0.00    -0.351 OA
BRANCH  36  37
HETATM   37  C   UNL     1     -45.246  56.196 -59.911  1.00  0.00     0.171 C 
HETATM   38  C   UNL     1     -44.871  54.726 -59.980  1.00  0.00     0.034 C 
ENDBRANCH  36  37
ENDBRANCH  31  36
ENDBRANCH   1  30
BRANCH   6  39
HETATM   39  O   UNL     1     -45.963  59.541 -54.762  1.00  0.00    -0.389 OA
HETATM   40  H   UNL     1     -46.144  58.582 -54.700  1.00  0.00     0.210 HD
ENDBRANCH   6  39
TORSDOF 9
ENDMDL
