MODEL 1
REMARK VINA RESULT:      -7.8      0.000      0.000
REMARK  3 active torsions:
REMARK  status: ('A' for Active; 'I' for Inactive)
REMARK    1  A    between atoms: C_9  and  C_10 
REMARK    2  A    between atoms: C_16  and  C_17 
REMARK       I    between atoms: C_17  and  N_18 
REMARK    3  A    between atoms: N_18  and  C_19 
ROOT
HETATM    1  C   UNL     1     -41.082  56.275 -49.932  1.00  0.00     0.070 C 
HETATM    2  C   UNL     1     -42.047  56.840 -50.946  1.00  0.00     0.037 C 
HETATM    3  N   UNL     1     -42.391  58.176 -50.765  1.00  0.00    -0.192 N 
HETATM    4  C   UNL     1     -43.423  58.756 -51.408  1.00  0.00     0.725 A 
HETATM    5  N   UNL     1     -44.058  58.076 -52.411  1.00  0.00    -0.082 N 
HETATM    6  N   UNL     1     -45.159  58.740 -52.833  1.00  0.00    -0.149 NA
HETATM    7  C   UNL     1     -45.071  59.852 -52.093  1.00  0.00     0.275 A 
HETATM    8  N   UNL     1     -44.025  59.901 -51.208  1.00  0.00    -0.054 NA
HETATM    9  C   UNL     1     -43.670  56.742 -52.871  1.00  0.00     0.221 C 
HETATM   10  C   UNL     1     -42.629  56.127 -51.942  1.00  0.00     0.064 C 
HETATM   11  H   UNL     1     -41.998  58.660 -49.962  1.00  0.00     0.184 HD
ENDROOT
BRANCH  10  12
HETATM   12  C   UNL     1     -42.417  54.675 -52.173  1.00  0.00     0.256 C 
HETATM   13  N   UNL     1     -41.190  54.362 -52.710  1.00  0.00    -0.322 N 
HETATM   14  H   UNL     1     -40.603  55.137 -52.995  1.00  0.00     0.169 HD
HETATM   15  O   UNL     1     -43.324  53.897 -51.903  1.00  0.00    -0.267 OA
BRANCH  13  16
HETATM   16  C   UNL     1     -40.652  53.066 -52.863  1.00  0.00     0.052 A 
HETATM   17  C   UNL     1     -39.955  52.367 -51.881  1.00  0.00     0.145 A 
HETATM   18  N   UNL     1     -39.404  51.138 -52.065  1.00  0.00    -0.271 NA
HETATM   19  C   UNL     1     -39.550  50.580 -53.283  1.00  0.00     0.116 A 
HETATM   20  C   UNL     1     -40.227  51.188 -54.325  1.00  0.00     0.021 A 
HETATM   21  C   UNL     1     -40.789  52.447 -54.107  1.00  0.00     0.032 A 
ENDBRANCH  13  16
ENDBRANCH  10  12
BRANCH   9  22
HETATM   22  C   UNL     1     -43.187  56.849 -54.314  1.00  0.00     0.064 A 
HETATM   23  N   UNL     1     -42.587  58.005 -54.715  1.00  0.00    -0.263 NA
HETATM   24  C   UNL     1     -42.236  58.106 -56.017  1.00  0.00     0.117 A 
HETATM   25  C   UNL     1     -42.440  57.107 -56.952  1.00  0.00     0.019 A 
HETATM   26  C   UNL     1     -43.039  55.928 -56.532  1.00  0.00     0.003 A 
HETATM   27  C   UNL     1     -43.420  55.793 -55.200  1.00  0.00     0.030 A 
ENDBRANCH   9  22
TORSDOF 3
ENDMDL
MODEL 2
REMARK VINA RESULT:      -7.8      2.207      5.597
REMARK  3 active torsions:
REMARK  status: ('A' for Active; 'I' for Inactive)
REMARK    1  A    between atoms: C_9  and  C_10 
REMARK    2  A    between atoms: C_16  and  C_17 
REMARK       I    between atoms: C_17  and  N_18 
REMARK    3  A    between atoms: N_18  and  C_19 
ROOT
HETATM    1  C   UNL     1     -40.678  52.913 -54.474  1.00  0.00     0.070 C 
HETATM    2  C   UNL     1     -40.981  53.773 -53.272  1.00  0.00     0.037 C 
HETATM    3  N   UNL     1     -40.210  53.517 -52.142  1.00  0.00    -0.192 N 
HETATM    4  C   UNL     1     -40.519  54.001 -50.923  1.00  0.00     0.725 A 
HETATM    5  N   UNL     1     -41.522  54.924 -50.801  1.00  0.00    -0.082 N 
HETATM    6  N   UNL     1     -41.799  55.178 -49.501  1.00  0.00    -0.149 NA
HETATM    7  C   UNL     1     -40.863  54.431 -48.903  1.00  0.00     0.275 A 
HETATM    8  N   UNL     1     -40.061  53.694 -49.736  1.00  0.00    -0.054 NA
HETATM    9  C   UNL     1     -42.283  55.463 -51.929  1.00  0.00     0.221 C 
HETATM   10  C   UNL     1     -41.972  54.698 -53.211  1.00  0.00     0.064 C 
HETATM   11  H   UNL     1     -39.530  52.764 -52.197  1.00  0.00     0.184 HD
ENDROOT
BRANCH  10  12
HETATM   12  C   UNL     1     -42.920  54.989 -54.316  1.00  0.00     0.256 C 
HETATM   13  N   UNL     1     -42.485  55.953 -55.195  1.00  0.00    -0.322 N 
HETATM   14  H   UNL     1     -41.631  56.442 -54.953  1.00  0.00     0.169 HD
HETATM   15  O   UNL     1     -43.989  54.391 -54.348  1.00  0.00    -0.267 OA
BRANCH  13  16
HETATM   16  C   UNL     1     -43.088  56.296 -56.424  1.00  0.00     0.052 A 
HETATM   17  C   UNL     1     -43.885  57.418 -56.640  1.00  0.00     0.145 A 
HETATM   18  N   UNL     1     -44.496  57.704 -57.819  1.00  0.00    -0.271 NA
HETATM   19  C   UNL     1     -44.308  56.834 -58.832  1.00  0.00     0.116 A 
HETATM   20  C   UNL     1     -43.533  55.693 -58.723  1.00  0.00     0.021 A 
HETATM   21  C   UNL     1     -42.912  55.426 -57.502  1.00  0.00     0.032 A 
ENDBRANCH  13  16
ENDBRANCH  10  12
BRANCH   9  22
HETATM   22  C   UNL     1     -41.988  56.955 -52.044  1.00  0.00     0.064 A 
HETATM   23  N   UNL     1     -40.864  57.347 -52.709  1.00  0.00    -0.263 NA
HETATM   24  C   UNL     1     -40.583  58.670 -52.731  1.00  0.00     0.117 A 
HETATM   25  C   UNL     1     -41.370  59.638 -52.134  1.00  0.00     0.019 A 
HETATM   26  C   UNL     1     -42.520  59.231 -51.472  1.00  0.00     0.003 A 
HETATM   27  C   UNL     1     -42.835  57.876 -51.422  1.00  0.00     0.030 A 
ENDBRANCH   9  22
TORSDOF 3
ENDMDL
MODEL 3
REMARK VINA RESULT:      -7.3      2.342      5.806
REMARK  3 active torsions:
REMARK  status: ('A' for Active; 'I' for Inactive)
REMARK    1  A    between atoms: C_9  and  C_10 
REMARK    2  A    between atoms: C_16  and  C_17 
REMARK       I    between atoms: C_17  and  N_18 
REMARK    3  A    between atoms: N_18  and  C_19 
ROOT
HETATM    1  C   UNL     1     -44.129  56.630 -51.715  1.00  0.00     0.070 C 
HETATM    2  C   UNL     1     -42.906  55.785 -51.460  1.00  0.00     0.037 C 
HETATM    3  N   UNL     1     -42.804  55.249 -50.180  1.00  0.00    -0.192 N 
HETATM    4  C   UNL     1     -41.669  54.698 -49.708  1.00  0.00     0.725 A 
HETATM    5  N   UNL     1     -40.619  54.488 -50.560  1.00  0.00    -0.082 N 
HETATM    6  N   UNL     1     -39.517  54.079 -49.889  1.00  0.00    -0.149 NA
HETATM    7  C   UNL     1     -40.009  53.986 -48.647  1.00  0.00     0.275 A 
HETATM    8  N   UNL     1     -41.320  54.358 -48.493  1.00  0.00    -0.054 NA
HETATM    9  C   UNL     1     -40.649  54.796 -51.990  1.00  0.00     0.221 C 
HETATM   10  C   UNL     1     -41.903  55.584 -52.352  1.00  0.00     0.064 C 
HETATM   11  H   UNL     1     -43.533  55.483 -49.512  1.00  0.00     0.184 HD
ENDROOT
BRANCH  10  12
HETATM   12  C   UNL     1     -41.852  56.183 -53.710  1.00  0.00     0.256 C 
HETATM   13  N   UNL     1     -42.798  55.693 -54.579  1.00  0.00    -0.322 N 
HETATM   14  H   UNL     1     -43.355  54.910 -54.258  1.00  0.00     0.169 HD
HETATM   15  O   UNL     1     -40.989  57.018 -53.953  1.00  0.00    -0.267 OA
BRANCH  13  16
HETATM   16  C   UNL     1     -43.097  56.203 -55.861  1.00  0.00     0.052 A 
HETATM   17  C   UNL     1     -43.693  57.436 -56.115  1.00  0.00     0.145 A 
HETATM   18  N   UNL     1     -44.015  57.887 -57.355  1.00  0.00    -0.271 NA
HETATM   19  C   UNL     1     -43.736  57.074 -58.393  1.00  0.00     0.116 A 
HETATM   20  C   UNL     1     -43.142  55.832 -58.250  1.00  0.00     0.021 A 
HETATM   21  C   UNL     1     -42.815  55.395 -56.965  1.00  0.00     0.032 A 
ENDBRANCH  13  16
ENDBRANCH  10  12
BRANCH   9  22
HETATM   22  C   UNL     1     -40.525  53.490 -52.769  1.00  0.00     0.064 A 
HETATM   23  N   UNL     1     -41.327  53.301 -53.855  1.00  0.00    -0.263 NA
HETATM   24  C   UNL     1     -41.255  52.106 -54.483  1.00  0.00     0.117 A 
HETATM   25  C   UNL     1     -40.411  51.080 -54.097  1.00  0.00     0.019 A 
HETATM   26  C   UNL     1     -39.587  51.286 -52.999  1.00  0.00     0.003 A 
HETATM   27  C   UNL     1     -39.642  52.501 -52.324  1.00  0.00     0.030 A 
ENDBRANCH   9  22
TORSDOF 3
ENDMDL
MODEL 4
REMARK VINA RESULT:      -7.2      2.864      5.773
REMARK  3 active torsions:
REMARK  status: ('A' for Active; 'I' for Inactive)
REMARK    1  A    between atoms: C_9  and  C_10 
REMARK    2  A    between atoms: C_16  and  C_17 
REMARK       I    between atoms: C_17  and  N_18 
REMARK    3  A    between atoms: N_18  and  C_19 
ROOT
HETATM    1  C   UNL     1     -45.154  59.451 -54.879  1.00  0.00     0.070 C 
HETATM    2  C   UNL     1     -43.941  58.834 -54.228  1.00  0.00     0.037 C 
HETATM    3  N   UNL     1     -43.808  59.070 -52.864  1.00  0.00    -0.192 N 
HETATM    4  C   UNL     1     -42.670  58.822 -52.188  1.00  0.00     0.725 A 
HETATM    5  N   UNL     1     -41.653  58.147 -52.808  1.00  0.00    -0.082 N 
HETATM    6  N   UNL     1     -40.539  58.127 -52.041  1.00  0.00    -0.149 NA
HETATM    7  C   UNL     1     -40.991  58.736 -50.938  1.00  0.00     0.275 A 
HETATM    8  N   UNL     1     -42.288  59.179 -50.988  1.00  0.00    -0.054 NA
HETATM    9  C   UNL     1     -41.724  57.636 -54.177  1.00  0.00     0.221 C 
HETATM   10  C   UNL     1     -42.973  58.148 -54.887  1.00  0.00     0.064 C 
HETATM   11  H   UNL     1     -44.509  59.654 -52.416  1.00  0.00     0.184 HD
ENDROOT
BRANCH  10  12
HETATM   12  C   UNL     1     -42.954  57.917 -56.354  1.00  0.00     0.256 C 
HETATM   13  N   UNL     1     -43.805  56.925 -56.780  1.00  0.00    -0.322 N 
HETATM   14  H   UNL     1     -44.270  56.380 -56.063  1.00  0.00     0.169 HD
HETATM   15  O   UNL     1     -42.194  58.585 -57.045  1.00  0.00    -0.267 OA
BRANCH  13  16
HETATM   16  C   UNL     1     -44.125  56.618 -58.120  1.00  0.00     0.052 A 
HETATM   17  C   UNL     1     -45.005  57.343 -58.920  1.00  0.00     0.145 A 
HETATM   18  N   UNL     1     -45.335  57.003 -60.193  1.00  0.00    -0.271 NA
HETATM   19  C   UNL     1     -44.767  55.889 -60.695  1.00  0.00     0.116 A 
HETATM   20  C   UNL     1     -43.877  55.101 -59.986  1.00  0.00     0.021 A 
HETATM   21  C   UNL     1     -43.550  55.476 -58.683  1.00  0.00     0.032 A 
ENDBRANCH  13  16
ENDBRANCH  10  12
BRANCH   9  22
HETATM   22  C   UNL     1     -41.654  56.112 -54.128  1.00  0.00     0.064 A 
HETATM   23  N   UNL     1     -42.605  55.439 -53.420  1.00  0.00    -0.263 NA
HETATM   24  C   UNL     1     -42.479  54.096 -53.327  1.00  0.00     0.117 A 
HETATM   25  C   UNL     1     -41.456  53.373 -53.915  1.00  0.00     0.019 A 
HETATM   26  C   UNL     1     -40.501  54.065 -54.646  1.00  0.00     0.003 A 
HETATM   27  C   UNL     1     -40.595  55.449 -54.756  1.00  0.00     0.030 A 
ENDBRANCH   9  22
TORSDOF 3
ENDMDL
MODEL 5
REMARK VINA RESULT:      -7.2      2.147      5.373
REMARK  3 active torsions:
REMARK  status: ('A' for Active; 'I' for Inactive)
REMARK    1  A    between atoms: C_9  and  C_10 
REMARK    2  A    between atoms: C_16  and  C_17 
REMARK       I    between atoms: C_17  and  N_18 
REMARK    3  A    between atoms: N_18  and  C_19 
ROOT
HETATM    1  C   UNL     1     -45.351  59.127 -52.030  1.00  0.00     0.070 C 
HETATM    2  C   UNL     1     -43.893  58.741 -52.004  1.00  0.00     0.037 C 
HETATM    3  N   UNL     1     -43.158  59.246 -50.935  1.00  0.00    -0.192 N 
HETATM    4  C   UNL     1     -41.812  59.220 -50.899  1.00  0.00     0.725 A 
HETATM    5  N   UNL     1     -41.127  58.519 -51.853  1.00  0.00    -0.082 N 
HETATM    6  N   UNL     1     -39.794  58.732 -51.756  1.00  0.00    -0.149 NA
HETATM    7  C   UNL     1     -39.750  59.506 -50.665  1.00  0.00     0.275 A 
HETATM    8  N   UNL     1     -40.962  59.830 -50.112  1.00  0.00    -0.054 NA
HETATM    9  C   UNL     1     -41.765  57.748 -52.921  1.00  0.00     0.221 C 
HETATM   10  C   UNL     1     -43.266  58.017 -52.965  1.00  0.00     0.064 C 
HETATM   11  H   UNL     1     -43.641  59.850 -50.276  1.00  0.00     0.184 HD
ENDROOT
BRANCH  10  12
HETATM   12  C   UNL     1     -43.920  57.509 -54.198  1.00  0.00     0.256 C 
HETATM   13  N   UNL     1     -43.341  57.948 -55.365  1.00  0.00    -0.322 N 
HETATM   14  H   UNL     1     -42.612  58.647 -55.281  1.00  0.00     0.169 HD
HETATM   15  O   UNL     1     -44.903  56.786 -54.088  1.00  0.00    -0.267 OA
BRANCH  13  16
HETATM   16  C   UNL     1     -43.634  57.487 -56.667  1.00  0.00     0.052 A 
HETATM   17  C   UNL     1     -44.556  58.068 -57.534  1.00  0.00     0.145 A 
HETATM   18  N   UNL     1     -44.857  57.581 -58.766  1.00  0.00    -0.271 NA
HETATM   19  C   UNL     1     -44.215  56.461 -59.153  1.00  0.00     0.116 A 
HETATM   20  C   UNL     1     -43.279  55.808 -58.369  1.00  0.00     0.021 A 
HETATM   21  C   UNL     1     -42.983  56.334 -57.111  1.00  0.00     0.032 A 
ENDBRANCH  13  16
ENDBRANCH  10  12
BRANCH   9  22
HETATM   22  C   UNL     1     -41.434  56.273 -52.717  1.00  0.00     0.064 A 
HETATM   23  N   UNL     1     -41.600  55.734 -51.476  1.00  0.00    -0.263 NA
HETATM   24  C   UNL     1     -41.228  54.446 -51.301  1.00  0.00     0.117 A 
HETATM   25  C   UNL     1     -40.704  53.649 -52.304  1.00  0.00     0.019 A 
HETATM   26  C   UNL     1     -40.552  54.202 -53.568  1.00  0.00     0.003 A 
HETATM   27  C   UNL     1     -40.917  55.528 -53.781  1.00  0.00     0.030 A 
ENDBRANCH   9  22
TORSDOF 3
ENDMDL
MODEL 6
REMARK VINA RESULT:      -7.2      2.014      4.515
REMARK  3 active torsions:
REMARK  status: ('A' for Active; 'I' for Inactive)
REMARK    1  A    between atoms: C_9  and  C_10 
REMARK    2  A    between atoms: C_16  and  C_17 
REMARK       I    between atoms: C_17  and  N_18 
REMARK    3  A    between atoms: N_18  and  C_19 
ROOT
HETATM    1  C   UNL     1     -43.589  55.304 -58.426  1.00  0.00     0.070 C 
HETATM    2  C   UNL     1     -43.208  56.479 -57.560  1.00  0.00     0.037 C 
HETATM    3  N   UNL     1     -43.340  57.730 -58.154  1.00  0.00    -0.192 N 
HETATM    4  C   UNL     1     -42.805  58.848 -57.628  1.00  0.00     0.725 A 
HETATM    5  N   UNL     1     -42.260  58.807 -56.374  1.00  0.00    -0.082 N 
HETATM    6  N   UNL     1     -41.634  59.968 -56.072  1.00  0.00    -0.149 NA
HETATM    7  C   UNL     1     -41.920  60.689 -57.163  1.00  0.00     0.275 A 
HETATM    8  N   UNL     1     -42.632  60.041 -58.139  1.00  0.00    -0.054 NA
HETATM    9  C   UNL     1     -42.242  57.613 -55.527  1.00  0.00     0.221 C 
HETATM   10  C   UNL     1     -42.696  56.384 -56.307  1.00  0.00     0.064 C 
HETATM   11  H   UNL     1     -43.651  57.761 -59.122  1.00  0.00     0.184 HD
ENDROOT
BRANCH  10  12
HETATM   12  C   UNL     1     -42.417  55.105 -55.606  1.00  0.00     0.256 C 
HETATM   13  N   UNL     1     -41.219  55.080 -54.931  1.00  0.00    -0.322 N 
HETATM   14  H   UNL     1     -40.602  55.873 -55.063  1.00  0.00     0.169 HD
HETATM   15  O   UNL     1     -43.231  54.194 -55.697  1.00  0.00    -0.267 OA
BRANCH  13  16
HETATM   16  C   UNL     1     -40.784  54.077 -54.039  1.00  0.00     0.052 A 
HETATM   17  C   UNL     1     -40.764  54.191 -52.651  1.00  0.00     0.145 A 
HETATM   18  N   UNL     1     -40.297  53.230 -51.813  1.00  0.00    -0.271 NA
HETATM   19  C   UNL     1     -39.823  52.102 -52.380  1.00  0.00     0.116 A 
HETATM   20  C   UNL     1     -39.801  51.887 -53.747  1.00  0.00     0.021 A 
HETATM   21  C   UNL     1     -40.293  52.888 -54.585  1.00  0.00     0.032 A 
ENDBRANCH  13  16
ENDBRANCH  10  12
BRANCH   9  22
HETATM   22  C   UNL     1     -43.099  57.882 -54.293  1.00  0.00     0.064 A 
HETATM   23  N   UNL     1     -42.595  57.562 -53.068  1.00  0.00    -0.263 NA
HETATM   24  C   UNL     1     -43.401  57.738 -51.997  1.00  0.00     0.117 A 
HETATM   25  C   UNL     1     -44.691  58.231 -52.073  1.00  0.00     0.019 A 
HETATM   26  C   UNL     1     -45.191  58.569 -53.323  1.00  0.00     0.003 A 
HETATM   27  C   UNL     1     -44.391  58.393 -54.448  1.00  0.00     0.030 A 
ENDBRANCH   9  22
TORSDOF 3
ENDMDL
MODEL 7
REMARK VINA RESULT:      -7.2      2.447      5.656
REMARK  3 active torsions:
REMARK  status: ('A' for Active; 'I' for Inactive)
REMARK    1  A    between atoms: C_9  and  C_10 
REMARK    2  A    between atoms: C_16  and  C_17 
REMARK       I    between atoms: C_17  and  N_18 
REMARK    3  A    between atoms: N_18  and  C_19 
ROOT
HETATM    1  C   UNL     1     -40.155  53.898 -55.268  1.00  0.00     0.070 C 
HETATM    2  C   UNL     1     -41.079  54.467 -54.219  1.00  0.00     0.037 C 
HETATM    3  N   UNL     1     -40.605  54.419 -52.912  1.00  0.00    -0.192 N 
HETATM    4  C   UNL     1     -41.393  54.636 -51.842  1.00  0.00     0.725 A 
HETATM    5  N   UNL     1     -42.668  55.097 -52.028  1.00  0.00    -0.082 N 
HETATM    6  N   UNL     1     -43.360  55.106 -50.865  1.00  0.00    -0.149 NA
HETATM    7  C   UNL     1     -42.406  54.718 -50.010  1.00  0.00     0.275 A 
HETATM    8  N   UNL     1     -41.189  54.419 -50.567  1.00  0.00    -0.054 NA
HETATM    9  C   UNL     1     -43.244  55.408 -53.337  1.00  0.00     0.221 C 
HETATM   10  C   UNL     1     -42.328  54.938 -54.462  1.00  0.00     0.064 C 
HETATM   11  H   UNL     1     -39.698  53.987 -52.756  1.00  0.00     0.184 HD
ENDROOT
BRANCH  10  12
HETATM   12  C   UNL     1     -42.981  54.948 -55.796  1.00  0.00     0.256 C 
HETATM   13  N   UNL     1     -42.915  56.158 -56.447  1.00  0.00    -0.322 N 
HETATM   14  H   UNL     1     -42.538  56.940 -55.925  1.00  0.00     0.169 HD
HETATM   15  O   UNL     1     -43.528  53.926 -56.191  1.00  0.00    -0.267 OA
BRANCH  13  16
HETATM   16  C   UNL     1     -43.284  56.406 -57.786  1.00  0.00     0.052 A 
HETATM   17  C   UNL     1     -42.716  55.793 -58.901  1.00  0.00     0.145 A 
HETATM   18  N   UNL     1     -43.053  56.081 -60.185  1.00  0.00    -0.271 NA
HETATM   19  C   UNL     1     -43.997  57.025 -60.371  1.00  0.00     0.116 A 
HETATM   20  C   UNL     1     -44.626  57.691 -59.333  1.00  0.00     0.021 A 
HETATM   21  C   UNL     1     -44.265  57.371 -58.024  1.00  0.00     0.032 A 
ENDBRANCH  13  16
ENDBRANCH  10  12
BRANCH   9  22
HETATM   22  C   UNL     1     -43.534  56.905 -53.394  1.00  0.00     0.064 A 
HETATM   23  N   UNL     1     -44.747  57.315 -53.861  1.00  0.00    -0.263 NA
HETATM   24  C   UNL     1     -44.953  58.647 -53.975  1.00  0.00     0.117 A 
HETATM   25  C   UNL     1     -44.015  59.606 -53.636  1.00  0.00     0.019 A 
HETATM   26  C   UNL     1     -42.787  59.179 -53.148  1.00  0.00     0.003 A 
HETATM   27  C   UNL     1     -42.539  57.815 -53.026  1.00  0.00     0.030 A 
ENDBRANCH   9  22
TORSDOF 3
ENDMDL
MODEL 8
REMARK VINA RESULT:      -6.9      2.221      4.516
REMARK  3 active torsions:
REMARK  status: ('A' for Active; 'I' for Inactive)
REMARK    1  A    between atoms: C_9  and  C_10 
REMARK    2  A    between atoms: C_16  and  C_17 
REMARK       I    between atoms: C_17  and  N_18 
REMARK    3  A    between atoms: N_18  and  C_19 
ROOT
HETATM    1  C   UNL     1     -43.207  54.003 -55.529  1.00  0.00     0.070 C 
HETATM    2  C   UNL     1     -43.029  55.500 -55.474  1.00  0.00     0.037 C 
HETATM    3  N   UNL     1     -43.711  56.221 -56.449  1.00  0.00    -0.192 N 
HETATM    4  C   UNL     1     -43.460  57.519 -56.706  1.00  0.00     0.725 A 
HETATM    5  N   UNL     1     -42.635  58.222 -55.871  1.00  0.00    -0.082 N 
HETATM    6  N   UNL     1     -42.372  59.454 -56.366  1.00  0.00    -0.149 NA
HETATM    7  C   UNL     1     -43.144  59.448 -57.459  1.00  0.00     0.275 A 
HETATM    8  N   UNL     1     -43.824  58.283 -57.705  1.00  0.00    -0.054 NA
HETATM    9  C   UNL     1     -42.012  57.662 -54.671  1.00  0.00     0.221 C 
HETATM   10  C   UNL     1     -42.217  56.153 -54.604  1.00  0.00     0.064 C 
HETATM   11  H   UNL     1     -44.248  55.695 -57.134  1.00  0.00     0.184 HD
ENDROOT
BRANCH  10  12
HETATM   12  C   UNL     1     -41.365  55.487 -53.586  1.00  0.00     0.256 C 
HETATM   13  N   UNL     1     -41.887  55.506 -52.314  1.00  0.00    -0.322 N 
HETATM   14  H   UNL     1     -42.726  56.055 -52.171  1.00  0.00     0.169 HD
HETATM   15  O   UNL     1     -40.292  55.010 -53.936  1.00  0.00    -0.267 OA
BRANCH  13  16
HETATM   16  C   UNL     1     -41.390  54.800 -51.197  1.00  0.00     0.052 A 
HETATM   17  C   UNL     1     -40.982  53.468 -51.207  1.00  0.00     0.145 A 
HETATM   18  N   UNL     1     -40.551  52.795 -50.109  1.00  0.00    -0.271 NA
HETATM   19  C   UNL     1     -40.526  53.475 -48.945  1.00  0.00     0.116 A 
HETATM   20  C   UNL     1     -40.906  54.801 -48.829  1.00  0.00     0.021 A 
HETATM   21  C   UNL     1     -41.339  55.471 -49.973  1.00  0.00     0.032 A 
ENDBRANCH  13  16
ENDBRANCH  10  12
BRANCH   9  22
HETATM   22  C   UNL     1     -42.570  58.390 -53.452  1.00  0.00     0.064 A 
HETATM   23  N   UNL     1     -41.694  58.891 -52.536  1.00  0.00    -0.263 NA
HETATM   24  C   UNL     1     -42.212  59.465 -51.426  1.00  0.00     0.117 A 
HETATM   25  C   UNL     1     -43.568  59.581 -51.178  1.00  0.00     0.019 A 
HETATM   26  C   UNL     1     -44.453  59.081 -52.123  1.00  0.00     0.003 A 
HETATM   27  C   UNL     1     -43.954  58.477 -53.273  1.00  0.00     0.030 A 
ENDBRANCH   9  22
TORSDOF 3
ENDMDL
MODEL 9
REMARK VINA RESULT:      -6.8      2.028      2.248
REMARK  3 active torsions:
REMARK  status: ('A' for Active; 'I' for Inactive)
REMARK    1  A    between atoms: C_9  and  C_10 
REMARK    2  A    between atoms: C_16  and  C_17 
REMARK       I    between atoms: C_17  and  N_18 
REMARK    3  A    between atoms: N_18  and  C_19 
ROOT
HETATM    1  C   UNL     1     -39.866  59.160 -50.968  1.00  0.00     0.070 C 
HETATM    2  C   UNL     1     -41.347  59.117 -51.253  1.00  0.00     0.037 C 
HETATM    3  N   UNL     1     -42.103  60.120 -50.653  1.00  0.00    -0.192 N 
HETATM    4  C   UNL     1     -43.447  60.079 -50.586  1.00  0.00     0.725 A 
HETATM    5  N   UNL     1     -44.126  59.116 -51.281  1.00  0.00    -0.082 N 
HETATM    6  N   UNL     1     -45.444  59.127 -50.975  1.00  0.00    -0.149 NA
HETATM    7  C   UNL     1     -45.494  60.182 -50.151  1.00  0.00     0.275 A 
HETATM    8  N   UNL     1     -44.294  60.790 -49.886  1.00  0.00    -0.054 NA
HETATM    9  C   UNL     1     -43.485  58.119 -52.140  1.00  0.00     0.221 C 
HETATM   10  C   UNL     1     -41.969  58.152 -51.975  1.00  0.00     0.064 C 
HETATM   11  H   UNL     1     -41.616  60.782 -50.054  1.00  0.00     0.184 HD
ENDROOT
BRANCH  10  12
HETATM   12  C   UNL     1     -41.286  56.980 -52.580  1.00  0.00     0.256 C 
HETATM   13  N   UNL     1     -41.471  55.802 -51.894  1.00  0.00    -0.322 N 
HETATM   14  H   UNL     1     -41.949  55.861 -51.003  1.00  0.00     0.169 HD
HETATM   15  O   UNL     1     -40.614  57.147 -53.590  1.00  0.00    -0.267 OA
BRANCH  13  16
HETATM   16  C   UNL     1     -41.096  54.514 -52.331  1.00  0.00     0.052 A 
HETATM   17  C   UNL     1     -40.249  53.648 -51.643  1.00  0.00     0.145 A 
HETATM   18  N   UNL     1     -39.864  52.430 -52.105  1.00  0.00    -0.271 NA
HETATM   19  C   UNL     1     -40.339  52.055 -53.310  1.00  0.00     0.116 A 
HETATM   20  C   UNL     1     -41.189  52.839 -54.072  1.00  0.00     0.021 A 
HETATM   21  C   UNL     1     -41.574  54.082 -53.571  1.00  0.00     0.032 A 
ENDBRANCH  13  16
ENDBRANCH  10  12
BRANCH   9  22
HETATM   22  C   UNL     1     -43.930  58.362 -53.579  1.00  0.00     0.064 A 
HETATM   23  N   UNL     1     -43.578  59.535 -54.179  1.00  0.00    -0.263 NA
HETATM   24  C   UNL     1     -44.047  59.762 -55.427  1.00  0.00     0.117 A 
HETATM   25  C   UNL     1     -44.846  58.874 -56.125  1.00  0.00     0.019 A 
HETATM   26  C   UNL     1     -45.187  57.676 -55.512  1.00  0.00     0.003 A 
HETATM   27  C   UNL     1     -44.728  57.414 -54.225  1.00  0.00     0.030 A 
ENDBRANCH   9  22
TORSDOF 3
ENDMDL
MODEL 10
REMARK VINA RESULT:      -6.7      2.610      5.787
REMARK  3 active torsions:
REMARK  status: ('A' for Active; 'I' for Inactive)
REMARK    1  A    between atoms: C_9  and  C_10 
REMARK    2  A    between atoms: C_16  and  C_17 
REMARK       I    between atoms: C_17  and  N_18 
REMARK    3  A    between atoms: N_18  and  C_19 
ROOT
HETATM    1  C   UNL     1     -40.101  54.488 -55.170  1.00  0.00     0.070 C 
HETATM    2  C   UNL     1     -41.069  55.059 -54.163  1.00  0.00     0.037 C 
HETATM    3  N   UNL     1     -40.991  54.518 -52.884  1.00  0.00    -0.192 N 
HETATM    4  C   UNL     1     -41.938  54.719 -51.948  1.00  0.00     0.725 A 
HETATM    5  N   UNL     1     -42.933  55.629 -52.183  1.00  0.00    -0.082 N 
HETATM    6  N   UNL     1     -43.876  55.586 -51.213  1.00  0.00    -0.149 NA
HETATM    7  C   UNL     1     -43.333  54.684 -50.386  1.00  0.00     0.275 A 
HETATM    8  N   UNL     1     -42.150  54.128 -50.799  1.00  0.00    -0.054 NA
HETATM    9  C   UNL     1     -43.029  56.444 -53.395  1.00  0.00     0.221 C 
HETATM   10  C   UNL     1     -42.021  55.984 -54.442  1.00  0.00     0.064 C 
HETATM   11  H   UNL     1     -40.319  53.771 -52.728  1.00  0.00     0.184 HD
ENDROOT
BRANCH  10  12
HETATM   12  C   UNL     1     -42.266  56.561 -55.789  1.00  0.00     0.256 C 
HETATM   13  N   UNL     1     -43.125  55.825 -56.571  1.00  0.00    -0.322 N 
HETATM   14  H   UNL     1     -43.416  54.924 -56.210  1.00  0.00     0.169 HD
HETATM   15  O   UNL     1     -41.688  57.596 -56.100  1.00  0.00    -0.267 OA
BRANCH  13  16
HETATM   16  C   UNL     1     -43.674  56.222 -57.809  1.00  0.00     0.052 A 
HETATM   17  C   UNL     1     -44.461  57.354 -58.011  1.00  0.00     0.145 A 
HETATM   18  N   UNL     1     -45.019  57.692 -59.203  1.00  0.00    -0.271 NA
HETATM   19  C   UNL     1     -44.788  56.865 -60.242  1.00  0.00     0.116 A 
HETATM   20  C   UNL     1     -44.018  55.719 -60.148  1.00  0.00     0.021 A 
HETATM   21  C   UNL     1     -43.451  55.398 -58.914  1.00  0.00     0.032 A 
ENDBRANCH  13  16
ENDBRANCH  10  12
BRANCH   9  22
HETATM   22  C   UNL     1     -42.855  57.909 -53.007  1.00  0.00     0.064 A 
HETATM   23  N   UNL     1     -41.643  58.317 -52.532  1.00  0.00    -0.263 NA
HETATM   24  C   UNL     1     -41.534  59.601 -52.124  1.00  0.00     0.117 A 
HETATM   25  C   UNL     1     -42.568  60.518 -52.172  1.00  0.00     0.019 A 
HETATM   26  C   UNL     1     -43.794  60.098 -52.670  1.00  0.00     0.003 A 
HETATM   27  C   UNL     1     -43.944  58.781 -53.092  1.00  0.00     0.030 A 
ENDBRANCH   9  22
TORSDOF 3
ENDMDL
