MODEL 1
REMARK VINA RESULT:      -8.5      0.000      0.000
REMARK  2 active torsions:
REMARK  status: ('A' for Active; 'I' for Inactive)
REMARK    1  A    between atoms: C_11  and  C_12 
REMARK    2  A    between atoms: C_12  and  C_13 
ROOT
HETATM    1  C   UNL     1     -39.484  50.331 -51.372  1.00  0.00     0.051 C 
HETATM    2  C   UNL     1     -39.895  51.571 -52.129  1.00  0.00    -0.031 A 
HETATM    3  C   UNL     1     -39.955  51.561 -53.530  1.00  0.00     0.038 A 
HETATM    4  C   UNL     1     -39.633  50.327 -54.331  1.00  0.00     0.071 C 
HETATM    5  N   UNL     1     -40.307  52.622 -54.275  1.00  0.00    -0.245 NA
HETATM    6  C   UNL     1     -40.610  53.738 -53.591  1.00  0.00     0.111 A 
HETATM    7  C   UNL     1     -40.609  53.908 -52.212  1.00  0.00     0.034 A 
HETATM    8  C   UNL     1     -40.289  52.750 -51.433  1.00  0.00    -0.039 A 
HETATM    9  C   UNL     1     -40.346  52.755 -49.925  1.00  0.00     0.050 C 
HETATM   10  S   UNL     1     -41.080  55.125 -54.447  1.00  0.00    -0.063 SA
HETATM   11  C   UNL     1     -41.261  56.042 -53.014  1.00  0.00     0.085 A 
HETATM   12  C   UNL     1     -40.971  55.281 -51.892  1.00  0.00     0.061 A 
HETATM   13  N   UNL     1     -41.037  55.762 -50.627  1.00  0.00    -0.397 N 
HETATM   14  H   UNL     1     -41.323  56.707 -50.390  1.00  0.00     0.156 HD
HETATM   15  H   UNL     1     -40.644  55.268 -49.834  1.00  0.00     0.156 HD
ENDROOT
BRANCH  11  16
HETATM   16  C   UNL     1     -41.698  57.421 -53.170  1.00  0.00     0.201 C 
HETATM   17  O   UNL     1     -41.182  58.211 -53.962  1.00  0.00    -0.286 OA
BRANCH  16  18
HETATM   18  C   UNL     1     -42.822  57.955 -52.349  1.00  0.00     0.018 A 
HETATM   19  C   UNL     1     -42.734  59.189 -51.689  1.00  0.00     0.055 A 
HETATM   20  C   UNL     1     -43.831  59.603 -50.962  1.00  0.00     0.106 A 
HETATM   21  C   UNL     1     -44.984  58.854 -50.887  1.00  0.00     0.105 A 
HETATM   22  O   UNL     1     -43.922  60.759 -50.251  1.00  0.00    -0.323 OA
HETATM   23  O   UNL     1     -45.939  59.445 -50.122  1.00  0.00    -0.323 OA
HETATM   24  C   UNL     1     -45.109  57.647 -51.538  1.00  0.00     0.040 A 
HETATM   25  C   UNL     1     -45.266  60.661 -49.736  1.00  0.00     0.352 A 
HETATM   26  C   UNL     1     -44.015  57.197 -52.282  1.00  0.00     0.018 A 
ENDBRANCH  16  18
ENDBRANCH  11  16
TORSDOF 2
ENDMDL
MODEL 2
REMARK VINA RESULT:      -8.5      1.738      2.317
REMARK  2 active torsions:
REMARK  status: ('A' for Active; 'I' for Inactive)
REMARK    1  A    between atoms: C_11  and  C_12 
REMARK    2  A    between atoms: C_12  and  C_13 
ROOT
HETATM    1  C   UNL     1     -39.876  50.626 -54.138  1.00  0.00     0.051 C 
HETATM    2  C   UNL     1     -40.079  51.764 -53.168  1.00  0.00    -0.031 A 
HETATM    3  C   UNL     1     -39.944  51.555 -51.788  1.00  0.00     0.038 A 
HETATM    4  C   UNL     1     -39.579  50.209 -51.220  1.00  0.00     0.071 C 
HETATM    5  N   UNL     1     -40.112  52.514 -50.863  1.00  0.00    -0.245 NA
HETATM    6  C   UNL     1     -40.430  53.730 -51.336  1.00  0.00     0.111 A 
HETATM    7  C   UNL     1     -40.590  54.102 -52.666  1.00  0.00     0.034 A 
HETATM    8  C   UNL     1     -40.349  53.080 -53.640  1.00  0.00    -0.039 A 
HETATM    9  C   UNL     1     -40.385  53.361 -55.123  1.00  0.00     0.050 C 
HETATM   10  S   UNL     1     -40.648  55.007 -50.242  1.00  0.00    -0.063 SA
HETATM   11  C   UNL     1     -41.016  56.117 -51.492  1.00  0.00     0.085 A 
HETATM   12  C   UNL     1     -40.961  55.507 -52.736  1.00  0.00     0.061 A 
HETATM   13  N   UNL     1     -41.209  56.159 -53.897  1.00  0.00    -0.397 N 
HETATM   14  H   UNL     1     -41.433  57.148 -53.961  1.00  0.00     0.156 HD
HETATM   15  H   UNL     1     -41.355  55.674 -54.775  1.00  0.00     0.156 HD
ENDROOT
BRANCH  11  16
HETATM   16  C   UNL     1     -41.299  57.486 -51.089  1.00  0.00     0.201 C 
HETATM   17  O   UNL     1     -40.430  58.281 -50.728  1.00  0.00    -0.286 OA
BRANCH  16  18
HETATM   18  C   UNL     1     -42.698  58.002 -51.094  1.00  0.00     0.018 A 
HETATM   19  C   UNL     1     -42.979  59.375 -51.132  1.00  0.00     0.055 A 
HETATM   20  C   UNL     1     -44.306  59.753 -51.144  1.00  0.00     0.106 A 
HETATM   21  C   UNL     1     -45.329  58.832 -51.136  1.00  0.00     0.105 A 
HETATM   22  O   UNL     1     -44.766  61.033 -51.167  1.00  0.00    -0.323 OA
HETATM   23  O   UNL     1     -46.555  59.418 -51.152  1.00  0.00    -0.323 OA
HETATM   24  C   UNL     1     -45.087  57.477 -51.118  1.00  0.00     0.040 A 
HETATM   25  C   UNL     1     -46.192  60.813 -51.190  1.00  0.00     0.352 A 
HETATM   26  C   UNL     1     -43.753  57.060 -51.102  1.00  0.00     0.018 A 
ENDBRANCH  16  18
ENDBRANCH  11  16
TORSDOF 2
ENDMDL
MODEL 3
REMARK VINA RESULT:      -8.3      2.610      3.726
REMARK  2 active torsions:
REMARK  status: ('A' for Active; 'I' for Inactive)
REMARK    1  A    between atoms: C_11  and  C_12 
REMARK    2  A    between atoms: C_12  and  C_13 
ROOT
HETATM    1  C   UNL     1     -39.484  50.222 -51.313  1.00  0.00     0.051 C 
HETATM    2  C   UNL     1     -39.859  51.393 -52.187  1.00  0.00    -0.031 A 
HETATM    3  C   UNL     1     -39.851  51.269 -53.584  1.00  0.00     0.038 A 
HETATM    4  C   UNL     1     -39.489  49.976 -54.265  1.00  0.00     0.071 C 
HETATM    5  N   UNL     1     -40.168  52.264 -54.429  1.00  0.00    -0.245 NA
HETATM    6  C   UNL     1     -40.505  53.431 -53.854  1.00  0.00     0.111 A 
HETATM    7  C   UNL     1     -40.572  53.712 -52.495  1.00  0.00     0.034 A 
HETATM    8  C   UNL     1     -40.288  52.623 -51.610  1.00  0.00    -0.039 A 
HETATM    9  C   UNL     1     -40.419  52.750 -50.112  1.00  0.00     0.050 C 
HETATM   10  S   UNL     1     -40.935  54.740 -54.842  1.00  0.00    -0.063 SA
HETATM   11  C   UNL     1     -41.187  55.770 -53.499  1.00  0.00     0.085 A 
HETATM   12  C   UNL     1     -40.950  55.104 -52.306  1.00  0.00     0.061 A 
HETATM   13  N   UNL     1     -41.079  55.687 -51.089  1.00  0.00    -0.397 N 
HETATM   14  H   UNL     1     -41.377  56.647 -50.943  1.00  0.00     0.156 HD
HETATM   15  H   UNL     1     -40.724  55.261 -50.240  1.00  0.00     0.156 HD
ENDROOT
BRANCH  11  16
HETATM   16  C   UNL     1     -41.617  57.129 -53.787  1.00  0.00     0.201 C 
HETATM   17  O   UNL     1     -41.115  58.126 -53.267  1.00  0.00    -0.286 OA
BRANCH  16  18
HETATM   18  C   UNL     1     -42.723  57.382 -54.755  1.00  0.00     0.018 A 
HETATM   19  C   UNL     1     -42.484  57.525 -56.130  1.00  0.00     0.055 A 
HETATM   20  C   UNL     1     -43.575  57.746 -56.946  1.00  0.00     0.106 A 
HETATM   21  C   UNL     1     -44.857  57.812 -56.451  1.00  0.00     0.105 A 
HETATM   22  O   UNL     1     -43.533  57.921 -58.295  1.00  0.00    -0.323 OA
HETATM   23  O   UNL     1     -45.779  58.035 -57.425  1.00  0.00    -0.323 OA
HETATM   24  C   UNL     1     -45.128  57.657 -55.110  1.00  0.00     0.040 A 
HETATM   25  C   UNL     1     -44.935  58.085 -58.594  1.00  0.00     0.352 A 
HETATM   26  C   UNL     1     -44.045  57.435 -54.254  1.00  0.00     0.018 A 
ENDBRANCH  16  18
ENDBRANCH  11  16
TORSDOF 2
ENDMDL
MODEL 4
REMARK VINA RESULT:      -8.2      4.499      7.946
REMARK  2 active torsions:
REMARK  status: ('A' for Active; 'I' for Inactive)
REMARK    1  A    between atoms: C_11  and  C_12 
REMARK    2  A    between atoms: C_12  and  C_13 
ROOT
HETATM    1  C   UNL     1     -42.023  59.155 -60.483  1.00  0.00     0.051 C 
HETATM    2  C   UNL     1     -42.087  58.869 -59.002  1.00  0.00    -0.031 A 
HETATM    3  C   UNL     1     -41.734  59.856 -58.072  1.00  0.00     0.038 A 
HETATM    4  C   UNL     1     -41.298  61.232 -58.499  1.00  0.00     0.071 C 
HETATM    5  N   UNL     1     -41.760  59.679 -56.740  1.00  0.00    -0.245 NA
HETATM    6  C   UNL     1     -42.154  58.464 -56.323  1.00  0.00     0.111 A 
HETATM    7  C   UNL     1     -42.543  57.387 -57.111  1.00  0.00     0.034 A 
HETATM    8  C   UNL     1     -42.565  57.615 -58.525  1.00  0.00    -0.039 A 
HETATM    9  C   UNL     1     -43.062  56.574 -59.498  1.00  0.00     0.050 C 
HETATM   10  S   UNL     1     -42.232  58.151 -54.658  1.00  0.00    -0.063 SA
HETATM   11  C   UNL     1     -42.747  56.538 -54.906  1.00  0.00     0.085 A 
HETATM   12  C   UNL     1     -42.864  56.253 -56.258  1.00  0.00     0.061 A 
HETATM   13  N   UNL     1     -43.256  55.046 -56.733  1.00  0.00    -0.397 N 
HETATM   14  H   UNL     1     -43.518  54.258 -56.148  1.00  0.00     0.156 HD
HETATM   15  H   UNL     1     -43.157  54.785 -57.708  1.00  0.00     0.156 HD
ENDROOT
BRANCH  11  16
HETATM   16  C   UNL     1     -42.999  55.741 -53.716  1.00  0.00     0.201 C 
HETATM   17  O   UNL     1     -43.984  55.893 -52.993  1.00  0.00    -0.286 OA
BRANCH  16  18
HETATM   18  C   UNL     1     -42.042  54.673 -53.306  1.00  0.00     0.018 A 
HETATM   19  C   UNL     1     -41.734  53.595 -54.148  1.00  0.00     0.055 A 
HETATM   20  C   UNL     1     -40.828  52.662 -53.683  1.00  0.00     0.106 A 
HETATM   21  C   UNL     1     -40.229  52.777 -52.449  1.00  0.00     0.105 A 
HETATM   22  O   UNL     1     -40.421  51.550 -54.352  1.00  0.00    -0.323 OA
HETATM   23  O   UNL     1     -39.372  51.754 -52.191  1.00  0.00    -0.323 OA
HETATM   24  C   UNL     1     -40.496  53.833 -51.607  1.00  0.00     0.040 A 
HETATM   25  C   UNL     1     -39.485  50.989 -53.408  1.00  0.00     0.352 A 
HETATM   26  C   UNL     1     -41.411  54.794 -52.046  1.00  0.00     0.018 A 
ENDBRANCH  16  18
ENDBRANCH  11  16
TORSDOF 2
ENDMDL
MODEL 5
REMARK VINA RESULT:      -7.9      3.616      5.636
REMARK  2 active torsions:
REMARK  status: ('A' for Active; 'I' for Inactive)
REMARK    1  A    between atoms: C_11  and  C_12 
REMARK    2  A    between atoms: C_12  and  C_13 
ROOT
HETATM    1  C   UNL     1     -39.563  51.828 -51.415  1.00  0.00     0.051 C 
HETATM    2  C   UNL     1     -40.350  53.071 -51.751  1.00  0.00    -0.031 A 
HETATM    3  C   UNL     1     -40.441  54.126 -50.831  1.00  0.00     0.038 A 
HETATM    4  C   UNL     1     -39.756  54.074 -49.492  1.00  0.00     0.071 C 
HETATM    5  N   UNL     1     -41.125  55.261 -51.054  1.00  0.00    -0.245 NA
HETATM    6  C   UNL     1     -41.742  55.345 -52.245  1.00  0.00     0.111 A 
HETATM    7  C   UNL     1     -41.740  54.399 -53.263  1.00  0.00     0.034 A 
HETATM    8  C   UNL     1     -40.959  53.221 -53.030  1.00  0.00    -0.039 A 
HETATM    9  C   UNL     1     -40.780  52.155 -54.083  1.00  0.00     0.050 C 
HETATM   10  S   UNL     1     -42.617  56.747 -52.621  1.00  0.00    -0.063 SA
HETATM   11  C   UNL     1     -43.081  56.141 -54.152  1.00  0.00     0.085 A 
HETATM   12  C   UNL     1     -42.557  54.875 -54.369  1.00  0.00     0.061 A 
HETATM   13  N   UNL     1     -42.768  54.166 -55.503  1.00  0.00    -0.397 N 
HETATM   14  H   UNL     1     -43.306  54.503 -56.297  1.00  0.00     0.156 HD
HETATM   15  H   UNL     1     -42.549  53.179 -55.579  1.00  0.00     0.156 HD
ENDROOT
BRANCH  11  16
HETATM   16  C   UNL     1     -43.902  57.010 -54.979  1.00  0.00     0.201 C 
HETATM   17  O   UNL     1     -45.083  57.262 -54.737  1.00  0.00    -0.286 OA
BRANCH  16  18
HETATM   18  C   UNL     1     -43.332  57.653 -56.198  1.00  0.00     0.018 A 
HETATM   19  C   UNL     1     -43.427  57.054 -57.463  1.00  0.00     0.055 A 
HETATM   20  C   UNL     1     -42.878  57.731 -58.532  1.00  0.00     0.106 A 
HETATM   21  C   UNL     1     -42.269  58.957 -58.386  1.00  0.00     0.105 A 
HETATM   22  O   UNL     1     -42.864  57.300 -59.822  1.00  0.00    -0.323 OA
HETATM   23  O   UNL     1     -41.799  59.447 -59.563  1.00  0.00    -0.323 OA
HETATM   24  C   UNL     1     -42.175  59.581 -57.162  1.00  0.00     0.040 A 
HETATM   25  C   UNL     1     -42.195  58.400 -60.473  1.00  0.00     0.352 A 
HETATM   26  C   UNL     1     -42.719  58.920 -56.057  1.00  0.00     0.018 A 
ENDBRANCH  16  18
ENDBRANCH  11  16
TORSDOF 2
ENDMDL
MODEL 6
REMARK VINA RESULT:      -7.9      1.673      2.964
REMARK  2 active torsions:
REMARK  status: ('A' for Active; 'I' for Inactive)
REMARK    1  A    between atoms: C_11  and  C_12 
REMARK    2  A    between atoms: C_12  and  C_13 
ROOT
HETATM    1  C   UNL     1     -39.603  51.707 -53.119  1.00  0.00     0.051 C 
HETATM    2  C   UNL     1     -40.378  52.933 -52.700  1.00  0.00    -0.031 A 
HETATM    3  C   UNL     1     -40.758  53.111 -51.362  1.00  0.00     0.038 A 
HETATM    4  C   UNL     1     -40.403  52.110 -50.295  1.00  0.00     0.071 C 
HETATM    5  N   UNL     1     -41.451  54.170 -50.912  1.00  0.00    -0.245 NA
HETATM    6  C   UNL     1     -41.777  55.088 -51.837  1.00  0.00     0.111 A 
HETATM    7  C   UNL     1     -41.469  55.065 -53.192  1.00  0.00     0.034 A 
HETATM    8  C   UNL     1     -40.680  53.958 -53.642  1.00  0.00    -0.039 A 
HETATM    9  C   UNL     1     -40.184  53.851 -55.063  1.00  0.00     0.050 C 
HETATM   10  S   UNL     1     -42.639  56.467 -51.359  1.00  0.00    -0.063 SA
HETATM   11  C   UNL     1     -42.687  57.086 -52.954  1.00  0.00     0.085 A 
HETATM   12  C   UNL     1     -42.037  56.239 -53.838  1.00  0.00     0.061 A 
HETATM   13  N   UNL     1     -41.926  56.490 -55.165  1.00  0.00    -0.397 N 
HETATM   14  H   UNL     1     -42.286  57.323 -55.621  1.00  0.00     0.156 HD
HETATM   15  H   UNL     1     -41.623  55.788 -55.831  1.00  0.00     0.156 HD
ENDROOT
BRANCH  11  16
HETATM   16  C   UNL     1     -43.353  58.365 -53.140  1.00  0.00     0.201 C 
HETATM   17  O   UNL     1     -43.748  58.772 -54.233  1.00  0.00    -0.286 OA
BRANCH  16  18
HETATM   18  C   UNL     1     -43.592  59.269 -51.979  1.00  0.00     0.018 A 
HETATM   19  C   UNL     1     -44.834  59.328 -51.331  1.00  0.00     0.055 A 
HETATM   20  C   UNL     1     -44.954  60.188 -50.259  1.00  0.00     0.106 A 
HETATM   21  C   UNL     1     -43.900  60.956 -49.816  1.00  0.00     0.105 A 
HETATM   22  O   UNL     1     -46.080  60.386 -49.522  1.00  0.00    -0.323 OA
HETATM   23  O   UNL     1     -44.233  61.729 -48.749  1.00  0.00    -0.323 OA
HETATM   24  C   UNL     1     -42.662  60.907 -50.418  1.00  0.00     0.040 A 
HETATM   25  C   UNL     1     -45.611  61.350 -48.556  1.00  0.00     0.352 A 
HETATM   26  C   UNL     1     -42.508  60.048 -51.509  1.00  0.00     0.018 A 
ENDBRANCH  16  18
ENDBRANCH  11  16
TORSDOF 2
ENDMDL
MODEL 7
REMARK VINA RESULT:      -7.9     16.173     17.973
REMARK  2 active torsions:
REMARK  status: ('A' for Active; 'I' for Inactive)
REMARK    1  A    between atoms: C_11  and  C_12 
REMARK    2  A    between atoms: C_12  and  C_13 
ROOT
HETATM    1  C   UNL     1     -32.137  40.071 -50.800  1.00  0.00     0.051 C 
HETATM    2  C   UNL     1     -33.047  39.902 -51.993  1.00  0.00    -0.031 A 
HETATM    3  C   UNL     1     -32.774  38.925 -52.961  1.00  0.00     0.038 A 
HETATM    4  C   UNL     1     -31.589  38.004 -52.850  1.00  0.00     0.071 C 
HETATM    5  N   UNL     1     -33.532  38.716 -54.051  1.00  0.00    -0.245 NA
HETATM    6  C   UNL     1     -34.604  39.516 -54.178  1.00  0.00     0.111 A 
HETATM    7  C   UNL     1     -35.015  40.518 -53.307  1.00  0.00     0.034 A 
HETATM    8  C   UNL     1     -34.228  40.687 -52.122  1.00  0.00    -0.039 A 
HETATM    9  C   UNL     1     -34.610  41.665 -51.038  1.00  0.00     0.050 C 
HETATM   10  S   UNL     1     -35.627  39.315 -55.515  1.00  0.00    -0.063 SA
HETATM   11  C   UNL     1     -36.651  40.594 -55.022  1.00  0.00     0.085 A 
HETATM   12  C   UNL     1     -36.209  41.160 -53.835  1.00  0.00     0.061 A 
HETATM   13  N   UNL     1     -36.838  42.191 -53.222  1.00  0.00    -0.397 N 
HETATM   14  H   UNL     1     -37.693  42.623 -53.562  1.00  0.00     0.156 HD
HETATM   15  H   UNL     1     -36.413  42.720 -52.469  1.00  0.00     0.156 HD
ENDROOT
BRANCH  11  16
HETATM   16  C   UNL     1     -37.799  40.877 -55.868  1.00  0.00     0.201 C 
HETATM   17  O   UNL     1     -38.866  41.320 -55.440  1.00  0.00    -0.286 OA
BRANCH  16  18
HETATM   18  C   UNL     1     -37.734  40.630 -57.337  1.00  0.00     0.018 A 
HETATM   19  C   UNL     1     -38.236  39.454 -57.912  1.00  0.00     0.055 A 
HETATM   20  C   UNL     1     -38.139  39.323 -59.282  1.00  0.00     0.106 A 
HETATM   21  C   UNL     1     -37.588  40.305 -60.074  1.00  0.00     0.105 A 
HETATM   22  O   UNL     1     -38.557  38.251 -60.008  1.00  0.00    -0.323 OA
HETATM   23  O   UNL     1     -37.593  39.974 -61.392  1.00  0.00    -0.323 OA
HETATM   24  C   UNL     1     -37.104  41.480 -59.543  1.00  0.00     0.040 A 
HETATM   25  C   UNL     1     -38.225  38.678 -61.346  1.00  0.00     0.352 A 
HETATM   26  C   UNL     1     -37.184  41.643 -58.157  1.00  0.00     0.018 A 
ENDBRANCH  16  18
ENDBRANCH  11  16
TORSDOF 2
ENDMDL
MODEL 8
REMARK VINA RESULT:      -7.8      3.602      5.091
REMARK  2 active torsions:
REMARK  status: ('A' for Active; 'I' for Inactive)
REMARK    1  A    between atoms: C_11  and  C_12 
REMARK    2  A    between atoms: C_12  and  C_13 
ROOT
HETATM    1  C   UNL     1     -39.962  51.922 -51.427  1.00  0.00     0.051 C 
HETATM    2  C   UNL     1     -40.410  53.327 -51.746  1.00  0.00    -0.031 A 
HETATM    3  C   UNL     1     -40.631  54.255 -50.718  1.00  0.00     0.038 A 
HETATM    4  C   UNL     1     -40.420  53.901 -49.270  1.00  0.00     0.071 C 
HETATM    5  N   UNL     1     -41.034  55.520 -50.920  1.00  0.00    -0.245 NA
HETATM    6  C   UNL     1     -41.224  55.873 -52.203  1.00  0.00     0.111 A 
HETATM    7  C   UNL     1     -41.040  55.081 -53.330  1.00  0.00     0.034 A 
HETATM    8  C   UNL     1     -40.555  53.754 -53.098  1.00  0.00    -0.039 A 
HETATM    9  C   UNL     1     -40.212  52.815 -54.229  1.00  0.00     0.050 C 
HETATM   10  S   UNL     1     -41.718  57.456 -52.556  1.00  0.00    -0.063 SA
HETATM   11  C   UNL     1     -41.758  57.150 -54.240  1.00  0.00     0.085 A 
HETATM   12  C   UNL     1     -41.386  55.844 -54.520  1.00  0.00     0.061 A 
HETATM   13  N   UNL     1     -41.330  55.338 -55.776  1.00  0.00    -0.397 N 
HETATM   14  H   UNL     1     -41.534  55.871 -56.616  1.00  0.00     0.156 HD
HETATM   15  H   UNL     1     -41.246  54.345 -55.962  1.00  0.00     0.156 HD
ENDROOT
BRANCH  11  16
HETATM   16  C   UNL     1     -42.138  58.261 -55.098  1.00  0.00     0.201 C 
HETATM   17  O   UNL     1     -41.520  59.325 -55.146  1.00  0.00    -0.286 OA
BRANCH  16  18
HETATM   18  C   UNL     1     -43.334  58.157 -55.983  1.00  0.00     0.018 A 
HETATM   19  C   UNL     1     -43.218  57.865 -57.350  1.00  0.00     0.055 A 
HETATM   20  C   UNL     1     -44.384  57.779 -58.084  1.00  0.00     0.106 A 
HETATM   21  C   UNL     1     -45.623  57.955 -57.511  1.00  0.00     0.105 A 
HETATM   22  O   UNL     1     -44.465  57.519 -59.417  1.00  0.00    -0.323 OA
HETATM   23  O   UNL     1     -46.634  57.827 -58.411  1.00  0.00    -0.323 OA
HETATM   24  C   UNL     1     -45.772  58.224 -56.169  1.00  0.00     0.040 A 
HETATM   25  C   UNL     1     -45.894  57.533 -59.614  1.00  0.00     0.352 A 
HETATM   26  C   UNL     1     -44.611  58.320 -55.397  1.00  0.00     0.018 A 
ENDBRANCH  16  18
ENDBRANCH  11  16
TORSDOF 2
ENDMDL
MODEL 9
REMARK VINA RESULT:      -7.7      2.239      3.278
REMARK  2 active torsions:
REMARK  status: ('A' for Active; 'I' for Inactive)
REMARK    1  A    between atoms: C_11  and  C_12 
REMARK    2  A    between atoms: C_12  and  C_13 
ROOT
HETATM    1  C   UNL     1     -39.349  51.397 -53.992  1.00  0.00     0.051 C 
HETATM    2  C   UNL     1     -40.169  52.277 -53.080  1.00  0.00    -0.031 A 
HETATM    3  C   UNL     1     -40.235  52.011 -51.705  1.00  0.00     0.038 A 
HETATM    4  C   UNL     1     -39.488  50.862 -51.081  1.00  0.00     0.071 C 
HETATM    5  N   UNL     1     -40.944  52.744 -50.830  1.00  0.00    -0.245 NA
HETATM    6  C   UNL     1     -41.616  53.784 -51.352  1.00  0.00     0.111 A 
HETATM    7  C   UNL     1     -41.647  54.185 -52.683  1.00  0.00     0.034 A 
HETATM    8  C   UNL     1     -40.838  53.427 -53.590  1.00  0.00    -0.039 A 
HETATM    9  C   UNL     1     -40.692  53.806 -55.043  1.00  0.00     0.050 C 
HETATM   10  S   UNL     1     -42.528  54.774 -50.322  1.00  0.00    -0.063 SA
HETATM   11  C   UNL     1     -43.052  55.767 -51.613  1.00  0.00     0.085 A 
HETATM   12  C   UNL     1     -42.520  55.341 -52.821  1.00  0.00     0.061 A 
HETATM   13  N   UNL     1     -42.772  55.951 -54.003  1.00  0.00    -0.397 N 
HETATM   14  H   UNL     1     -43.351  56.780 -54.107  1.00  0.00     0.156 HD
HETATM   15  H   UNL     1     -42.542  55.529 -54.896  1.00  0.00     0.156 HD
ENDROOT
BRANCH  11  16
HETATM   16  C   UNL     1     -43.923  56.881 -51.271  1.00  0.00     0.201 C 
HETATM   17  O   UNL     1     -44.918  56.769 -50.554  1.00  0.00    -0.286 OA
BRANCH  16  18
HETATM   18  C   UNL     1     -43.642  58.248 -51.794  1.00  0.00     0.018 A 
HETATM   19  C   UNL     1     -44.562  58.936 -52.599  1.00  0.00     0.055 A 
HETATM   20  C   UNL     1     -44.215  60.201 -53.025  1.00  0.00     0.106 A 
HETATM   21  C   UNL     1     -43.022  60.790 -52.672  1.00  0.00     0.105 A 
HETATM   22  O   UNL     1     -44.972  61.007 -53.818  1.00  0.00    -0.323 OA
HETATM   23  O   UNL     1     -42.882  62.036 -53.198  1.00  0.00    -0.323 OA
HETATM   24  C   UNL     1     -42.105  60.150 -51.868  1.00  0.00     0.040 A 
HETATM   25  C   UNL     1     -44.130  62.175 -53.908  1.00  0.00     0.352 A 
HETATM   26  C   UNL     1     -42.424  58.865 -51.421  1.00  0.00     0.018 A 
ENDBRANCH  16  18
ENDBRANCH  11  16
TORSDOF 2
ENDMDL
MODEL 10
REMARK VINA RESULT:      -7.7      4.014      7.759
REMARK  2 active torsions:
REMARK  status: ('A' for Active; 'I' for Inactive)
REMARK    1  A    between atoms: C_11  and  C_12 
REMARK    2  A    between atoms: C_12  and  C_13 
ROOT
HETATM    1  C   UNL     1     -44.113  60.068 -58.734  1.00  0.00     0.051 C 
HETATM    2  C   UNL     1     -43.465  59.574 -57.464  1.00  0.00    -0.031 A 
HETATM    3  C   UNL     1     -42.261  60.136 -57.015  1.00  0.00     0.038 A 
HETATM    4  C   UNL     1     -41.577  61.251 -57.760  1.00  0.00     0.071 C 
HETATM    5  N   UNL     1     -41.621  59.749 -55.899  1.00  0.00    -0.245 NA
HETATM    6  C   UNL     1     -42.209  58.761 -55.203  1.00  0.00     0.111 A 
HETATM    7  C   UNL     1     -43.400  58.111 -55.505  1.00  0.00     0.034 A 
HETATM    8  C   UNL     1     -44.096  58.577 -56.667  1.00  0.00    -0.039 A 
HETATM    9  C   UNL     1     -45.449  58.037 -57.062  1.00  0.00     0.050 C 
HETATM   10  S   UNL     1     -41.481  58.218 -53.772  1.00  0.00    -0.063 SA
HETATM   11  C   UNL     1     -42.701  57.047 -53.505  1.00  0.00     0.085 A 
HETATM   12  C   UNL     1     -43.659  57.085 -54.507  1.00  0.00     0.061 A 
HETATM   13  N   UNL     1     -44.737  56.265 -54.539  1.00  0.00    -0.397 N 
HETATM   14  H   UNL     1     -44.948  55.570 -53.828  1.00  0.00     0.156 HD
HETATM   15  H   UNL     1     -45.323  56.165 -55.359  1.00  0.00     0.156 HD
ENDROOT
BRANCH  11  16
HETATM   16  C   UNL     1     -42.575  56.231 -52.308  1.00  0.00     0.201 C 
HETATM   17  O   UNL     1     -43.103  56.516 -51.233  1.00  0.00    -0.286 OA
BRANCH  16  18
HETATM   18  C   UNL     1     -41.771  54.975 -52.330  1.00  0.00     0.018 A 
HETATM   19  C   UNL     1     -41.687  54.172 -53.477  1.00  0.00     0.055 A 
HETATM   20  C   UNL     1     -40.910  53.034 -53.403  1.00  0.00     0.106 A 
HETATM   21  C   UNL     1     -40.223  52.691 -52.260  1.00  0.00     0.105 A 
HETATM   22  O   UNL     1     -40.723  52.135 -54.406  1.00  0.00    -0.323 OA
HETATM   23  O   UNL     1     -39.521  51.537 -52.404  1.00  0.00    -0.323 OA
HETATM   24  C   UNL     1     -40.269  53.467 -51.124  1.00  0.00     0.040 A 
HETATM   25  C   UNL     1     -39.827  51.198 -53.772  1.00  0.00     0.352 A 
HETATM   26  C   UNL     1     -41.050  54.626 -51.165  1.00  0.00     0.018 A 
ENDBRANCH  16  18
ENDBRANCH  11  16
TORSDOF 2
ENDMDL
