MODEL 1
REMARK VINA RESULT:      -8.2      0.000      0.000
REMARK  10 active torsions:
REMARK  status: ('A' for Active; 'I' for Inactive)
REMARK    1  A    between atoms: C_6  and  C_7 
REMARK    2  A    between atoms: C_7  and  C_8 
REMARK       I    between atoms: C_8  and  N_9 
REMARK    3  A    between atoms: N_9  and  C_10 
REMARK    4  A    between atoms: C_10  and  C_11 
REMARK    5  A    between atoms: C_11  and  N_12 
REMARK    6  A    between atoms: C_17  and  C_18 
REMARK    7  A    between atoms: C_27  and  C_28 
REMARK    8  A    between atoms: C_28  and  O_29 
REMARK    9  A    between atoms: O_29  and  C_30 
REMARK   10  A    between atoms: C_30  and  C_31 
ROOT
HETATM    1  C   UNL     1     -42.890  60.353 -54.821  1.00  0.00     0.071 C 
HETATM    2  C   UNL     1     -42.017  59.224 -54.323  1.00  0.00     0.048 C 
HETATM    3  N   UNL     1     -40.933  59.644 -53.542  1.00  0.00    -0.229 NA
HETATM    4  C   UNL     1     -40.541  58.823 -52.617  1.00  0.00     0.170 C 
HETATM    5  N   UNL     1     -41.073  57.356 -52.524  1.00  0.00    -0.318 N 
HETATM    6  C   UNL     1     -41.336  57.091 -51.287  1.00  0.00     0.011 C 
HETATM    7  C   UNL     1     -41.338  56.929 -53.907  1.00  0.00     0.169 C 
HETATM    8  S   UNL     1     -39.651  59.243 -51.205  1.00  0.00    -0.086 SA
HETATM    9  C   UNL     1     -40.554  57.935 -50.285  1.00  0.00     0.135 C 
HETATM   10  C   UNL     1     -42.333  57.908 -54.437  1.00  0.00     0.069 C 
ENDROOT
BRANCH   6  11
HETATM   11  C   UNL     1     -42.399  56.105 -50.887  1.00  0.00     0.156 C 
BRANCH  11  12
HETATM   12  C   UNL     1     -41.805  54.857 -50.253  1.00  0.00     0.223 C 
HETATM   13  N   UNL     1     -40.726  54.290 -50.876  1.00  0.00    -0.359 N 
HETATM   14  H   UNL     1     -40.366  54.716 -51.733  1.00  0.00     0.162 HD
HETATM   15  O   UNL     1     -42.306  54.347 -49.252  1.00  0.00    -0.273 OA
BRANCH  13  16
HETATM   16  C   UNL     1     -40.220  52.948 -50.550  1.00  0.00     0.150 C 
BRANCH  16  17
HETATM   17  C   UNL     1     -39.529  52.165 -51.697  1.00  0.00     0.253 C 
BRANCH  17  18
HETATM   18  N   UNL     1     -39.399  50.680 -51.415  1.00  0.00    -0.077 N 
HETATM   19  H   UNL     1     -38.405  50.510 -51.164  1.00  0.00     0.279 HD
HETATM   20  C   UNL     1     -40.207  50.201 -50.242  1.00  0.00     0.269 C 
HETATM   21  C   UNL     1     -39.678  49.843 -52.634  1.00  0.00     0.269 C 
ENDBRANCH  17  18
ENDBRANCH  16  17
ENDBRANCH  13  16
ENDBRANCH  11  12
ENDBRANCH   6  11
BRANCH   7  22
HETATM   22  C   UNL     1     -41.325  55.475 -54.338  1.00  0.00     0.008 A 
HETATM   23  C   UNL     1     -42.297  54.544 -53.947  1.00  0.00     0.125 A 
HETATM   24  F   UNL     1     -43.378  54.947 -53.270  1.00  0.00    -0.205 F 
HETATM   25  C   UNL     1     -42.150  53.175 -54.168  1.00  0.00     0.043 A 
HETATM   26  C   UNL     1     -40.986  52.690 -54.751  1.00  0.00     0.003 A 
HETATM   27  C   UNL     1     -39.981  53.578 -55.123  1.00  0.00     0.001 A 
HETATM   28  C   UNL     1     -40.150  54.953 -54.925  1.00  0.00     0.013 A 
ENDBRANCH   7  22
BRANCH  10  29
HETATM   29  C   UNL     1     -43.725  57.454 -54.580  1.00  0.00     0.294 C 
HETATM   30  O   UNL     1     -44.515  57.621 -53.659  1.00  0.00    -0.259 OA
BRANCH  29  31
HETATM   31  O   UNL     1     -43.963  56.948 -55.794  1.00  0.00    -0.313 OA
BRANCH  31  32
HETATM   32  C   UNL     1     -44.464  57.862 -56.781  1.00  0.00     0.217 C 
BRANCH  32  33
HETATM   33  C   UNL     1     -43.551  57.736 -57.964  1.00  0.00    -0.034 A 
HETATM   34  C   UNL     1     -43.053  58.885 -58.594  1.00  0.00     0.009 A 
HETATM   35  C   UNL     1     -42.265  58.773 -59.739  1.00  0.00     0.001 A 
HETATM   36  C   UNL     1     -41.973  57.517 -60.265  1.00  0.00     0.000 A 
HETATM   37  C   UNL     1     -42.463  56.369 -59.646  1.00  0.00     0.001 A 
HETATM   38  C   UNL     1     -43.252  56.476 -58.501  1.00  0.00     0.009 A 
ENDBRANCH  32  33
ENDBRANCH  31  32
ENDBRANCH  29  31
ENDBRANCH  10  29
TORSDOF 10
ENDMDL
MODEL 2
REMARK VINA RESULT:      -7.9      2.055      4.404
REMARK  10 active torsions:
REMARK  status: ('A' for Active; 'I' for Inactive)
REMARK    1  A    between atoms: C_6  and  C_7 
REMARK    2  A    between atoms: C_7  and  C_8 
REMARK       I    between atoms: C_8  and  N_9 
REMARK    3  A    between atoms: N_9  and  C_10 
REMARK    4  A    between atoms: C_10  and  C_11 
REMARK    5  A    between atoms: C_11  and  N_12 
REMARK    6  A    between atoms: C_17  and  C_18 
REMARK    7  A    between atoms: C_27  and  C_28 
REMARK    8  A    between atoms: C_28  and  O_29 
REMARK    9  A    between atoms: O_29  and  C_30 
REMARK   10  A    between atoms: C_30  and  C_31 
ROOT
HETATM    1  C   UNL     1     -42.446  60.389 -55.216  1.00  0.00     0.071 C 
HETATM    2  C   UNL     1     -41.734  59.233 -54.553  1.00  0.00     0.048 C 
HETATM    3  N   UNL     1     -40.725  59.621 -53.661  1.00  0.00    -0.229 NA
HETATM    4  C   UNL     1     -40.517  58.832 -52.653  1.00  0.00     0.170 C 
HETATM    5  N   UNL     1     -41.171  57.415 -52.553  1.00  0.00    -0.318 N 
HETATM    6  C   UNL     1     -41.606  57.246 -51.349  1.00  0.00     0.011 C 
HETATM    7  C   UNL     1     -41.294  56.925 -53.935  1.00  0.00     0.169 C 
HETATM    8  S   UNL     1     -39.780  59.272 -51.161  1.00  0.00    -0.086 SA
HETATM    9  C   UNL     1     -40.891  58.092 -50.299  1.00  0.00     0.135 C 
HETATM   10  C   UNL     1     -42.136  57.939 -54.638  1.00  0.00     0.069 C 
ENDROOT
BRANCH   6  11
HETATM   11  C   UNL     1     -42.785  56.365 -51.038  1.00  0.00     0.156 C 
BRANCH  11  12
HETATM   12  C   UNL     1     -44.066  57.168 -50.881  1.00  0.00     0.223 C 
HETATM   13  N   UNL     1     -43.981  58.523 -51.048  1.00  0.00    -0.359 N 
HETATM   14  H   UNL     1     -43.074  58.942 -51.267  1.00  0.00     0.162 HD
HETATM   15  O   UNL     1     -45.125  56.628 -50.563  1.00  0.00    -0.273 OA
BRANCH  13  16
HETATM   16  C   UNL     1     -45.053  59.453 -50.663  1.00  0.00     0.150 C 
BRANCH  16  17
HETATM   17  C   UNL     1     -45.927  60.026 -51.809  1.00  0.00     0.253 C 
BRANCH  17  18
HETATM   18  N   UNL     1     -45.120  60.732 -52.883  1.00  0.00    -0.077 N 
HETATM   19  H   UNL     1     -44.422  60.046 -53.230  1.00  0.00     0.279 HD
HETATM   20  C   UNL     1     -45.922  61.148 -54.084  1.00  0.00     0.269 C 
HETATM   21  C   UNL     1     -44.337  61.893 -52.334  1.00  0.00     0.269 C 
ENDBRANCH  17  18
ENDBRANCH  16  17
ENDBRANCH  13  16
ENDBRANCH  11  12
ENDBRANCH   6  11
BRANCH   7  22
HETATM   22  C   UNL     1     -41.343  55.450 -54.285  1.00  0.00     0.008 A 
HETATM   23  C   UNL     1     -42.385  54.597 -53.897  1.00  0.00     0.125 A 
HETATM   24  F   UNL     1     -43.474  55.096 -53.301  1.00  0.00    -0.205 F 
HETATM   25  C   UNL     1     -42.305  53.212 -54.035  1.00  0.00     0.043 A 
HETATM   26  C   UNL     1     -41.143  52.632 -54.528  1.00  0.00     0.003 A 
HETATM   27  C   UNL     1     -40.072  53.441 -54.894  1.00  0.00     0.001 A 
HETATM   28  C   UNL     1     -40.171  54.833 -54.780  1.00  0.00     0.013 A 
ENDBRANCH   7  22
BRANCH  10  29
HETATM   29  C   UNL     1     -43.530  57.578 -54.936  1.00  0.00     0.294 C 
HETATM   30  O   UNL     1     -44.412  57.847 -54.129  1.00  0.00    -0.259 OA
BRANCH  29  31
HETATM   31  O   UNL     1     -43.656  57.030 -56.148  1.00  0.00    -0.313 OA
BRANCH  31  32
HETATM   32  C   UNL     1     -44.387  57.790 -57.121  1.00  0.00     0.217 C 
BRANCH  32  33
HETATM   33  C   UNL     1     -43.451  57.997 -58.275  1.00  0.00    -0.034 A 
HETATM   34  C   UNL     1     -43.150  59.293 -58.714  1.00  0.00     0.009 A 
HETATM   35  C   UNL     1     -42.339  59.486 -59.832  1.00  0.00     0.001 A 
HETATM   36  C   UNL     1     -41.828  58.388 -60.522  1.00  0.00     0.000 A 
HETATM   37  C   UNL     1     -42.121  57.096 -60.093  1.00  0.00     0.001 A 
HETATM   38  C   UNL     1     -42.932  56.898 -58.975  1.00  0.00     0.009 A 
ENDBRANCH  32  33
ENDBRANCH  31  32
ENDBRANCH  29  31
ENDBRANCH  10  29
TORSDOF 10
ENDMDL
MODEL 3
REMARK VINA RESULT:      -7.9      3.396      7.549
REMARK  10 active torsions:
REMARK  status: ('A' for Active; 'I' for Inactive)
REMARK    1  A    between atoms: C_6  and  C_7 
REMARK    2  A    between atoms: C_7  and  C_8 
REMARK       I    between atoms: C_8  and  N_9 
REMARK    3  A    between atoms: N_9  and  C_10 
REMARK    4  A    between atoms: C_10  and  C_11 
REMARK    5  A    between atoms: C_11  and  N_12 
REMARK    6  A    between atoms: C_17  and  C_18 
REMARK    7  A    between atoms: C_27  and  C_28 
REMARK    8  A    between atoms: C_28  and  O_29 
REMARK    9  A    between atoms: O_29  and  C_30 
REMARK   10  A    between atoms: C_30  and  C_31 
ROOT
HETATM    1  C   UNL     1     -44.334  60.287 -53.266  1.00  0.00     0.071 C 
HETATM    2  C   UNL     1     -44.344  59.016 -54.083  1.00  0.00     0.048 C 
HETATM    3  N   UNL     1     -45.499  58.847 -54.859  1.00  0.00    -0.229 NA
HETATM    4  C   UNL     1     -45.350  58.204 -55.975  1.00  0.00     0.170 C 
HETATM    5  N   UNL     1     -44.029  57.448 -56.333  1.00  0.00    -0.318 N 
HETATM    6  C   UNL     1     -43.732  57.699 -57.565  1.00  0.00     0.011 C 
HETATM    7  C   UNL     1     -43.475  56.968 -55.057  1.00  0.00     0.169 C 
HETATM    8  S   UNL     1     -46.390  58.301 -57.344  1.00  0.00    -0.086 SA
HETATM    9  C   UNL     1     -44.926  58.087 -58.431  1.00  0.00     0.135 C 
HETATM   10  C   UNL     1     -43.274  58.194 -54.229  1.00  0.00     0.069 C 
ENDROOT
BRANCH   6  11
HETATM   11  C   UNL     1     -42.312  57.704 -58.062  1.00  0.00     0.156 C 
BRANCH  11  12
HETATM   12  C   UNL     1     -41.912  59.062 -58.616  1.00  0.00     0.223 C 
HETATM   13  N   UNL     1     -41.534  60.020 -57.716  1.00  0.00    -0.359 N 
HETATM   14  H   UNL     1     -41.538  59.795 -56.718  1.00  0.00     0.162 HD
HETATM   15  O   UNL     1     -41.976  59.306 -59.820  1.00  0.00    -0.273 OA
BRANCH  13  16
HETATM   16  C   UNL     1     -41.388  61.442 -58.064  1.00  0.00     0.150 C 
BRANCH  16  17
HETATM   17  C   UNL     1     -42.650  62.331 -57.913  1.00  0.00     0.253 C 
BRANCH  17  18
HETATM   18  N   UNL     1     -43.477  61.997 -56.686  1.00  0.00    -0.077 N 
HETATM   19  H   UNL     1     -43.105  61.102 -56.310  1.00  0.00     0.279 HD
HETATM   20  C   UNL     1     -43.354  62.995 -55.568  1.00  0.00     0.269 C 
HETATM   21  C   UNL     1     -44.921  61.748 -57.024  1.00  0.00     0.269 C 
ENDBRANCH  17  18
ENDBRANCH  16  17
ENDBRANCH  13  16
ENDBRANCH  11  12
ENDBRANCH   6  11
BRANCH   7  22
HETATM   22  C   UNL     1     -42.557  55.764 -54.958  1.00  0.00     0.008 A 
HETATM   23  C   UNL     1     -42.948  54.536 -54.409  1.00  0.00     0.125 A 
HETATM   24  F   UNL     1     -44.226  54.331 -54.066  1.00  0.00    -0.205 F 
HETATM   25  C   UNL     1     -42.036  53.521 -54.125  1.00  0.00     0.043 A 
HETATM   26  C   UNL     1     -40.679  53.730 -54.341  1.00  0.00     0.003 A 
HETATM   27  C   UNL     1     -40.245  54.949 -54.854  1.00  0.00     0.001 A 
HETATM   28  C   UNL     1     -41.171  55.952 -55.164  1.00  0.00     0.013 A 
ENDBRANCH   7  22
BRANCH  10  29
HETATM   29  C   UNL     1     -41.896  58.675 -54.050  1.00  0.00     0.294 C 
HETATM   30  O   UNL     1     -41.435  59.499 -54.830  1.00  0.00    -0.259 OA
BRANCH  29  31
HETATM   31  O   UNL     1     -41.326  58.163 -52.955  1.00  0.00    -0.313 OA
BRANCH  31  32
HETATM   32  C   UNL     1     -42.130  58.138 -51.767  1.00  0.00     0.217 C 
BRANCH  32  33
HETATM   33  C   UNL     1     -42.254  56.695 -51.378  1.00  0.00    -0.034 A 
HETATM   34  C   UNL     1     -43.516  56.139 -51.128  1.00  0.00     0.009 A 
HETATM   35  C   UNL     1     -43.629  54.817 -50.696  1.00  0.00     0.001 A 
HETATM   36  C   UNL     1     -42.484  54.045 -50.506  1.00  0.00     0.000 A 
HETATM   37  C   UNL     1     -41.226  54.589 -50.752  1.00  0.00     0.001 A 
HETATM   38  C   UNL     1     -41.108  55.910 -51.185  1.00  0.00     0.009 A 
ENDBRANCH  32  33
ENDBRANCH  31  32
ENDBRANCH  29  31
ENDBRANCH  10  29
TORSDOF 10
ENDMDL
MODEL 4
REMARK VINA RESULT:      -7.9      3.456      7.326
REMARK  10 active torsions:
REMARK  status: ('A' for Active; 'I' for Inactive)
REMARK    1  A    between atoms: C_6  and  C_7 
REMARK    2  A    between atoms: C_7  and  C_8 
REMARK       I    between atoms: C_8  and  N_9 
REMARK    3  A    between atoms: N_9  and  C_10 
REMARK    4  A    between atoms: C_10  and  C_11 
REMARK    5  A    between atoms: C_11  and  N_12 
REMARK    6  A    between atoms: C_17  and  C_18 
REMARK    7  A    between atoms: C_27  and  C_28 
REMARK    8  A    between atoms: C_28  and  O_29 
REMARK    9  A    between atoms: O_29  and  C_30 
REMARK   10  A    between atoms: C_30  and  C_31 
ROOT
HETATM    1  C   UNL     1     -42.843  55.158 -56.672  1.00  0.00     0.071 C 
HETATM    2  C   UNL     1     -42.676  56.395 -55.819  1.00  0.00     0.048 C 
HETATM    3  N   UNL     1     -43.270  57.543 -56.360  1.00  0.00    -0.229 NA
HETATM    4  C   UNL     1     -43.715  58.413 -55.507  1.00  0.00     0.170 C 
HETATM    5  N   UNL     1     -43.401  58.319 -53.978  1.00  0.00    -0.318 N 
HETATM    6  C   UNL     1     -44.484  58.565 -53.319  1.00  0.00     0.011 C 
HETATM    7  C   UNL     1     -42.065  57.713 -53.872  1.00  0.00     0.169 C 
HETATM    8  S   UNL     1     -44.924  59.599 -55.811  1.00  0.00    -0.086 SA
HETATM    9  C   UNL     1     -45.502  59.410 -54.079  1.00  0.00     0.135 C 
HETATM   10  C   UNL     1     -42.178  56.390 -54.556  1.00  0.00     0.069 C 
ENDROOT
BRANCH   6  11
HETATM   11  C   UNL     1     -44.748  57.976 -51.961  1.00  0.00     0.156 C 
BRANCH  11  12
HETATM   12  C   UNL     1     -44.988  59.051 -50.913  1.00  0.00     0.223 C 
HETATM   13  N   UNL     1     -44.001  59.981 -50.732  1.00  0.00    -0.359 N 
HETATM   14  H   UNL     1     -43.150  59.920 -51.296  1.00  0.00     0.162 HD
HETATM   15  O   UNL     1     -46.003  59.053 -50.218  1.00  0.00    -0.273 OA
BRANCH  13  16
HETATM   16  C   UNL     1     -43.960  60.903 -49.587  1.00  0.00     0.150 C 
BRANCH  16  17
HETATM   17  C   UNL     1     -44.893  62.140 -49.653  1.00  0.00     0.253 C 
BRANCH  17  18
HETATM   18  N   UNL     1     -46.218  61.932 -48.943  1.00  0.00    -0.077 N 
HETATM   19  H   UNL     1     -46.682  61.128 -49.408  1.00  0.00     0.279 HD
HETATM   20  C   UNL     1     -46.089  61.553 -47.494  1.00  0.00     0.269 C 
HETATM   21  C   UNL     1     -47.141  63.109 -49.108  1.00  0.00     0.269 C 
ENDBRANCH  17  18
ENDBRANCH  16  17
ENDBRANCH  13  16
ENDBRANCH  11  12
ENDBRANCH   6  11
BRANCH   7  22
HETATM   22  C   UNL     1     -41.151  57.932 -52.681  1.00  0.00     0.008 A 
HETATM   23  C   UNL     1     -41.456  57.501 -51.383  1.00  0.00     0.125 A 
HETATM   24  F   UNL     1     -42.534  56.739 -51.165  1.00  0.00    -0.205 F 
HETATM   25  C   UNL     1     -40.717  57.902 -50.272  1.00  0.00     0.043 A 
HETATM   26  C   UNL     1     -39.666  58.798 -50.426  1.00  0.00     0.003 A 
HETATM   27  C   UNL     1     -39.351  59.276 -51.694  1.00  0.00     0.001 A 
HETATM   28  C   UNL     1     -40.080  58.845 -52.809  1.00  0.00     0.013 A 
ENDBRANCH   7  22
BRANCH  10  29
HETATM   29  C   UNL     1     -42.222  55.187 -53.710  1.00  0.00     0.294 C 
HETATM   30  O   UNL     1     -43.282  54.840 -53.205  1.00  0.00    -0.259 OA
BRANCH  29  31
HETATM   31  O   UNL     1     -41.039  54.569 -53.660  1.00  0.00    -0.313 OA
BRANCH  31  32
HETATM   32  C   UNL     1     -40.688  53.957 -52.410  1.00  0.00     0.217 C 
BRANCH  32  33
HETATM   33  C   UNL     1     -40.277  52.552 -52.736  1.00  0.00    -0.034 A 
HETATM   34  C   UNL     1     -40.448  52.051 -54.033  1.00  0.00     0.009 A 
HETATM   35  C   UNL     1     -40.136  50.722 -54.321  1.00  0.00     0.001 A 
HETATM   36  C   UNL     1     -39.657  49.885 -53.316  1.00  0.00     0.000 A 
HETATM   37  C   UNL     1     -39.484  50.374 -52.023  1.00  0.00     0.001 A 
HETATM   38  C   UNL     1     -39.795  51.701 -51.730  1.00  0.00     0.009 A 
ENDBRANCH  32  33
ENDBRANCH  31  32
ENDBRANCH  29  31
ENDBRANCH  10  29
TORSDOF 10
ENDMDL
MODEL 5
REMARK VINA RESULT:      -7.8      2.814      7.499
REMARK  10 active torsions:
REMARK  status: ('A' for Active; 'I' for Inactive)
REMARK    1  A    between atoms: C_6  and  C_7 
REMARK    2  A    between atoms: C_7  and  C_8 
REMARK       I    between atoms: C_8  and  N_9 
REMARK    3  A    between atoms: N_9  and  C_10 
REMARK    4  A    between atoms: C_10  and  C_11 
REMARK    5  A    between atoms: C_11  and  N_12 
REMARK    6  A    between atoms: C_17  and  C_18 
REMARK    7  A    between atoms: C_27  and  C_28 
REMARK    8  A    between atoms: C_28  and  O_29 
REMARK    9  A    between atoms: O_29  and  C_30 
REMARK   10  A    between atoms: C_30  and  C_31 
ROOT
HETATM    1  C   UNL     1     -43.243  54.667 -50.337  1.00  0.00     0.071 C 
HETATM    2  C   UNL     1     -43.713  55.661 -51.374  1.00  0.00     0.048 C 
HETATM    3  N   UNL     1     -44.672  56.567 -50.901  1.00  0.00    -0.229 NA
HETATM    4  C   UNL     1     -44.663  57.745 -51.442  1.00  0.00     0.170 C 
HETATM    5  N   UNL     1     -43.808  58.075 -52.709  1.00  0.00    -0.318 N 
HETATM    6  C   UNL     1     -43.235  59.219 -52.533  1.00  0.00     0.011 C 
HETATM    7  C   UNL     1     -43.756  56.836 -53.500  1.00  0.00     0.169 C 
HETATM    8  S   UNL     1     -45.302  59.183 -50.744  1.00  0.00    -0.086 SA
HETATM    9  C   UNL     1     -43.954  60.136 -51.547  1.00  0.00     0.135 C 
HETATM   10  C   UNL     1     -43.142  55.818 -52.596  1.00  0.00     0.069 C 
ENDROOT
BRANCH   6  11
HETATM   11  C   UNL     1     -41.918  59.563 -53.172  1.00  0.00     0.156 C 
BRANCH  11  12
HETATM   12  C   UNL     1     -42.101  60.347 -54.461  1.00  0.00     0.223 C 
HETATM   13  N   UNL     1     -42.803  61.520 -54.387  1.00  0.00    -0.359 N 
HETATM   14  H   UNL     1     -43.176  61.820 -53.484  1.00  0.00     0.162 HD
HETATM   15  O   UNL     1     -41.682  59.919 -55.536  1.00  0.00    -0.273 OA
BRANCH  13  16
HETATM   16  C   UNL     1     -43.297  62.240 -55.571  1.00  0.00     0.150 C 
BRANCH  16  17
HETATM   17  C   UNL     1     -44.697  61.836 -56.101  1.00  0.00     0.253 C 
BRANCH  17  18
HETATM   18  N   UNL     1     -44.645  61.082 -57.417  1.00  0.00    -0.077 N 
HETATM   19  H   UNL     1     -44.536  60.076 -57.181  1.00  0.00     0.279 HD
HETATM   20  C   UNL     1     -45.903  61.180 -58.234  1.00  0.00     0.269 C 
HETATM   21  C   UNL     1     -43.443  61.458 -58.240  1.00  0.00     0.269 C 
ENDBRANCH  17  18
ENDBRANCH  16  17
ENDBRANCH  13  16
ENDBRANCH  11  12
ENDBRANCH   6  11
BRANCH   7  22
HETATM   22  C   UNL     1     -43.533  56.824 -55.000  1.00  0.00     0.008 A 
HETATM   23  C   UNL     1     -44.191  57.687 -55.887  1.00  0.00     0.125 A 
HETATM   24  F   UNL     1     -44.961  58.674 -55.414  1.00  0.00    -0.205 F 
HETATM   25  C   UNL     1     -44.143  57.516 -57.269  1.00  0.00     0.043 A 
HETATM   26  C   UNL     1     -43.464  56.429 -57.808  1.00  0.00     0.003 A 
HETATM   27  C   UNL     1     -42.825  55.529 -56.961  1.00  0.00     0.001 A 
HETATM   28  C   UNL     1     -42.854  55.726 -55.575  1.00  0.00     0.013 A 
ENDBRANCH   7  22
BRANCH  10  29
HETATM   29  C   UNL     1     -41.747  55.429 -52.855  1.00  0.00     0.294 C 
HETATM   30  O   UNL     1     -40.858  56.266 -52.764  1.00  0.00    -0.259 OA
BRANCH  29  31
HETATM   31  O   UNL     1     -41.631  54.122 -53.107  1.00  0.00    -0.313 OA
BRANCH  31  32
HETATM   32  C   UNL     1     -40.443  53.705 -53.794  1.00  0.00     0.217 C 
BRANCH  32  33
HETATM   33  C   UNL     1     -40.202  52.283 -53.382  1.00  0.00    -0.034 A 
HETATM   34  C   UNL     1     -39.829  51.985 -52.065  1.00  0.00     0.009 A 
HETATM   35  C   UNL     1     -39.532  50.672 -51.698  1.00  0.00     0.001 A 
HETATM   36  C   UNL     1     -39.602  49.651 -52.643  1.00  0.00     0.000 A 
HETATM   37  C   UNL     1     -39.973  49.937 -53.955  1.00  0.00     0.001 A 
HETATM   38  C   UNL     1     -40.270  51.248 -54.327  1.00  0.00     0.009 A 
ENDBRANCH  32  33
ENDBRANCH  31  32
ENDBRANCH  29  31
ENDBRANCH  10  29
TORSDOF 10
ENDMDL
MODEL 6
REMARK VINA RESULT:      -7.7      2.736      7.327
REMARK  10 active torsions:
REMARK  status: ('A' for Active; 'I' for Inactive)
REMARK    1  A    between atoms: C_6  and  C_7 
REMARK    2  A    between atoms: C_7  and  C_8 
REMARK       I    between atoms: C_8  and  N_9 
REMARK    3  A    between atoms: N_9  and  C_10 
REMARK    4  A    between atoms: C_10  and  C_11 
REMARK    5  A    between atoms: C_11  and  N_12 
REMARK    6  A    between atoms: C_17  and  C_18 
REMARK    7  A    between atoms: C_27  and  C_28 
REMARK    8  A    between atoms: C_28  and  O_29 
REMARK    9  A    between atoms: O_29  and  C_30 
REMARK   10  A    between atoms: C_30  and  C_31 
ROOT
HETATM    1  C   UNL     1     -43.119  54.729 -50.217  1.00  0.00     0.071 C 
HETATM    2  C   UNL     1     -43.668  55.667 -51.267  1.00  0.00     0.048 C 
HETATM    3  N   UNL     1     -44.691  56.505 -50.804  1.00  0.00    -0.229 NA
HETATM    4  C   UNL     1     -44.775  57.671 -51.365  1.00  0.00     0.170 C 
HETATM    5  N   UNL     1     -43.952  58.044 -52.642  1.00  0.00    -0.318 N 
HETATM    6  C   UNL     1     -43.467  59.231 -52.488  1.00  0.00     0.011 C 
HETATM    7  C   UNL     1     -43.808  56.798 -53.412  1.00  0.00     0.169 C 
HETATM    8  S   UNL     1     -45.518  59.068 -50.687  1.00  0.00    -0.086 SA
HETATM    9  C   UNL     1     -44.250  60.106 -51.514  1.00  0.00     0.135 C 
HETATM   10  C   UNL     1     -43.115  55.846 -52.494  1.00  0.00     0.069 C 
ENDROOT
BRANCH   6  11
HETATM   11  C   UNL     1     -42.182  59.663 -53.139  1.00  0.00     0.156 C 
BRANCH  11  12
HETATM   12  C   UNL     1     -42.431  60.522 -54.368  1.00  0.00     0.223 C 
HETATM   13  N   UNL     1     -42.098  59.990 -55.584  1.00  0.00    -0.359 N 
HETATM   14  H   UNL     1     -41.698  59.049 -55.622  1.00  0.00     0.162 HD
HETATM   15  O   UNL     1     -42.863  61.670 -54.270  1.00  0.00    -0.273 OA
BRANCH  13  16
HETATM   16  C   UNL     1     -42.019  60.784 -56.819  1.00  0.00     0.150 C 
BRANCH  16  17
HETATM   17  C   UNL     1     -41.581  60.036 -58.104  1.00  0.00     0.253 C 
BRANCH  17  18
HETATM   18  N   UNL     1     -42.489  60.300 -59.292  1.00  0.00    -0.077 N 
HETATM   19  H   UNL     1     -42.057  61.077 -59.829  1.00  0.00     0.279 HD
HETATM   20  C   UNL     1     -42.601  59.148 -60.251  1.00  0.00     0.269 C 
HETATM   21  C   UNL     1     -43.851  60.780 -58.870  1.00  0.00     0.269 C 
ENDBRANCH  17  18
ENDBRANCH  16  17
ENDBRANCH  13  16
ENDBRANCH  11  12
ENDBRANCH   6  11
BRANCH   7  22
HETATM   22  C   UNL     1     -43.591  56.778 -54.913  1.00  0.00     0.008 A 
HETATM   23  C   UNL     1     -44.258  57.631 -55.803  1.00  0.00     0.125 A 
HETATM   24  F   UNL     1     -45.033  58.616 -55.334  1.00  0.00    -0.205 F 
HETATM   25  C   UNL     1     -44.214  57.450 -57.184  1.00  0.00     0.043 A 
HETATM   26  C   UNL     1     -43.530  56.365 -57.718  1.00  0.00     0.003 A 
HETATM   27  C   UNL     1     -42.882  55.475 -56.868  1.00  0.00     0.001 A 
HETATM   28  C   UNL     1     -42.907  55.680 -55.483  1.00  0.00     0.013 A 
ENDBRANCH   7  22
BRANCH  10  29
HETATM   29  C   UNL     1     -41.696  55.560 -52.754  1.00  0.00     0.294 C 
HETATM   30  O   UNL     1     -40.898  56.485 -52.846  1.00  0.00    -0.259 OA
BRANCH  29  31
HETATM   31  O   UNL     1     -41.449  54.248 -52.793  1.00  0.00    -0.313 OA
BRANCH  31  32
HETATM   32  C   UNL     1     -40.514  53.801 -53.785  1.00  0.00     0.217 C 
BRANCH  32  33
HETATM   33  C   UNL     1     -40.155  52.392 -53.413  1.00  0.00    -0.034 A 
HETATM   34  C   UNL     1     -40.241  51.369 -54.367  1.00  0.00     0.009 A 
HETATM   35  C   UNL     1     -39.979  50.047 -54.005  1.00  0.00     0.001 A 
HETATM   36  C   UNL     1     -39.636  49.739 -52.691  1.00  0.00     0.000 A 
HETATM   37  C   UNL     1     -39.548  50.749 -51.736  1.00  0.00     0.001 A 
HETATM   38  C   UNL     1     -39.809  52.072 -52.092  1.00  0.00     0.009 A 
ENDBRANCH  32  33
ENDBRANCH  31  32
ENDBRANCH  29  31
ENDBRANCH  10  29
TORSDOF 10
ENDMDL
MODEL 7
REMARK VINA RESULT:      -7.6      4.109      8.414
REMARK  10 active torsions:
REMARK  status: ('A' for Active; 'I' for Inactive)
REMARK    1  A    between atoms: C_6  and  C_7 
REMARK    2  A    between atoms: C_7  and  C_8 
REMARK       I    between atoms: C_8  and  N_9 
REMARK    3  A    between atoms: N_9  and  C_10 
REMARK    4  A    between atoms: C_10  and  C_11 
REMARK    5  A    between atoms: C_11  and  N_12 
REMARK    6  A    between atoms: C_17  and  C_18 
REMARK    7  A    between atoms: C_27  and  C_28 
REMARK    8  A    between atoms: C_28  and  O_29 
REMARK    9  A    between atoms: O_29  and  C_30 
REMARK   10  A    between atoms: C_30  and  C_31 
ROOT
HETATM    1  C   UNL     1     -42.386  55.438 -56.149  1.00  0.00     0.071 C 
HETATM    2  C   UNL     1     -42.319  56.863 -55.652  1.00  0.00     0.048 C 
HETATM    3  N   UNL     1     -42.616  57.822 -56.630  1.00  0.00    -0.229 NA
HETATM    4  C   UNL     1     -43.174  58.914 -56.210  1.00  0.00     0.170 C 
HETATM    5  N   UNL     1     -43.293  59.260 -54.689  1.00  0.00    -0.318 N 
HETATM    6  C   UNL     1     -44.479  59.718 -54.462  1.00  0.00     0.011 C 
HETATM    7  C   UNL     1     -42.109  58.671 -54.044  1.00  0.00     0.169 C 
HETATM    8  S   UNL     1     -44.120  59.995 -57.158  1.00  0.00    -0.086 SA
HETATM    9  C   UNL     1     -45.157  60.334 -55.682  1.00  0.00     0.135 C 
HETATM   10  C   UNL     1     -42.180  57.211 -54.347  1.00  0.00     0.069 C 
ENDROOT
BRANCH   6  11
HETATM   11  C   UNL     1     -45.160  59.556 -53.131  1.00  0.00     0.156 C 
BRANCH  11  12
HETATM   12  C   UNL     1     -45.789  60.855 -52.655  1.00  0.00     0.223 C 
HETATM   13  N   UNL     1     -47.154  60.944 -52.698  1.00  0.00    -0.359 N 
HETATM   14  H   UNL     1     -47.694  60.147 -53.045  1.00  0.00     0.162 HD
HETATM   15  O   UNL     1     -45.098  61.808 -52.297  1.00  0.00    -0.273 OA
BRANCH  13  16
HETATM   16  C   UNL     1     -47.886  62.209 -52.537  1.00  0.00     0.150 C 
BRANCH  16  17
HETATM   17  C   UNL     1     -49.379  62.210 -52.955  1.00  0.00     0.253 C 
BRANCH  17  18
HETATM   18  N   UNL     1     -50.137  63.432 -52.471  1.00  0.00    -0.077 N 
HETATM   19  H   UNL     1     -49.560  63.864 -51.724  1.00  0.00     0.279 HD
HETATM   20  C   UNL     1     -50.322  64.497 -53.516  1.00  0.00     0.269 C 
HETATM   21  C   UNL     1     -51.453  63.071 -51.838  1.00  0.00     0.269 C 
ENDBRANCH  17  18
ENDBRANCH  16  17
ENDBRANCH  13  16
ENDBRANCH  11  12
ENDBRANCH   6  11
BRANCH   7  22
HETATM   22  C   UNL     1     -41.529  59.201 -52.746  1.00  0.00     0.008 A 
HETATM   23  C   UNL     1     -40.190  59.027 -52.369  1.00  0.00     0.125 A 
HETATM   24  F   UNL     1     -39.316  58.489 -53.228  1.00  0.00    -0.205 F 
HETATM   25  C   UNL     1     -39.732  59.323 -51.087  1.00  0.00     0.043 A 
HETATM   26  C   UNL     1     -40.625  59.761 -50.117  1.00  0.00     0.003 A 
HETATM   27  C   UNL     1     -41.969  59.915 -50.440  1.00  0.00     0.001 A 
HETATM   28  C   UNL     1     -42.416  59.644 -51.739  1.00  0.00     0.013 A 
ENDBRANCH   7  22
BRANCH  10  29
HETATM   29  C   UNL     1     -42.581  56.308 -53.257  1.00  0.00     0.294 C 
HETATM   30  O   UNL     1     -43.764  56.205 -52.959  1.00  0.00    -0.259 OA
BRANCH  29  31
HETATM   31  O   UNL     1     -41.540  55.637 -52.756  1.00  0.00    -0.313 OA
BRANCH  31  32
HETATM   32  C   UNL     1     -41.845  54.496 -51.942  1.00  0.00     0.217 C 
BRANCH  32  33
HETATM   33  C   UNL     1     -40.989  53.377 -52.457  1.00  0.00    -0.034 A 
HETATM   34  C   UNL     1     -41.086  52.974 -53.796  1.00  0.00     0.009 A 
HETATM   35  C   UNL     1     -40.346  51.887 -54.260  1.00  0.00     0.001 A 
HETATM   36  C   UNL     1     -39.509  51.192 -53.390  1.00  0.00     0.000 A 
HETATM   37  C   UNL     1     -39.404  51.584 -52.057  1.00  0.00     0.001 A 
HETATM   38  C   UNL     1     -40.143  52.671 -51.589  1.00  0.00     0.009 A 
ENDBRANCH  32  33
ENDBRANCH  31  32
ENDBRANCH  29  31
ENDBRANCH  10  29
TORSDOF 10
ENDMDL
MODEL 8
REMARK VINA RESULT:      -7.5      3.534      6.984
REMARK  10 active torsions:
REMARK  status: ('A' for Active; 'I' for Inactive)
REMARK    1  A    between atoms: C_6  and  C_7 
REMARK    2  A    between atoms: C_7  and  C_8 
REMARK       I    between atoms: C_8  and  N_9 
REMARK    3  A    between atoms: N_9  and  C_10 
REMARK    4  A    between atoms: C_10  and  C_11 
REMARK    5  A    between atoms: C_11  and  N_12 
REMARK    6  A    between atoms: C_17  and  C_18 
REMARK    7  A    between atoms: C_27  and  C_28 
REMARK    8  A    between atoms: C_28  and  O_29 
REMARK    9  A    between atoms: O_29  and  C_30 
REMARK   10  A    between atoms: C_30  and  C_31 
ROOT
HETATM    1  C   UNL     1     -44.274  61.171 -50.726  1.00  0.00     0.071 C 
HETATM    2  C   UNL     1     -44.465  60.368 -51.991  1.00  0.00     0.048 C 
HETATM    3  N   UNL     1     -45.500  60.836 -52.813  1.00  0.00    -0.229 NA
HETATM    4  C   UNL     1     -45.345  60.656 -54.087  1.00  0.00     0.170 C 
HETATM    5  N   UNL     1     -44.203  59.762 -54.672  1.00  0.00    -0.318 N 
HETATM    6  C   UNL     1     -43.676  60.373 -55.681  1.00  0.00     0.011 C 
HETATM    7  C   UNL     1     -43.974  58.696 -53.684  1.00  0.00     0.169 C 
HETATM    8  S   UNL     1     -46.118  61.554 -55.336  1.00  0.00    -0.086 SA
HETATM    9  C   UNL     1     -44.603  61.378 -56.358  1.00  0.00     0.135 C 
HETATM   10  C   UNL     1     -43.611  59.402 -52.419  1.00  0.00     0.069 C 
ENDROOT
BRANCH   6  11
HETATM   11  C   UNL     1     -42.239  60.175 -56.077  1.00  0.00     0.156 C 
BRANCH  11  12
HETATM   12  C   UNL     1     -42.112  59.508 -57.436  1.00  0.00     0.223 C 
HETATM   13  N   UNL     1     -42.913  58.425 -57.680  1.00  0.00    -0.359 N 
HETATM   14  H   UNL     1     -43.556  58.107 -56.951  1.00  0.00     0.162 HD
HETATM   15  O   UNL     1     -41.285  59.890 -58.263  1.00  0.00    -0.273 OA
BRANCH  13  16
HETATM   16  C   UNL     1     -42.717  57.516 -58.820  1.00  0.00     0.150 C 
BRANCH  16  17
HETATM   17  C   UNL     1     -43.143  56.039 -58.617  1.00  0.00     0.253 C 
BRANCH  17  18
HETATM   18  N   UNL     1     -44.539  55.741 -59.130  1.00  0.00    -0.077 N 
HETATM   19  H   UNL     1     -45.162  55.711 -58.299  1.00  0.00     0.279 HD
HETATM   20  C   UNL     1     -45.105  56.804 -60.030  1.00  0.00     0.269 C 
HETATM   21  C   UNL     1     -44.629  54.387 -59.779  1.00  0.00     0.269 C 
ENDBRANCH  17  18
ENDBRANCH  16  17
ENDBRANCH  13  16
ENDBRANCH  11  12
ENDBRANCH   6  11
BRANCH   7  22
HETATM   22  C   UNL     1     -43.392  57.343 -54.050  1.00  0.00     0.008 A 
HETATM   23  C   UNL     1     -42.093  57.169 -54.546  1.00  0.00     0.125 A 
HETATM   24  F   UNL     1     -41.247  58.204 -54.589  1.00  0.00    -0.205 F 
HETATM   25  C   UNL     1     -41.656  55.958 -55.081  1.00  0.00     0.043 A 
HETATM   26  C   UNL     1     -42.536  54.888 -55.181  1.00  0.00     0.003 A 
HETATM   27  C   UNL     1     -43.844  55.030 -54.731  1.00  0.00     0.001 A 
HETATM   28  C   UNL     1     -44.267  56.239 -54.167  1.00  0.00     0.013 A 
ENDBRANCH   7  22
BRANCH  10  29
HETATM   29  C   UNL     1     -42.200  59.376 -52.005  1.00  0.00     0.294 C 
HETATM   30  O   UNL     1     -41.379  60.060 -52.605  1.00  0.00    -0.259 OA
BRANCH  29  31
HETATM   31  O   UNL     1     -42.010  58.612 -50.926  1.00  0.00    -0.313 OA
BRANCH  31  32
HETATM   32  C   UNL     1     -40.975  57.622 -51.015  1.00  0.00     0.217 C 
BRANCH  32  33
HETATM   33  C   UNL     1     -41.674  56.302 -51.149  1.00  0.00    -0.034 A 
HETATM   34  C   UNL     1     -42.985  56.148 -50.681  1.00  0.00     0.009 A 
HETATM   35  C   UNL     1     -43.611  54.902 -50.737  1.00  0.00     0.001 A 
HETATM   36  C   UNL     1     -42.930  53.803 -51.255  1.00  0.00     0.000 A 
HETATM   37  C   UNL     1     -41.625  53.946 -51.723  1.00  0.00     0.001 A 
HETATM   38  C   UNL     1     -40.996  55.189 -51.669  1.00  0.00     0.009 A 
ENDBRANCH  32  33
ENDBRANCH  31  32
ENDBRANCH  29  31
ENDBRANCH  10  29
TORSDOF 10
ENDMDL
MODEL 9
REMARK VINA RESULT:      -7.4      3.033      7.175
REMARK  10 active torsions:
REMARK  status: ('A' for Active; 'I' for Inactive)
REMARK    1  A    between atoms: C_6  and  C_7 
REMARK    2  A    between atoms: C_7  and  C_8 
REMARK       I    between atoms: C_8  and  N_9 
REMARK    3  A    between atoms: N_9  and  C_10 
REMARK    4  A    between atoms: C_10  and  C_11 
REMARK    5  A    between atoms: C_11  and  N_12 
REMARK    6  A    between atoms: C_17  and  C_18 
REMARK    7  A    between atoms: C_27  and  C_28 
REMARK    8  A    between atoms: C_28  and  O_29 
REMARK    9  A    between atoms: O_29  and  C_30 
REMARK   10  A    between atoms: C_30  and  C_31 
ROOT
HETATM    1  C   UNL     1     -43.057  59.946 -50.872  1.00  0.00     0.071 C 
HETATM    2  C   UNL     1     -43.425  59.134 -52.092  1.00  0.00     0.048 C 
HETATM    3  N   UNL     1     -44.641  59.509 -52.680  1.00  0.00    -0.229 NA
HETATM    4  C   UNL     1     -44.730  59.349 -53.964  1.00  0.00     0.170 C 
HETATM    5  N   UNL     1     -43.653  58.566 -54.784  1.00  0.00    -0.318 N 
HETATM    6  C   UNL     1     -43.395  59.227 -55.864  1.00  0.00     0.011 C 
HETATM    7  C   UNL     1     -43.136  57.521 -53.886  1.00  0.00     0.169 C 
HETATM    8  S   UNL     1     -45.813  60.178 -55.013  1.00  0.00    -0.086 SA
HETATM    9  C   UNL     1     -44.525  60.146 -56.320  1.00  0.00     0.135 C 
HETATM   10  C   UNL     1     -42.592  58.253 -52.703  1.00  0.00     0.069 C 
ENDROOT
BRANCH   6  11
HETATM   11  C   UNL     1     -42.055  59.164 -56.542  1.00  0.00     0.156 C 
BRANCH  11  12
HETATM   12  C   UNL     1     -42.143  58.509 -57.911  1.00  0.00     0.223 C 
HETATM   13  N   UNL     1     -42.837  57.333 -57.999  1.00  0.00    -0.359 N 
HETATM   14  H   UNL     1     -43.263  56.942 -57.156  1.00  0.00     0.162 HD
HETATM   15  O   UNL     1     -41.567  58.986 -58.888  1.00  0.00    -0.273 OA
BRANCH  13  16
HETATM   16  C   UNL     1     -42.780  56.448 -59.173  1.00  0.00     0.150 C 
BRANCH  16  17
HETATM   17  C   UNL     1     -43.685  56.824 -60.375  1.00  0.00     0.253 C 
BRANCH  17  18
HETATM   18  N   UNL     1     -44.961  56.007 -60.444  1.00  0.00    -0.077 N 
HETATM   19  H   UNL     1     -45.247  55.985 -61.443  1.00  0.00     0.279 HD
HETATM   20  C   UNL     1     -44.798  54.571 -60.031  1.00  0.00     0.269 C 
HETATM   21  C   UNL     1     -46.092  56.654 -59.692  1.00  0.00     0.269 C 
ENDBRANCH  17  18
ENDBRANCH  16  17
ENDBRANCH  13  16
ENDBRANCH  11  12
ENDBRANCH   6  11
BRANCH   7  22
HETATM   22  C   UNL     1     -42.522  56.230 -54.391  1.00  0.00     0.008 A 
HETATM   23  C   UNL     1     -43.120  54.973 -54.226  1.00  0.00     0.125 A 
HETATM   24  F   UNL     1     -44.356  54.879 -53.722  1.00  0.00    -0.205 F 
HETATM   25  C   UNL     1     -42.444  53.784 -54.496  1.00  0.00     0.043 A 
HETATM   26  C   UNL     1     -41.114  53.820 -54.897  1.00  0.00     0.003 A 
HETATM   27  C   UNL     1     -40.473  55.047 -55.040  1.00  0.00     0.001 A 
HETATM   28  C   UNL     1     -41.168  56.237 -54.796  1.00  0.00     0.013 A 
ENDBRANCH   7  22
BRANCH  10  29
HETATM   29  C   UNL     1     -41.130  58.355 -52.579  1.00  0.00     0.294 C 
HETATM   30  O   UNL     1     -40.540  59.287 -53.110  1.00  0.00    -0.259 OA
BRANCH  29  31
HETATM   31  O   UNL     1     -40.627  57.391 -51.803  1.00  0.00    -0.313 OA
BRANCH  31  32
HETATM   32  C   UNL     1     -41.366  57.074 -50.614  1.00  0.00     0.217 C 
BRANCH  32  33
HETATM   33  C   UNL     1     -41.096  55.626 -50.331  1.00  0.00    -0.034 A 
HETATM   34  C   UNL     1     -41.041  55.166 -49.009  1.00  0.00     0.009 A 
HETATM   35  C   UNL     1     -40.718  53.836 -48.739  1.00  0.00     0.001 A 
HETATM   36  C   UNL     1     -40.443  52.959 -49.787  1.00  0.00     0.000 A 
HETATM   37  C   UNL     1     -40.496  53.407 -51.105  1.00  0.00     0.001 A 
HETATM   38  C   UNL     1     -40.819  54.736 -51.379  1.00  0.00     0.009 A 
ENDBRANCH  32  33
ENDBRANCH  31  32
ENDBRANCH  29  31
ENDBRANCH  10  29
TORSDOF 10
ENDMDL
MODEL 10
REMARK VINA RESULT:      -7.4      3.292      7.472
REMARK  10 active torsions:
REMARK  status: ('A' for Active; 'I' for Inactive)
REMARK    1  A    between atoms: C_6  and  C_7 
REMARK    2  A    between atoms: C_7  and  C_8 
REMARK       I    between atoms: C_8  and  N_9 
REMARK    3  A    between atoms: N_9  and  C_10 
REMARK    4  A    between atoms: C_10  and  C_11 
REMARK    5  A    between atoms: C_11  and  N_12 
REMARK    6  A    between atoms: C_17  and  C_18 
REMARK    7  A    between atoms: C_27  and  C_28 
REMARK    8  A    between atoms: C_28  and  O_29 
REMARK    9  A    between atoms: O_29  and  C_30 
REMARK   10  A    between atoms: C_30  and  C_31 
ROOT
HETATM    1  C   UNL     1     -43.205  55.977 -58.101  1.00  0.00     0.071 C 
HETATM    2  C   UNL     1     -42.622  57.116 -57.298  1.00  0.00     0.048 C 
HETATM    3  N   UNL     1     -42.031  58.119 -58.078  1.00  0.00    -0.229 NA
HETATM    4  C   UNL     1     -42.081  59.322 -57.597  1.00  0.00     0.170 C 
HETATM    5  N   UNL     1     -42.548  59.618 -56.135  1.00  0.00    -0.318 N 
HETATM    6  C   UNL     1     -43.340  60.639 -56.154  1.00  0.00     0.011 C 
HETATM    7  C   UNL     1     -42.135  58.457 -55.332  1.00  0.00     0.169 C 
HETATM    8  S   UNL     1     -41.952  60.779 -58.505  1.00  0.00    -0.086 SA
HETATM    9  C   UNL     1     -43.133  61.571 -57.344  1.00  0.00     0.135 C 
HETATM   10  C   UNL     1     -42.808  57.283 -55.963  1.00  0.00     0.069 C 
ENDROOT
BRANCH   6  11
HETATM   11  C   UNL     1     -44.436  60.822 -55.139  1.00  0.00     0.156 C 
BRANCH  11  12
HETATM   12  C   UNL     1     -45.792  61.011 -55.798  1.00  0.00     0.223 C 
HETATM   13  N   UNL     1     -46.199  60.049 -56.682  1.00  0.00    -0.359 N 
HETATM   14  H   UNL     1     -45.586  59.251 -56.867  1.00  0.00     0.162 HD
HETATM   15  O   UNL     1     -46.472  62.014 -55.588  1.00  0.00    -0.273 OA
BRANCH  13  16
HETATM   16  C   UNL     1     -47.339  60.222 -57.595  1.00  0.00     0.150 C 
BRANCH  16  17
HETATM   17  C   UNL     1     -47.367  59.320 -58.857  1.00  0.00     0.253 C 
BRANCH  17  18
HETATM   18  N   UNL     1     -46.172  58.391 -58.957  1.00  0.00    -0.077 N 
HETATM   19  H   UNL     1     -45.757  58.335 -58.006  1.00  0.00     0.279 HD
HETATM   20  C   UNL     1     -46.518  56.979 -59.339  1.00  0.00     0.269 C 
HETATM   21  C   UNL     1     -45.099  58.941 -59.857  1.00  0.00     0.269 C 
ENDBRANCH  17  18
ENDBRANCH  16  17
ENDBRANCH  13  16
ENDBRANCH  11  12
ENDBRANCH   6  11
BRANCH   7  22
HETATM   22  C   UNL     1     -41.878  58.536 -53.839  1.00  0.00     0.008 A 
HETATM   23  C   UNL     1     -40.990  57.690 -53.161  1.00  0.00     0.125 A 
HETATM   24  F   UNL     1     -40.211  56.846 -53.848  1.00  0.00    -0.205 F 
HETATM   25  C   UNL     1     -40.933  57.629 -51.770  1.00  0.00     0.043 A 
HETATM   26  C   UNL     1     -41.811  58.389 -51.007  1.00  0.00     0.003 A 
HETATM   27  C   UNL     1     -42.732  59.217 -51.642  1.00  0.00     0.001 A 
HETATM   28  C   UNL     1     -42.762  59.295 -53.039  1.00  0.00     0.013 A 
ENDBRANCH   7  22
BRANCH  10  29
HETATM   29  C   UNL     1     -43.963  56.702 -55.262  1.00  0.00     0.294 C 
HETATM   30  O   UNL     1     -44.988  57.360 -55.134  1.00  0.00    -0.259 OA
BRANCH  29  31
HETATM   31  O   UNL     1     -43.741  55.436 -54.897  1.00  0.00    -0.313 OA
BRANCH  31  32
HETATM   32  C   UNL     1     -43.563  55.195 -53.494  1.00  0.00     0.217 C 
BRANCH  32  33
HETATM   33  C   UNL     1     -42.349  54.324 -53.371  1.00  0.00    -0.034 A 
HETATM   34  C   UNL     1     -41.804  53.711 -54.508  1.00  0.00     0.009 A 
HETATM   35  C   UNL     1     -40.719  52.842 -54.387  1.00  0.00     0.001 A 
HETATM   36  C   UNL     1     -40.176  52.576 -53.132  1.00  0.00     0.000 A 
HETATM   37  C   UNL     1     -40.711  53.180 -51.996  1.00  0.00     0.001 A 
HETATM   38  C   UNL     1     -41.795  54.050 -52.112  1.00  0.00     0.009 A 
ENDBRANCH  32  33
ENDBRANCH  31  32
ENDBRANCH  29  31
ENDBRANCH  10  29
TORSDOF 10
ENDMDL
