MODEL 1
REMARK VINA RESULT:      -7.6      0.000      0.000
REMARK  8 active torsions:
REMARK  status: ('A' for Active; 'I' for Inactive)
REMARK    1  A    between atoms: C_2  and  C_3 
REMARK    2  A    between atoms: C_3  and  N_4 
REMARK    3  A    between atoms: C_7  and  C_8 
REMARK       I    between atoms: C_8  and  N_9 
REMARK    4  A    between atoms: N_9  and  N_10 
REMARK       I    between atoms: N_10  and  C_11 
REMARK    5  A    between atoms: C_11  and  C_12 
REMARK    6  A    between atoms: C_12  and  O_13 
REMARK    7  A    between atoms: O_13  and  C_14 
REMARK    8  A    between atoms: C_23  and  C_24 
ROOT
HETATM    1  C   UNL     1     -43.583  54.873 -53.856  1.00  0.00     0.273 C 
HETATM    2  N   UNL     1     -44.426  55.945 -53.614  1.00  0.00    -0.263 N 
HETATM    3  O   UNL     1     -43.542  54.315 -54.950  1.00  0.00    -0.266 OA
HETATM    4  H   UNL     1     -44.248  56.573 -52.832  1.00  0.00     0.190 HD
ENDROOT
BRANCH   2   5
HETATM    5  N   UNL     1     -45.128  56.504 -54.694  1.00  0.00    -0.265 N 
HETATM    6  C   UNL     1     -45.085  57.878 -54.841  1.00  0.00     0.260 C 
HETATM    7  O   UNL     1     -44.564  58.613 -54.000  1.00  0.00    -0.269 OA
HETATM    8  H   UNL     1     -45.328  55.881 -55.476  1.00  0.00     0.190 HD
BRANCH   6   9
HETATM    9  C   UNL     1     -45.745  58.398 -56.108  1.00  0.00     0.280 C 
BRANCH   9  10
HETATM   10  O   UNL     1     -44.726  58.581 -57.085  1.00  0.00    -0.342 OA
BRANCH  10  11
HETATM   11  C   UNL     1     -44.695  57.670 -58.104  1.00  0.00     0.069 A 
HETATM   12  C   UNL     1     -45.870  57.582 -58.853  1.00  0.00     0.037 A 
HETATM   13  C   UNL     1     -45.969  56.685 -59.920  1.00  0.00     0.009 A 
HETATM   14  C   UNL     1     -44.895  55.848 -60.239  1.00  0.00    -0.062 A 
HETATM   15  C   UNL     1     -44.978  54.898 -61.397  1.00  0.00     0.048 C 
HETATM   16  C   UNL     1     -43.720  55.936 -59.484  1.00  0.00     0.009 A 
HETATM   17  C   UNL     1     -43.622  56.838 -58.418  1.00  0.00     0.037 A 
ENDBRANCH  10  11
ENDBRANCH   9  10
ENDBRANCH   6   9
ENDBRANCH   2   5
BRANCH   1  18
HETATM   18  C   UNL     1     -42.808  54.474 -52.694  1.00  0.00     0.077 A 
HETATM   19  C   UNL     1     -43.249  54.593 -51.353  1.00  0.00     0.158 A 
HETATM   20  N   UNL     1     -42.352  54.179 -50.463  1.00  0.00    -0.183 NA
HETATM   21  N   UNL     1     -41.340  53.718 -51.222  1.00  0.00    -0.268 N 
HETATM   22  C   UNL     1     -41.529  53.937 -52.575  1.00  0.00     0.052 A 
BRANCH  21  23
HETATM   23  C   UNL     1     -40.187  53.102 -50.565  1.00  0.00     0.106 C 
HETATM   24  C   UNL     1     -39.590  54.070 -49.541  1.00  0.00     0.034 C 
BRANCH  23  25
HETATM   25  C   UNL     1     -40.499  51.743 -49.902  1.00  0.00     0.022 C 
HETATM   26  C   UNL     1     -39.922  50.558 -50.667  1.00  0.00     0.007 C 
ENDBRANCH  23  25
ENDBRANCH  21  23
BRANCH  22  27
HETATM   27  C   UNL     1     -40.454  53.667 -53.632  1.00  0.00     0.038 A 
HETATM   28  C   UNL     1     -39.854  52.296 -53.805  1.00  0.00     0.011 A 
HETATM   29  C   UNL     1     -40.781  52.829 -54.846  1.00  0.00     0.011 A 
ENDBRANCH  22  27
ENDBRANCH   1  18
TORSDOF 8
ENDMDL
MODEL 2
REMARK VINA RESULT:      -7.6      2.375      8.530
REMARK  8 active torsions:
REMARK  status: ('A' for Active; 'I' for Inactive)
REMARK    1  A    between atoms: C_2  and  C_3 
REMARK    2  A    between atoms: C_3  and  N_4 
REMARK    3  A    between atoms: C_7  and  C_8 
REMARK       I    between atoms: C_8  and  N_9 
REMARK    4  A    between atoms: N_9  and  N_10 
REMARK       I    between atoms: N_10  and  C_11 
REMARK    5  A    between atoms: C_11  and  C_12 
REMARK    6  A    between atoms: C_12  and  O_13 
REMARK    7  A    between atoms: O_13  and  C_14 
REMARK    8  A    between atoms: C_23  and  C_24 
ROOT
HETATM    1  C   UNL     1     -43.296  56.300 -56.548  1.00  0.00     0.273 C 
HETATM    2  N   UNL     1     -44.051  56.298 -55.387  1.00  0.00    -0.263 N 
HETATM    3  O   UNL     1     -42.342  55.541 -56.701  1.00  0.00    -0.266 OA
HETATM    4  H   UNL     1     -44.988  56.700 -55.381  1.00  0.00     0.190 HD
ENDROOT
BRANCH   2   5
HETATM    5  N   UNL     1     -43.817  55.292 -54.435  1.00  0.00    -0.265 N 
HETATM    6  C   UNL     1     -43.083  55.632 -53.315  1.00  0.00     0.260 C 
HETATM    7  O   UNL     1     -42.539  56.731 -53.193  1.00  0.00    -0.269 OA
HETATM    8  H   UNL     1     -44.462  54.503 -54.442  1.00  0.00     0.190 HD
BRANCH   6   9
HETATM    9  C   UNL     1     -42.991  54.537 -52.264  1.00  0.00     0.280 C 
BRANCH   9  10
HETATM   10  O   UNL     1     -41.619  54.386 -51.914  1.00  0.00    -0.342 OA
BRANCH  10  11
HETATM   11  C   UNL     1     -40.988  53.276 -52.404  1.00  0.00     0.069 A 
HETATM   12  C   UNL     1     -41.244  52.997 -53.748  1.00  0.00     0.037 A 
HETATM   13  C   UNL     1     -40.664  51.887 -54.368  1.00  0.00     0.009 A 
HETATM   14  C   UNL     1     -39.833  51.028 -53.642  1.00  0.00    -0.062 A 
HETATM   15  C   UNL     1     -39.183  49.847 -54.300  1.00  0.00     0.048 C 
HETATM   16  C   UNL     1     -39.582  51.308 -52.294  1.00  0.00     0.009 A 
HETATM   17  C   UNL     1     -40.161  52.423 -51.675  1.00  0.00     0.037 A 
ENDBRANCH  10  11
ENDBRANCH   9  10
ENDBRANCH   6   9
ENDBRANCH   2   5
BRANCH   1  18
HETATM   18  C   UNL     1     -43.723  57.298 -57.513  1.00  0.00     0.077 A 
HETATM   19  C   UNL     1     -44.154  58.607 -57.181  1.00  0.00     0.158 A 
HETATM   20  N   UNL     1     -44.515  59.327 -58.238  1.00  0.00    -0.183 NA
HETATM   21  N   UNL     1     -44.257  58.516 -59.281  1.00  0.00    -0.268 N 
HETATM   22  C   UNL     1     -43.845  57.251 -58.899  1.00  0.00     0.052 A 
BRANCH  21  23
HETATM   23  C   UNL     1     -44.466  59.020 -60.639  1.00  0.00     0.106 C 
HETATM   24  C   UNL     1     -45.892  59.557 -60.782  1.00  0.00     0.034 C 
BRANCH  23  25
HETATM   25  C   UNL     1     -43.442  60.090 -61.072  1.00  0.00     0.022 C 
HETATM   26  C   UNL     1     -41.998  59.611 -60.971  1.00  0.00     0.007 C 
ENDBRANCH  23  25
ENDBRANCH  21  23
BRANCH  22  27
HETATM   27  C   UNL     1     -43.658  56.092 -59.882  1.00  0.00     0.038 A 
HETATM   28  C   UNL     1     -44.256  54.735 -59.614  1.00  0.00     0.011 A 
HETATM   29  C   UNL     1     -44.830  55.591 -60.694  1.00  0.00     0.011 A 
ENDBRANCH  22  27
ENDBRANCH   1  18
TORSDOF 8
ENDMDL
MODEL 3
REMARK VINA RESULT:      -7.5      2.573      3.436
REMARK  8 active torsions:
REMARK  status: ('A' for Active; 'I' for Inactive)
REMARK    1  A    between atoms: C_2  and  C_3 
REMARK    2  A    between atoms: C_3  and  N_4 
REMARK    3  A    between atoms: C_7  and  C_8 
REMARK       I    between atoms: C_8  and  N_9 
REMARK    4  A    between atoms: N_9  and  N_10 
REMARK       I    between atoms: N_10  and  C_11 
REMARK    5  A    between atoms: C_11  and  C_12 
REMARK    6  A    between atoms: C_12  and  O_13 
REMARK    7  A    between atoms: O_13  and  C_14 
REMARK    8  A    between atoms: C_23  and  C_24 
ROOT
HETATM    1  C   UNL     1     -42.063  55.730 -52.262  1.00  0.00     0.273 C 
HETATM    2  N   UNL     1     -41.311  56.878 -52.451  1.00  0.00    -0.263 N 
HETATM    3  O   UNL     1     -43.291  55.751 -52.276  1.00  0.00    -0.266 OA
HETATM    4  H   UNL     1     -40.332  56.813 -52.728  1.00  0.00     0.190 HD
ENDROOT
BRANCH   2   5
HETATM    5  N   UNL     1     -41.971  58.059 -52.829  1.00  0.00    -0.265 N 
HETATM    6  C   UNL     1     -41.207  59.067 -53.385  1.00  0.00     0.260 C 
HETATM    7  O   UNL     1     -39.978  59.006 -53.442  1.00  0.00    -0.269 OA
HETATM    8  H   UNL     1     -42.974  57.983 -52.994  1.00  0.00     0.190 HD
BRANCH   6   9
HETATM    9  C   UNL     1     -42.007  60.253 -53.900  1.00  0.00     0.280 C 
BRANCH   9  10
HETATM   10  O   UNL     1     -43.056  59.747 -54.718  1.00  0.00    -0.342 OA
BRANCH  10  11
HETATM   11  C   UNL     1     -42.705  59.365 -55.984  1.00  0.00     0.069 A 
HETATM   12  C   UNL     1     -42.951  58.024 -56.286  1.00  0.00     0.037 A 
HETATM   13  C   UNL     1     -42.632  57.508 -57.544  1.00  0.00     0.009 A 
HETATM   14  C   UNL     1     -42.043  58.325 -58.513  1.00  0.00    -0.062 A 
HETATM   15  C   UNL     1     -41.718  57.790 -59.877  1.00  0.00     0.048 C 
HETATM   16  C   UNL     1     -41.794  59.668 -58.206  1.00  0.00     0.009 A 
HETATM   17  C   UNL     1     -42.118  60.185 -56.946  1.00  0.00     0.037 A 
ENDBRANCH  10  11
ENDBRANCH   9  10
ENDBRANCH   6   9
ENDBRANCH   2   5
BRANCH   1  18
HETATM   18  C   UNL     1     -41.258  54.547 -52.013  1.00  0.00     0.077 A 
HETATM   19  C   UNL     1     -40.711  54.196 -50.753  1.00  0.00     0.158 A 
HETATM   20  N   UNL     1     -39.993  53.078 -50.783  1.00  0.00    -0.183 NA
HETATM   21  N   UNL     1     -40.123  52.649 -52.052  1.00  0.00    -0.268 N 
HETATM   22  C   UNL     1     -40.815  53.534 -52.859  1.00  0.00     0.052 A 
BRANCH  21  23
HETATM   23  C   UNL     1     -39.513  51.375 -52.435  1.00  0.00     0.106 C 
HETATM   24  C   UNL     1     -39.406  50.459 -51.213  1.00  0.00     0.034 C 
BRANCH  23  25
HETATM   25  C   UNL     1     -40.245  50.654 -53.587  1.00  0.00     0.022 C 
HETATM   26  C   UNL     1     -39.319  49.785 -54.432  1.00  0.00     0.007 C 
ENDBRANCH  23  25
ENDBRANCH  21  23
BRANCH  22  27
HETATM   27  C   UNL     1     -40.948  53.367 -54.375  1.00  0.00     0.038 A 
HETATM   28  C   UNL     1     -41.552  54.451 -55.231  1.00  0.00     0.011 A 
HETATM   29  C   UNL     1     -40.085  54.188 -55.305  1.00  0.00     0.011 A 
ENDBRANCH  22  27
ENDBRANCH   1  18
TORSDOF 8
ENDMDL
MODEL 4
REMARK VINA RESULT:      -7.3      2.101      7.869
REMARK  8 active torsions:
REMARK  status: ('A' for Active; 'I' for Inactive)
REMARK    1  A    between atoms: C_2  and  C_3 
REMARK    2  A    between atoms: C_3  and  N_4 
REMARK    3  A    between atoms: C_7  and  C_8 
REMARK       I    between atoms: C_8  and  N_9 
REMARK    4  A    between atoms: N_9  and  N_10 
REMARK       I    between atoms: N_10  and  C_11 
REMARK    5  A    between atoms: C_11  and  C_12 
REMARK    6  A    between atoms: C_12  and  O_13 
REMARK    7  A    between atoms: O_13  and  C_14 
REMARK    8  A    between atoms: C_23  and  C_24 
ROOT
HETATM    1  C   UNL     1     -43.011  57.497 -53.527  1.00  0.00     0.273 C 
HETATM    2  N   UNL     1     -43.341  56.340 -52.840  1.00  0.00    -0.263 N 
HETATM    3  O   UNL     1     -42.103  58.236 -53.153  1.00  0.00    -0.266 OA
HETATM    4  H   UNL     1     -43.872  55.602 -53.300  1.00  0.00     0.190 HD
ENDROOT
BRANCH   2   5
HETATM    5  N   UNL     1     -42.508  55.924 -51.788  1.00  0.00    -0.265 N 
HETATM    6  C   UNL     1     -42.701  54.650 -51.287  1.00  0.00     0.260 C 
HETATM    7  O   UNL     1     -43.640  53.938 -51.646  1.00  0.00    -0.269 OA
HETATM    8  H   UNL     1     -41.621  56.417 -51.690  1.00  0.00     0.190 HD
BRANCH   6   9
HETATM    9  C   UNL     1     -41.675  54.217 -50.252  1.00  0.00     0.280 C 
BRANCH   9  10
HETATM   10  O   UNL     1     -40.405  54.171 -50.893  1.00  0.00    -0.342 OA
BRANCH  10  11
HETATM   11  C   UNL     1     -40.238  53.194 -51.836  1.00  0.00     0.069 A 
HETATM   12  C   UNL     1     -39.821  51.959 -51.339  1.00  0.00     0.037 A 
HETATM   13  C   UNL     1     -39.610  50.879 -52.200  1.00  0.00     0.009 A 
HETATM   14  C   UNL     1     -39.796  51.029 -53.577  1.00  0.00    -0.062 A 
HETATM   15  C   UNL     1     -39.596  49.872 -54.512  1.00  0.00     0.048 C 
HETATM   16  C   UNL     1     -40.210  52.271 -54.073  1.00  0.00     0.009 A 
HETATM   17  C   UNL     1     -40.426  53.350 -53.208  1.00  0.00     0.037 A 
ENDBRANCH  10  11
ENDBRANCH   9  10
ENDBRANCH   6   9
ENDBRANCH   2   5
BRANCH   1  18
HETATM   18  C   UNL     1     -43.862  57.748 -54.677  1.00  0.00     0.077 A 
HETATM   19  C   UNL     1     -44.986  58.611 -54.674  1.00  0.00     0.158 A 
HETATM   20  N   UNL     1     -45.618  58.659 -55.843  1.00  0.00    -0.183 NA
HETATM   21  N   UNL     1     -44.867  57.878 -56.643  1.00  0.00    -0.268 N 
HETATM   22  C   UNL     1     -43.835  57.244 -55.974  1.00  0.00     0.052 A 
BRANCH  21  23
HETATM   23  C   UNL     1     -45.229  57.758 -58.056  1.00  0.00     0.106 C 
HETATM   24  C   UNL     1     -46.726  58.021 -58.236  1.00  0.00     0.034 C 
BRANCH  23  25
HETATM   25  C   UNL     1     -44.406  58.671 -58.991  1.00  0.00     0.022 C 
HETATM   26  C   UNL     1     -43.510  57.893 -59.948  1.00  0.00     0.007 C 
ENDBRANCH  23  25
ENDBRANCH  21  23
BRANCH  22  27
HETATM   27  C   UNL     1     -42.948  56.173 -56.614  1.00  0.00     0.038 A 
HETATM   28  C   UNL     1     -41.777  55.581 -55.872  1.00  0.00     0.011 A 
HETATM   29  C   UNL     1     -42.994  54.750 -56.106  1.00  0.00     0.011 A 
ENDBRANCH  22  27
ENDBRANCH   1  18
TORSDOF 8
ENDMDL
MODEL 5
REMARK VINA RESULT:      -7.3      2.174      8.757
REMARK  8 active torsions:
REMARK  status: ('A' for Active; 'I' for Inactive)
REMARK    1  A    between atoms: C_2  and  C_3 
REMARK    2  A    between atoms: C_3  and  N_4 
REMARK    3  A    between atoms: C_7  and  C_8 
REMARK       I    between atoms: C_8  and  N_9 
REMARK    4  A    between atoms: N_9  and  N_10 
REMARK       I    between atoms: N_10  and  C_11 
REMARK    5  A    between atoms: C_11  and  C_12 
REMARK    6  A    between atoms: C_12  and  O_13 
REMARK    7  A    between atoms: O_13  and  C_14 
REMARK    8  A    between atoms: C_23  and  C_24 
ROOT
HETATM    1  C   UNL     1     -43.721  57.447 -56.684  1.00  0.00     0.273 C 
HETATM    2  N   UNL     1     -44.026  56.538 -55.684  1.00  0.00    -0.263 N 
HETATM    3  O   UNL     1     -42.630  58.010 -56.737  1.00  0.00    -0.266 OA
HETATM    4  H   UNL     1     -44.787  55.873 -55.807  1.00  0.00     0.190 HD
ENDROOT
BRANCH   2   5
HETATM    5  N   UNL     1     -43.004  56.136 -54.808  1.00  0.00    -0.265 N 
HETATM    6  C   UNL     1     -43.121  56.500 -53.480  1.00  0.00     0.260 C 
HETATM    7  O   UNL     1     -44.011  57.253 -53.081  1.00  0.00    -0.269 OA
HETATM    8  H   UNL     1     -42.440  55.340 -55.105  1.00  0.00     0.190 HD
BRANCH   6   9
HETATM    9  C   UNL     1     -42.057  55.911 -52.568  1.00  0.00     0.280 C 
BRANCH   9  10
HETATM   10  O   UNL     1     -40.969  55.490 -53.385  1.00  0.00    -0.342 OA
BRANCH  10  11
HETATM   11  C   UNL     1     -40.618  54.171 -53.292  1.00  0.00     0.069 A 
HETATM   12  C   UNL     1     -40.580  53.482 -54.505  1.00  0.00     0.037 A 
HETATM   13  C   UNL     1     -40.240  52.128 -54.545  1.00  0.00     0.009 A 
HETATM   14  C   UNL     1     -39.951  51.439 -53.363  1.00  0.00    -0.062 A 
HETATM   15  C   UNL     1     -39.561  49.990 -53.393  1.00  0.00     0.048 C 
HETATM   16  C   UNL     1     -39.994  52.131 -52.148  1.00  0.00     0.009 A 
HETATM   17  C   UNL     1     -40.331  53.490 -52.110  1.00  0.00     0.037 A 
ENDBRANCH  10  11
ENDBRANCH   9  10
ENDBRANCH   6   9
ENDBRANCH   2   5
BRANCH   1  18
HETATM   18  C   UNL     1     -44.818  57.677 -57.609  1.00  0.00     0.077 A 
HETATM   19  C   UNL     1     -46.067  58.242 -57.251  1.00  0.00     0.158 A 
HETATM   20  N   UNL     1     -46.917  58.332 -58.269  1.00  0.00    -0.183 NA
HETATM   21  N   UNL     1     -46.202  57.889 -59.320  1.00  0.00    -0.268 N 
HETATM   22  C   UNL     1     -44.952  57.412 -58.968  1.00  0.00     0.052 A 
BRANCH  21  23
HETATM   23  C   UNL     1     -46.809  57.920 -60.652  1.00  0.00     0.106 C 
HETATM   24  C   UNL     1     -47.513  56.591 -60.936  1.00  0.00     0.034 C 
BRANCH  23  25
HETATM   25  C   UNL     1     -47.780  59.101 -60.867  1.00  0.00     0.022 C 
HETATM   26  C   UNL     1     -48.672  58.925 -62.091  1.00  0.00     0.007 C 
ENDBRANCH  23  25
ENDBRANCH  21  23
BRANCH  22  27
HETATM   27  C   UNL     1     -44.017  56.695 -59.946  1.00  0.00     0.038 A 
HETATM   28  C   UNL     1     -42.941  55.759 -59.456  1.00  0.00     0.011 A 
HETATM   29  C   UNL     1     -44.138  55.203 -60.153  1.00  0.00     0.011 A 
ENDBRANCH  22  27
ENDBRANCH   1  18
TORSDOF 8
ENDMDL
MODEL 6
REMARK VINA RESULT:      -7.3      3.957      7.808
REMARK  8 active torsions:
REMARK  status: ('A' for Active; 'I' for Inactive)
REMARK    1  A    between atoms: C_2  and  C_3 
REMARK    2  A    between atoms: C_3  and  N_4 
REMARK    3  A    between atoms: C_7  and  C_8 
REMARK       I    between atoms: C_8  and  N_9 
REMARK    4  A    between atoms: N_9  and  N_10 
REMARK       I    between atoms: N_10  and  C_11 
REMARK    5  A    between atoms: C_11  and  C_12 
REMARK    6  A    between atoms: C_12  and  O_13 
REMARK    7  A    between atoms: O_13  and  C_14 
REMARK    8  A    between atoms: C_23  and  C_24 
ROOT
HETATM    1  C   UNL     1     -43.905  56.739 -51.805  1.00  0.00     0.273 C 
HETATM    2  N   UNL     1     -44.273  56.473 -53.114  1.00  0.00    -0.263 N 
HETATM    3  O   UNL     1     -43.381  55.886 -51.093  1.00  0.00    -0.266 OA
HETATM    4  H   UNL     1     -44.425  57.236 -53.771  1.00  0.00     0.190 HD
ENDROOT
BRANCH   2   5
HETATM    5  N   UNL     1     -43.886  55.249 -53.684  1.00  0.00    -0.265 N 
HETATM    6  C   UNL     1     -42.787  55.255 -54.522  1.00  0.00     0.260 C 
HETATM    7  O   UNL     1     -42.231  56.297 -54.870  1.00  0.00    -0.269 OA
HETATM    8  H   UNL     1     -44.196  54.406 -53.201  1.00  0.00     0.190 HD
BRANCH   6   9
HETATM    9  C   UNL     1     -42.341  53.877 -54.987  1.00  0.00     0.280 C 
BRANCH   9  10
HETATM   10  O   UNL     1     -40.939  53.776 -54.762  1.00  0.00    -0.342 OA
BRANCH  10  11
HETATM   11  C   UNL     1     -40.532  52.772 -53.926  1.00  0.00     0.069 A 
HETATM   12  C   UNL     1     -40.436  53.128 -52.579  1.00  0.00     0.037 A 
HETATM   13  C   UNL     1     -40.026  52.194 -51.624  1.00  0.00     0.009 A 
HETATM   14  C   UNL     1     -39.688  50.894 -52.009  1.00  0.00    -0.062 A 
HETATM   15  C   UNL     1     -39.269  49.874 -50.991  1.00  0.00     0.048 C 
HETATM   16  C   UNL     1     -39.781  50.542 -53.361  1.00  0.00     0.009 A 
HETATM   17  C   UNL     1     -40.196  51.477 -54.316  1.00  0.00     0.037 A 
ENDBRANCH  10  11
ENDBRANCH   9  10
ENDBRANCH   6   9
ENDBRANCH   2   5
BRANCH   1  18
HETATM   18  C   UNL     1     -44.238  58.086 -51.374  1.00  0.00     0.077 A 
HETATM   19  C   UNL     1     -45.554  58.550 -51.127  1.00  0.00     0.158 A 
HETATM   20  N   UNL     1     -45.604  59.827 -50.763  1.00  0.00    -0.183 NA
HETATM   21  N   UNL     1     -44.310  60.191 -50.701  1.00  0.00    -0.268 N 
HETATM   22  C   UNL     1     -43.443  59.202 -51.130  1.00  0.00     0.052 A 
BRANCH  21  23
HETATM   23  C   UNL     1     -43.976  61.542 -50.248  1.00  0.00     0.106 C 
HETATM   24  C   UNL     1     -44.633  62.578 -51.164  1.00  0.00     0.034 C 
BRANCH  23  25
HETATM   25  C   UNL     1     -44.345  61.815 -48.774  1.00  0.00     0.022 C 
HETATM   26  C   UNL     1     -44.653  63.282 -48.497  1.00  0.00     0.007 C 
ENDBRANCH  23  25
ENDBRANCH  21  23
BRANCH  22  27
HETATM   27  C   UNL     1     -41.940  59.422 -51.323  1.00  0.00     0.038 A 
HETATM   28  C   UNL     1     -41.063  59.873 -50.184  1.00  0.00     0.011 A 
HETATM   29  C   UNL     1     -40.949  58.474 -50.689  1.00  0.00     0.011 A 
ENDBRANCH  22  27
ENDBRANCH   1  18
TORSDOF 8
ENDMDL
MODEL 7
REMARK VINA RESULT:      -7.2      5.381      8.221
REMARK  8 active torsions:
REMARK  status: ('A' for Active; 'I' for Inactive)
REMARK    1  A    between atoms: C_2  and  C_3 
REMARK    2  A    between atoms: C_3  and  N_4 
REMARK    3  A    between atoms: C_7  and  C_8 
REMARK       I    between atoms: C_8  and  N_9 
REMARK    4  A    between atoms: N_9  and  N_10 
REMARK       I    between atoms: N_10  and  C_11 
REMARK    5  A    between atoms: C_11  and  C_12 
REMARK    6  A    between atoms: C_12  and  O_13 
REMARK    7  A    between atoms: O_13  and  C_14 
REMARK    8  A    between atoms: C_23  and  C_24 
ROOT
HETATM    1  C   UNL     1     -43.601  56.446 -51.108  1.00  0.00     0.273 C 
HETATM    2  N   UNL     1     -43.000  57.693 -51.159  1.00  0.00    -0.263 N 
HETATM    3  O   UNL     1     -44.658  56.261 -50.509  1.00  0.00    -0.266 OA
HETATM    4  H   UNL     1     -42.310  57.902 -51.879  1.00  0.00     0.190 HD
ENDROOT
BRANCH   2   5
HETATM    5  N   UNL     1     -43.702  58.798 -50.652  1.00  0.00    -0.265 N 
HETATM    6  C   UNL     1     -43.171  60.053 -50.884  1.00  0.00     0.260 C 
HETATM    7  O   UNL     1     -42.064  60.213 -51.401  1.00  0.00    -0.269 OA
HETATM    8  H   UNL     1     -44.693  58.655 -50.460  1.00  0.00     0.190 HD
BRANCH   6   9
HETATM    9  C   UNL     1     -44.054  61.205 -50.433  1.00  0.00     0.280 C 
BRANCH   9  10
HETATM   10  O   UNL     1     -44.844  60.745 -49.340  1.00  0.00    -0.342 OA
BRANCH  10  11
HETATM   11  C   UNL     1     -44.929  61.582 -48.262  1.00  0.00     0.069 A 
HETATM   12  C   UNL     1     -45.202  60.953 -47.046  1.00  0.00     0.037 A 
HETATM   13  C   UNL     1     -45.319  61.697 -45.869  1.00  0.00     0.009 A 
HETATM   14  C   UNL     1     -45.182  63.088 -45.898  1.00  0.00    -0.062 A 
HETATM   15  C   UNL     1     -45.281  63.897 -44.639  1.00  0.00     0.048 C 
HETATM   16  C   UNL     1     -44.912  63.716 -47.119  1.00  0.00     0.009 A 
HETATM   17  C   UNL     1     -44.791  62.968 -48.297  1.00  0.00     0.037 A 
ENDBRANCH  10  11
ENDBRANCH   9  10
ENDBRANCH   6   9
ENDBRANCH   2   5
BRANCH   1  18
HETATM   18  C   UNL     1     -42.842  55.410 -51.786  1.00  0.00     0.077 A 
HETATM   19  C   UNL     1     -43.269  54.733 -52.956  1.00  0.00     0.158 A 
HETATM   20  N   UNL     1     -42.410  53.811 -53.376  1.00  0.00    -0.183 NA
HETATM   21  N   UNL     1     -41.376  53.926 -52.522  1.00  0.00    -0.268 N 
HETATM   22  C   UNL     1     -41.612  54.825 -51.497  1.00  0.00     0.052 A 
BRANCH  21  23
HETATM   23  C   UNL     1     -40.187  53.099 -52.735  1.00  0.00     0.106 C 
HETATM   24  C   UNL     1     -40.181  51.930 -51.747  1.00  0.00     0.034 C 
BRANCH  23  25
HETATM   25  C   UNL     1     -40.037  52.583 -54.182  1.00  0.00     0.022 C 
HETATM   26  C   UNL     1     -40.187  51.070 -54.295  1.00  0.00     0.007 C 
ENDBRANCH  23  25
ENDBRANCH  21  23
BRANCH  22  27
HETATM   27  C   UNL     1     -40.672  55.009 -50.303  1.00  0.00     0.038 A 
HETATM   28  C   UNL     1     -41.200  55.386 -48.943  1.00  0.00     0.011 A 
HETATM   29  C   UNL     1     -40.679  54.006 -49.173  1.00  0.00     0.011 A 
ENDBRANCH  22  27
ENDBRANCH   1  18
TORSDOF 8
ENDMDL
MODEL 8
REMARK VINA RESULT:      -7.1      3.168      4.596
REMARK  8 active torsions:
REMARK  status: ('A' for Active; 'I' for Inactive)
REMARK    1  A    between atoms: C_2  and  C_3 
REMARK    2  A    between atoms: C_3  and  N_4 
REMARK    3  A    between atoms: C_7  and  C_8 
REMARK       I    between atoms: C_8  and  N_9 
REMARK    4  A    between atoms: N_9  and  N_10 
REMARK       I    between atoms: N_10  and  C_11 
REMARK    5  A    between atoms: C_11  and  C_12 
REMARK    6  A    between atoms: C_12  and  O_13 
REMARK    7  A    between atoms: O_13  and  C_14 
REMARK    8  A    between atoms: C_23  and  C_24 
ROOT
HETATM    1  C   UNL     1     -42.004  55.565 -51.019  1.00  0.00     0.273 C 
HETATM    2  N   UNL     1     -41.302  56.545 -50.336  1.00  0.00    -0.263 N 
HETATM    3  O   UNL     1     -43.150  55.751 -51.421  1.00  0.00    -0.266 OA
HETATM    4  H   UNL     1     -40.286  56.499 -50.271  1.00  0.00     0.190 HD
ENDROOT
BRANCH   2   5
HETATM    5  N   UNL     1     -41.858  57.831 -50.249  1.00  0.00    -0.265 N 
HETATM    6  C   UNL     1     -41.167  58.868 -50.846  1.00  0.00     0.260 C 
HETATM    7  O   UNL     1     -40.045  58.716 -51.332  1.00  0.00    -0.269 OA
HETATM    8  H   UNL     1     -42.861  57.880 -50.069  1.00  0.00     0.190 HD
BRANCH   6   9
HETATM    9  C   UNL     1     -41.896  60.202 -50.836  1.00  0.00     0.280 C 
BRANCH   9  10
HETATM   10  O   UNL     1     -43.092  60.049 -51.593  1.00  0.00    -0.342 OA
BRANCH  10  11
HETATM   11  C   UNL     1     -42.937  59.649 -52.892  1.00  0.00     0.069 A 
HETATM   12  C   UNL     1     -43.726  58.561 -53.273  1.00  0.00     0.037 A 
HETATM   13  C   UNL     1     -43.657  58.052 -54.572  1.00  0.00     0.009 A 
HETATM   14  C   UNL     1     -42.782  58.616 -55.505  1.00  0.00    -0.062 A 
HETATM   15  C   UNL     1     -42.715  58.096 -56.911  1.00  0.00     0.048 C 
HETATM   16  C   UNL     1     -41.990  59.704 -55.119  1.00  0.00     0.009 A 
HETATM   17  C   UNL     1     -42.062  60.215 -53.818  1.00  0.00     0.037 A 
ENDBRANCH  10  11
ENDBRANCH   9  10
ENDBRANCH   6   9
ENDBRANCH   2   5
BRANCH   1  18
HETATM   18  C   UNL     1     -41.267  54.321 -51.164  1.00  0.00     0.077 A 
HETATM   19  C   UNL     1     -40.959  53.439 -50.097  1.00  0.00     0.158 A 
HETATM   20  N   UNL     1     -40.257  52.377 -50.477  1.00  0.00    -0.183 NA
HETATM   21  N   UNL     1     -40.160  52.520 -51.813  1.00  0.00    -0.268 N 
HETATM   22  C   UNL     1     -40.689  53.713 -52.273  1.00  0.00     0.052 A 
BRANCH  21  23
HETATM   23  C   UNL     1     -39.502  51.469 -52.591  1.00  0.00     0.106 C 
HETATM   24  C   UNL     1     -39.419  50.183 -51.766  1.00  0.00     0.034 C 
BRANCH  23  25
HETATM   25  C   UNL     1     -40.170  51.192 -53.954  1.00  0.00     0.022 C 
HETATM   26  C   UNL     1     -39.758  49.856 -54.561  1.00  0.00     0.007 C 
ENDBRANCH  23  25
ENDBRANCH  21  23
BRANCH  22  27
HETATM   27  C   UNL     1     -40.548  54.195 -53.720  1.00  0.00     0.038 A 
HETATM   28  C   UNL     1     -41.746  54.652 -54.511  1.00  0.00     0.011 A 
HETATM   29  C   UNL     1     -40.742  55.656 -54.052  1.00  0.00     0.011 A 
ENDBRANCH  22  27
ENDBRANCH   1  18
TORSDOF 8
ENDMDL
MODEL 9
REMARK VINA RESULT:      -7.1      5.965      9.090
REMARK  8 active torsions:
REMARK  status: ('A' for Active; 'I' for Inactive)
REMARK    1  A    between atoms: C_2  and  C_3 
REMARK    2  A    between atoms: C_3  and  N_4 
REMARK    3  A    between atoms: C_7  and  C_8 
REMARK       I    between atoms: C_8  and  N_9 
REMARK    4  A    between atoms: N_9  and  N_10 
REMARK       I    between atoms: N_10  and  C_11 
REMARK    5  A    between atoms: C_11  and  C_12 
REMARK    6  A    between atoms: C_12  and  O_13 
REMARK    7  A    between atoms: O_13  and  C_14 
REMARK    8  A    between atoms: C_23  and  C_24 
ROOT
HETATM    1  C   UNL     1     -43.493  58.572 -52.273  1.00  0.00     0.273 C 
HETATM    2  N   UNL     1     -43.936  58.699 -50.966  1.00  0.00    -0.263 N 
HETATM    3  O   UNL     1     -43.503  59.520 -53.055  1.00  0.00    -0.266 OA
HETATM    4  H   UNL     1     -43.657  58.020 -50.260  1.00  0.00     0.190 HD
ENDROOT
BRANCH   2   5
HETATM    5  N   UNL     1     -44.248  59.982 -50.485  1.00  0.00    -0.265 N 
HETATM    6  C   UNL     1     -45.381  60.112 -49.705  1.00  0.00     0.260 C 
HETATM    7  O   UNL     1     -46.169  59.181 -49.530  1.00  0.00    -0.269 OA
HETATM    8  H   UNL     1     -43.478  60.648 -50.440  1.00  0.00     0.190 HD
BRANCH   6   9
HETATM    9  C   UNL     1     -45.577  61.494 -49.103  1.00  0.00     0.280 C 
BRANCH   9  10
HETATM   10  O   UNL     1     -46.345  61.345 -47.914  1.00  0.00    -0.342 OA
BRANCH  10  11
HETATM   11  C   UNL     1     -45.743  61.743 -46.752  1.00  0.00     0.069 A 
HETATM   12  C   UNL     1     -45.081  60.731 -46.053  1.00  0.00     0.037 A 
HETATM   13  C   UNL     1     -44.430  61.007 -44.848  1.00  0.00     0.009 A 
HETATM   14  C   UNL     1     -44.449  62.300 -44.316  1.00  0.00    -0.062 A 
HETATM   15  C   UNL     1     -43.733  62.615 -43.036  1.00  0.00     0.048 C 
HETATM   16  C   UNL     1     -45.116  63.311 -45.017  1.00  0.00     0.009 A 
HETATM   17  C   UNL     1     -45.765  63.034 -46.226  1.00  0.00     0.037 A 
ENDBRANCH  10  11
ENDBRANCH   9  10
ENDBRANCH   6   9
ENDBRANCH   2   5
BRANCH   1  18
HETATM   18  C   UNL     1     -43.069  57.225 -52.611  1.00  0.00     0.077 A 
HETATM   19  C   UNL     1     -43.809  56.327 -53.420  1.00  0.00     0.158 A 
HETATM   20  N   UNL     1     -43.223  55.143 -53.567  1.00  0.00    -0.183 NA
HETATM   21  N   UNL     1     -42.055  55.282 -52.910  1.00  0.00    -0.268 N 
HETATM   22  C   UNL     1     -41.941  56.493 -52.252  1.00  0.00     0.052 A 
BRANCH  21  23
HETATM   23  C   UNL     1     -41.098  54.176 -52.928  1.00  0.00     0.106 C 
HETATM   24  C   UNL     1     -41.359  53.239 -51.747  1.00  0.00     0.034 C 
BRANCH  23  25
HETATM   25  C   UNL     1     -41.086  53.382 -54.252  1.00  0.00     0.022 C 
HETATM   26  C   UNL     1     -40.198  54.012 -55.320  1.00  0.00     0.007 C 
ENDBRANCH  23  25
ENDBRANCH  21  23
BRANCH  22  27
HETATM   27  C   UNL     1     -40.794  56.828 -51.294  1.00  0.00     0.038 A 
HETATM   28  C   UNL     1     -40.909  57.953 -50.298  1.00  0.00     0.011 A 
HETATM   29  C   UNL     1     -40.933  56.540 -49.817  1.00  0.00     0.011 A 
ENDBRANCH  22  27
ENDBRANCH   1  18
TORSDOF 8
ENDMDL
MODEL 10
REMARK VINA RESULT:      -7.0      5.471      8.345
REMARK  8 active torsions:
REMARK  status: ('A' for Active; 'I' for Inactive)
REMARK    1  A    between atoms: C_2  and  C_3 
REMARK    2  A    between atoms: C_3  and  N_4 
REMARK    3  A    between atoms: C_7  and  C_8 
REMARK       I    between atoms: C_8  and  N_9 
REMARK    4  A    between atoms: N_9  and  N_10 
REMARK       I    between atoms: N_10  and  C_11 
REMARK    5  A    between atoms: C_11  and  C_12 
REMARK    6  A    between atoms: C_12  and  O_13 
REMARK    7  A    between atoms: O_13  and  C_14 
REMARK    8  A    between atoms: C_23  and  C_24 
ROOT
HETATM    1  C   UNL     1     -42.089  58.058 -51.404  1.00  0.00     0.273 C 
HETATM    2  N   UNL     1     -43.420  58.393 -51.593  1.00  0.00    -0.263 N 
HETATM    3  O   UNL     1     -41.366  58.685 -50.634  1.00  0.00    -0.266 OA
HETATM    4  H   UNL     1     -44.071  57.715 -51.986  1.00  0.00     0.190 HD
ENDROOT
BRANCH   2   5
HETATM    5  N   UNL     1     -43.991  59.369 -50.759  1.00  0.00    -0.265 N 
HETATM    6  C   UNL     1     -45.160  59.969 -51.187  1.00  0.00     0.260 C 
HETATM    7  O   UNL     1     -45.632  59.765 -52.307  1.00  0.00    -0.269 OA
HETATM    8  H   UNL     1     -43.728  59.334 -49.775  1.00  0.00     0.190 HD
BRANCH   6   9
HETATM    9  C   UNL     1     -45.795  60.907 -50.174  1.00  0.00     0.280 C 
BRANCH   9  10
HETATM   10  O   UNL     1     -45.725  60.280 -48.897  1.00  0.00    -0.342 OA
BRANCH  10  11
HETATM   11  C   UNL     1     -45.525  61.108 -47.827  1.00  0.00     0.069 A 
HETATM   12  C   UNL     1     -45.414  62.463 -48.141  1.00  0.00     0.037 A 
HETATM   13  C   UNL     1     -45.203  63.412 -47.137  1.00  0.00     0.009 A 
HETATM   14  C   UNL     1     -45.082  63.012 -45.803  1.00  0.00    -0.062 A 
HETATM   15  C   UNL     1     -44.879  64.021 -44.712  1.00  0.00     0.048 C 
HETATM   16  C   UNL     1     -45.189  61.651 -45.492  1.00  0.00     0.009 A 
HETATM   17  C   UNL     1     -45.405  60.702 -46.499  1.00  0.00     0.037 A 
ENDBRANCH  10  11
ENDBRANCH   9  10
ENDBRANCH   6   9
ENDBRANCH   2   5
BRANCH   1  18
HETATM   18  C   UNL     1     -41.652  56.943 -52.227  1.00  0.00     0.077 A 
HETATM   19  C   UNL     1     -40.987  57.073 -53.471  1.00  0.00     0.158 A 
HETATM   20  N   UNL     1     -40.708  55.907 -54.045  1.00  0.00    -0.183 NA
HETATM   21  N   UNL     1     -41.128  55.000 -53.143  1.00  0.00    -0.268 N 
HETATM   22  C   UNL     1     -41.773  55.567 -52.058  1.00  0.00     0.052 A 
BRANCH  21  23
HETATM   23  C   UNL     1     -40.905  53.579 -53.413  1.00  0.00     0.106 C 
HETATM   24  C   UNL     1     -40.284  53.401 -54.800  1.00  0.00     0.034 C 
BRANCH  23  25
HETATM   25  C   UNL     1     -40.048  52.868 -52.343  1.00  0.00     0.022 C 
HETATM   26  C   UNL     1     -39.525  51.511 -52.802  1.00  0.00     0.007 C 
ENDBRANCH  23  25
ENDBRANCH  21  23
BRANCH  22  27
HETATM   27  C   UNL     1     -42.496  54.749 -50.984  1.00  0.00     0.038 A 
HETATM   28  C   UNL     1     -43.895  55.098 -50.545  1.00  0.00     0.011 A 
HETATM   29  C   UNL     1     -43.665  53.870 -51.362  1.00  0.00     0.011 A 
ENDBRANCH  22  27
ENDBRANCH   1  18
TORSDOF 8
ENDMDL
