MODEL 1
REMARK VINA RESULT:      -9.0      0.000      0.000
REMARK  8 active torsions:
REMARK  status: ('A' for Active; 'I' for Inactive)
REMARK    1  A    between atoms: C_6  and  S_7 
REMARK    2  A    between atoms: S_7  and  C_8 
REMARK    3  A    between atoms: C_8  and  C_9 
REMARK       I    between atoms: C_9  and  N_10 
REMARK    4  A    between atoms: N_10  and  C_11 
REMARK    5  A    between atoms: C_24  and  C_25 
REMARK    6  A    between atoms: C_25  and  C_26 
REMARK       I    between atoms: C_26  and  N_27 
REMARK    7  A    between atoms: N_27  and  C_28 
REMARK    8  A    between atoms: C_28  and  C_29 
ROOT
HETATM    1  C   UNL     1     -42.868  55.415 -57.211  1.00  0.00     0.001 A 
HETATM    2  C   UNL     1     -42.560  56.587 -56.523  1.00  0.00     0.018 A 
HETATM    3  C   UNL     1     -42.702  56.618 -55.133  1.00  0.00     0.039 A 
HETATM    4  C   UNL     1     -43.142  55.501 -54.420  1.00  0.00     0.073 A 
HETATM    5  N   UNL     1     -43.273  55.512 -53.025  1.00  0.00    -0.223 NA
HETATM    6  C   UNL     1     -42.985  56.597 -52.383  1.00  0.00     0.178 A 
HETATM    7  N   UNL     1     -42.543  57.758 -53.005  1.00  0.00    -0.241 N 
HETATM    8  C   UNL     1     -42.386  57.813 -54.352  1.00  0.00     0.147 A 
HETATM    9  N   UNL     1     -41.973  58.929 -54.862  1.00  0.00    -0.256 NA
HETATM   10  C   UNL     1     -42.225  59.002 -52.502  1.00  0.00     0.257 A 
HETATM   11  O   UNL     1     -42.346  59.434 -51.367  1.00  0.00    -0.270 OA
HETATM   12  C   UNL     1     -41.738  59.815 -53.689  1.00  0.00     0.211 A 
HETATM   13  C   UNL     1     -43.449  54.336 -55.122  1.00  0.00     0.032 A 
HETATM   14  C   UNL     1     -43.312  54.291 -56.512  1.00  0.00     0.002 A 
ENDROOT
BRANCH  12  15
HETATM   15  C   UNL     1     -42.529  61.106 -53.830  1.00  0.00     0.140 C 
BRANCH  15  16
HETATM   16  C   UNL     1     -43.383  61.099 -55.078  1.00  0.00     0.220 C 
HETATM   17  N   UNL     1     -42.669  61.401 -56.218  1.00  0.00    -0.357 N 
HETATM   18  H   UNL     1     -41.669  61.257 -56.206  1.00  0.00     0.162 HD
HETATM   19  O   UNL     1     -44.577  60.821 -55.087  1.00  0.00    -0.274 OA
BRANCH  17  20
HETATM   20  C   UNL     1     -43.332  61.452 -57.502  1.00  0.00     0.161 C 
BRANCH  20  21
HETATM   21  C   UNL     1     -43.201  60.184 -58.314  1.00  0.00    -0.038 A 
HETATM   22  C   UNL     1     -44.348  59.387 -58.487  1.00  0.00     0.048 A 
HETATM   23  C   UNL     1     -44.253  58.252 -59.266  1.00  0.00     0.105 A 
HETATM   24  C   UNL     1     -43.075  57.883 -59.867  1.00  0.00     0.105 A 
HETATM   25  O   UNL     1     -45.268  57.390 -59.541  1.00  0.00    -0.323 OA
HETATM   26  O   UNL     1     -43.196  56.739 -60.591  1.00  0.00    -0.323 OA
HETATM   27  C   UNL     1     -41.929  58.635 -59.731  1.00  0.00     0.040 A 
HETATM   28  C   UNL     1     -44.595  56.447 -60.402  1.00  0.00     0.352 A 
HETATM   29  C   UNL     1     -42.001  59.802 -58.960  1.00  0.00     0.012 A 
ENDBRANCH  20  21
ENDBRANCH  17  20
ENDBRANCH  15  16
ENDBRANCH  12  15
BRANCH   6  30
HETATM   30  S   UNL     1     -43.108  56.557 -50.641  1.00  0.00    -0.082 SA
BRANCH  30  31
HETATM   31  C   UNL     1     -41.415  56.051 -50.212  1.00  0.00     0.185 C 
BRANCH  31  32
HETATM   32  C   UNL     1     -41.070  54.587 -50.484  1.00  0.00     0.231 C 
HETATM   33  N   UNL     1     -40.629  54.312 -51.763  1.00  0.00    -0.327 N 
HETATM   34  H   UNL     1     -40.692  55.088 -52.412  1.00  0.00     0.169 HD
HETATM   35  O   UNL     1     -41.151  53.772 -49.565  1.00  0.00    -0.272 OA
BRANCH  33  36
HETATM   36  C   UNL     1     -40.289  53.063 -52.315  1.00  0.00     0.034 A 
HETATM   37  C   UNL     1     -39.757  52.000 -51.580  1.00  0.00     0.032 A 
HETATM   38  C   UNL     1     -39.465  50.784 -52.206  1.00  0.00     0.044 A 
HETATM   39  C   UNL     1     -39.706  50.634 -53.566  1.00  0.00     0.116 A 
HETATM   40  F   UNL     1     -39.431  49.466 -54.162  1.00  0.00    -0.206 F 
HETATM   41  C   UNL     1     -40.229  51.678 -54.315  1.00  0.00     0.044 A 
HETATM   42  C   UNL     1     -40.517  52.894 -53.690  1.00  0.00     0.032 A 
ENDBRANCH  33  36
ENDBRANCH  31  32
ENDBRANCH  30  31
ENDBRANCH   6  30
TORSDOF 8
ENDMDL
MODEL 2
REMARK VINA RESULT:      -8.7      3.103      8.510
REMARK  8 active torsions:
REMARK  status: ('A' for Active; 'I' for Inactive)
REMARK    1  A    between atoms: C_6  and  S_7 
REMARK    2  A    between atoms: S_7  and  C_8 
REMARK    3  A    between atoms: C_8  and  C_9 
REMARK       I    between atoms: C_9  and  N_10 
REMARK    4  A    between atoms: N_10  and  C_11 
REMARK    5  A    between atoms: C_24  and  C_25 
REMARK    6  A    between atoms: C_25  and  C_26 
REMARK       I    between atoms: C_26  and  N_27 
REMARK    7  A    between atoms: N_27  and  C_28 
REMARK    8  A    between atoms: C_28  and  C_29 
ROOT
HETATM    1  C   UNL     1     -45.144  58.001 -50.908  1.00  0.00     0.001 A 
HETATM    2  C   UNL     1     -44.388  57.650 -52.025  1.00  0.00     0.018 A 
HETATM    3  C   UNL     1     -44.374  58.502 -53.133  1.00  0.00     0.039 A 
HETATM    4  C   UNL     1     -45.098  59.696 -53.143  1.00  0.00     0.073 A 
HETATM    5  N   UNL     1     -45.080  60.569 -54.240  1.00  0.00    -0.223 NA
HETATM    6  C   UNL     1     -44.377  60.248 -55.277  1.00  0.00     0.178 A 
HETATM    7  N   UNL     1     -43.629  59.081 -55.361  1.00  0.00    -0.241 N 
HETATM    8  C   UNL     1     -43.594  58.196 -54.332  1.00  0.00     0.147 A 
HETATM    9  N   UNL     1     -42.877  57.129 -54.482  1.00  0.00    -0.256 NA
HETATM   10  C   UNL     1     -42.857  58.559 -56.378  1.00  0.00     0.257 A 
HETATM   11  O   UNL     1     -42.711  58.956 -57.523  1.00  0.00    -0.270 OA
HETATM   12  C   UNL     1     -42.240  57.289 -55.818  1.00  0.00     0.211 A 
HETATM   13  C   UNL     1     -45.851  60.034 -52.019  1.00  0.00     0.032 A 
HETATM   14  C   UNL     1     -45.874  59.191 -50.904  1.00  0.00     0.002 A 
ENDROOT
BRANCH  12  15
HETATM   15  C   UNL     1     -42.552  56.092 -56.703  1.00  0.00     0.140 C 
BRANCH  15  16
HETATM   16  C   UNL     1     -42.583  54.807 -55.906  1.00  0.00     0.220 C 
HETATM   17  N   UNL     1     -41.453  54.626 -55.137  1.00  0.00    -0.357 N 
HETATM   18  H   UNL     1     -40.908  55.440 -54.892  1.00  0.00     0.162 HD
HETATM   19  O   UNL     1     -43.525  54.023 -55.912  1.00  0.00    -0.274 OA
BRANCH  17  20
HETATM   20  C   UNL     1     -41.309  53.441 -54.321  1.00  0.00     0.161 C 
BRANCH  20  21
HETATM   21  C   UNL     1     -41.504  53.685 -52.842  1.00  0.00    -0.038 A 
HETATM   22  C   UNL     1     -40.377  53.600 -52.003  1.00  0.00     0.048 A 
HETATM   23  C   UNL     1     -40.533  53.867 -50.658  1.00  0.00     0.105 A 
HETATM   24  C   UNL     1     -41.752  54.206 -50.124  1.00  0.00     0.105 A 
HETATM   25  O   UNL     1     -39.545  53.844 -49.724  1.00  0.00    -0.323 OA
HETATM   26  O   UNL     1     -41.689  54.432 -48.785  1.00  0.00    -0.323 OA
HETATM   27  C   UNL     1     -42.881  54.307 -50.907  1.00  0.00     0.040 A 
HETATM   28  C   UNL     1     -40.282  54.228 -48.543  1.00  0.00     0.352 A 
HETATM   29  C   UNL     1     -42.748  54.058 -52.279  1.00  0.00     0.012 A 
ENDBRANCH  20  21
ENDBRANCH  17  20
ENDBRANCH  15  16
ENDBRANCH  12  15
BRANCH   6  30
HETATM   30  S   UNL     1     -44.336  61.384 -56.602  1.00  0.00    -0.082 SA
BRANCH  30  31
HETATM   31  C   UNL     1     -45.893  60.957 -57.438  1.00  0.00     0.185 C 
BRANCH  31  32
HETATM   32  C   UNL     1     -45.768  60.023 -58.642  1.00  0.00     0.231 C 
HETATM   33  N   UNL     1     -45.797  58.674 -58.348  1.00  0.00    -0.327 N 
HETATM   34  H   UNL     1     -45.784  58.453 -57.359  1.00  0.00     0.169 HD
HETATM   35  O   UNL     1     -45.702  60.508 -59.771  1.00  0.00    -0.272 OA
BRANCH  33  36
HETATM   36  C   UNL     1     -45.655  57.590 -59.232  1.00  0.00     0.034 A 
HETATM   37  C   UNL     1     -46.727  56.890 -59.793  1.00  0.00     0.032 A 
HETATM   38  C   UNL     1     -46.495  55.833 -60.680  1.00  0.00     0.044 A 
HETATM   39  C   UNL     1     -45.192  55.479 -61.004  1.00  0.00     0.116 A 
HETATM   40  F   UNL     1     -44.973  54.471 -61.858  1.00  0.00    -0.206 F 
HETATM   41  C   UNL     1     -44.114  56.157 -60.455  1.00  0.00     0.044 A 
HETATM   42  C   UNL     1     -44.345  57.210 -59.567  1.00  0.00     0.032 A 
ENDBRANCH  33  36
ENDBRANCH  31  32
ENDBRANCH  30  31
ENDBRANCH   6  30
TORSDOF 8
ENDMDL
MODEL 3
REMARK VINA RESULT:      -8.6      3.667      8.883
REMARK  8 active torsions:
REMARK  status: ('A' for Active; 'I' for Inactive)
REMARK    1  A    between atoms: C_6  and  S_7 
REMARK    2  A    between atoms: S_7  and  C_8 
REMARK    3  A    between atoms: C_8  and  C_9 
REMARK       I    between atoms: C_9  and  N_10 
REMARK    4  A    between atoms: N_10  and  C_11 
REMARK    5  A    between atoms: C_24  and  C_25 
REMARK    6  A    between atoms: C_25  and  C_26 
REMARK       I    between atoms: C_26  and  N_27 
REMARK    7  A    between atoms: N_27  and  C_28 
REMARK    8  A    between atoms: C_28  and  C_29 
ROOT
HETATM    1  C   UNL     1     -42.806  55.828 -59.220  1.00  0.00     0.001 A 
HETATM    2  C   UNL     1     -43.163  55.895 -57.874  1.00  0.00     0.018 A 
HETATM    3  C   UNL     1     -43.566  57.120 -57.336  1.00  0.00     0.039 A 
HETATM    4  C   UNL     1     -43.621  58.276 -58.117  1.00  0.00     0.073 A 
HETATM    5  N   UNL     1     -44.039  59.508 -57.597  1.00  0.00    -0.223 NA
HETATM    6  C   UNL     1     -44.374  59.573 -56.349  1.00  0.00     0.178 A 
HETATM    7  N   UNL     1     -44.347  58.479 -55.493  1.00  0.00    -0.241 N 
HETATM    8  C   UNL     1     -43.961  57.255 -55.935  1.00  0.00     0.147 A 
HETATM    9  N   UNL     1     -43.960  56.282 -55.081  1.00  0.00    -0.256 NA
HETATM   10  C   UNL     1     -44.630  58.361 -54.149  1.00  0.00     0.257 A 
HETATM   11  O   UNL     1     -44.889  59.229 -53.331  1.00  0.00    -0.270 OA
HETATM   12  C   UNL     1     -44.483  56.884 -53.824  1.00  0.00     0.211 A 
HETATM   13  C   UNL     1     -43.259  58.195 -59.462  1.00  0.00     0.032 A 
HETATM   14  C   UNL     1     -42.854  56.976 -60.013  1.00  0.00     0.002 A 
ENDROOT
BRANCH  12  15
HETATM   15  C   UNL     1     -43.502  56.670 -52.682  1.00  0.00     0.140 C 
BRANCH  15  16
HETATM   16  C   UNL     1     -42.107  56.393 -53.195  1.00  0.00     0.220 C 
HETATM   17  N   UNL     1     -41.879  55.054 -53.433  1.00  0.00    -0.357 N 
HETATM   18  H   UNL     1     -42.678  54.456 -53.590  1.00  0.00     0.162 HD
HETATM   19  O   UNL     1     -41.273  57.265 -53.412  1.00  0.00    -0.274 OA
BRANCH  17  20
HETATM   20  C   UNL     1     -40.591  54.607 -53.915  1.00  0.00     0.161 C 
BRANCH  20  21
HETATM   21  C   UNL     1     -40.302  53.149 -53.638  1.00  0.00    -0.038 A 
HETATM   22  C   UNL     1     -40.099  52.756 -52.302  1.00  0.00     0.048 A 
HETATM   23  C   UNL     1     -39.882  51.421 -52.032  1.00  0.00     0.105 A 
HETATM   24  C   UNL     1     -39.855  50.476 -53.028  1.00  0.00     0.105 A 
HETATM   25  O   UNL     1     -39.685  50.882 -50.799  1.00  0.00    -0.323 OA
HETATM   26  O   UNL     1     -39.631  49.223 -52.550  1.00  0.00    -0.323 OA
HETATM   27  C   UNL     1     -40.053  50.812 -54.348  1.00  0.00     0.040 A 
HETATM   28  C   UNL     1     -39.552  49.484 -51.134  1.00  0.00     0.352 A 
HETATM   29  C   UNL     1     -40.293  52.159 -54.650  1.00  0.00     0.012 A 
ENDBRANCH  20  21
ENDBRANCH  17  20
ENDBRANCH  15  16
ENDBRANCH  12  15
BRANCH   6  30
HETATM   30  S   UNL     1     -44.941  61.112 -55.748  1.00  0.00    -0.082 SA
BRANCH  30  31
HETATM   31  C   UNL     1     -43.361  62.003 -55.612  1.00  0.00     0.185 C 
BRANCH  31  32
HETATM   32  C   UNL     1     -42.833  62.621 -56.906  1.00  0.00     0.231 C 
HETATM   33  N   UNL     1     -41.860  61.888 -57.556  1.00  0.00    -0.327 N 
HETATM   34  H   UNL     1     -41.522  61.080 -57.045  1.00  0.00     0.169 HD
HETATM   35  O   UNL     1     -43.324  63.674 -57.311  1.00  0.00    -0.272 OA
BRANCH  33  36
HETATM   36  C   UNL     1     -41.158  62.222 -58.728  1.00  0.00     0.034 A 
HETATM   37  C   UNL     1     -39.937  62.902 -58.743  1.00  0.00     0.032 A 
HETATM   38  C   UNL     1     -39.297  63.177 -59.957  1.00  0.00     0.044 A 
HETATM   39  C   UNL     1     -39.878  62.772 -61.150  1.00  0.00     0.116 A 
HETATM   40  F   UNL     1     -39.260  63.031 -62.310  1.00  0.00    -0.206 F 
HETATM   41  C   UNL     1     -41.091  62.100 -61.158  1.00  0.00     0.044 A 
HETATM   42  C   UNL     1     -41.733  61.828 -59.947  1.00  0.00     0.032 A 
ENDBRANCH  33  36
ENDBRANCH  31  32
ENDBRANCH  30  31
ENDBRANCH   6  30
TORSDOF 8
ENDMDL
MODEL 4
REMARK VINA RESULT:      -8.5      4.376      8.727
REMARK  8 active torsions:
REMARK  status: ('A' for Active; 'I' for Inactive)
REMARK    1  A    between atoms: C_6  and  S_7 
REMARK    2  A    between atoms: S_7  and  C_8 
REMARK    3  A    between atoms: C_8  and  C_9 
REMARK       I    between atoms: C_9  and  N_10 
REMARK    4  A    between atoms: N_10  and  C_11 
REMARK    5  A    between atoms: C_24  and  C_25 
REMARK    6  A    between atoms: C_25  and  C_26 
REMARK       I    between atoms: C_26  and  N_27 
REMARK    7  A    between atoms: N_27  and  C_28 
REMARK    8  A    between atoms: C_28  and  C_29 
ROOT
HETATM    1  C   UNL     1     -40.237  58.343 -51.031  1.00  0.00     0.001 A 
HETATM    2  C   UNL     1     -40.804  58.250 -52.301  1.00  0.00     0.018 A 
HETATM    3  C   UNL     1     -41.806  59.152 -52.667  1.00  0.00     0.039 A 
HETATM    4  C   UNL     1     -42.250  60.144 -51.791  1.00  0.00     0.073 A 
HETATM    5  N   UNL     1     -43.242  61.067 -52.150  1.00  0.00    -0.223 NA
HETATM    6  C   UNL     1     -43.767  60.985 -53.329  1.00  0.00     0.178 A 
HETATM    7  N   UNL     1     -43.395  60.030 -54.267  1.00  0.00    -0.241 N 
HETATM    8  C   UNL     1     -42.434  59.113 -53.988  1.00  0.00     0.147 A 
HETATM    9  N   UNL     1     -42.140  58.252 -54.909  1.00  0.00    -0.256 NA
HETATM   10  C   UNL     1     -43.856  59.768 -55.540  1.00  0.00     0.257 A 
HETATM   11  O   UNL     1     -44.797  60.261 -56.141  1.00  0.00    -0.270 OA
HETATM   12  C   UNL     1     -42.986  58.641 -56.070  1.00  0.00     0.211 A 
HETATM   13  C   UNL     1     -41.675  60.225 -50.523  1.00  0.00     0.032 A 
HETATM   14  C   UNL     1     -40.672  59.329 -50.143  1.00  0.00     0.002 A 
ENDROOT
BRANCH  12  15
HETATM   15  C   UNL     1     -43.834  57.465 -56.529  1.00  0.00     0.140 C 
BRANCH  15  16
HETATM   16  C   UNL     1     -43.256  56.149 -56.058  1.00  0.00     0.220 C 
HETATM   17  N   UNL     1     -43.722  55.772 -54.816  1.00  0.00    -0.357 N 
HETATM   18  H   UNL     1     -44.599  56.160 -54.499  1.00  0.00     0.162 HD
HETATM   19  O   UNL     1     -42.481  55.467 -56.720  1.00  0.00    -0.274 OA
BRANCH  17  20
HETATM   20  C   UNL     1     -43.262  54.545 -54.205  1.00  0.00     0.161 C 
BRANCH  20  21
HETATM   21  C   UNL     1     -42.744  54.715 -52.795  1.00  0.00    -0.038 A 
HETATM   22  C   UNL     1     -41.545  54.065 -52.447  1.00  0.00     0.048 A 
HETATM   23  C   UNL     1     -41.037  54.251 -51.178  1.00  0.00     0.105 A 
HETATM   24  C   UNL     1     -41.671  55.044 -50.254  1.00  0.00     0.105 A 
HETATM   25  O   UNL     1     -39.887  53.708 -50.696  1.00  0.00    -0.323 OA
HETATM   26  O   UNL     1     -41.005  55.097 -49.070  1.00  0.00    -0.323 OA
HETATM   27  C   UNL     1     -42.842  55.704 -50.550  1.00  0.00     0.040 A 
HETATM   28  C   UNL     1     -39.861  54.270 -49.366  1.00  0.00     0.352 A 
HETATM   29  C   UNL     1     -43.372  55.547 -51.838  1.00  0.00     0.012 A 
ENDBRANCH  20  21
ENDBRANCH  17  20
ENDBRANCH  15  16
ENDBRANCH  12  15
BRANCH   6  30
HETATM   30  S   UNL     1     -44.962  62.183 -53.761  1.00  0.00    -0.082 SA
BRANCH  30  31
HETATM   31  C   UNL     1     -46.461  61.392 -53.102  1.00  0.00     0.185 C 
BRANCH  31  32
HETATM   32  C   UNL     1     -46.416  61.009 -51.624  1.00  0.00     0.231 C 
HETATM   33  N   UNL     1     -46.071  62.030 -50.759  1.00  0.00    -0.327 N 
HETATM   34  H   UNL     1     -45.775  62.888 -51.210  1.00  0.00     0.169 HD
HETATM   35  O   UNL     1     -46.729  59.866 -51.291  1.00  0.00    -0.272 OA
BRANCH  33  36
HETATM   36  C   UNL     1     -45.900  61.967 -49.365  1.00  0.00     0.034 A 
HETATM   37  C   UNL     1     -44.826  61.332 -48.735  1.00  0.00     0.032 A 
HETATM   38  C   UNL     1     -44.723  61.333 -47.339  1.00  0.00     0.044 A 
HETATM   39  C   UNL     1     -45.695  61.969 -46.578  1.00  0.00     0.116 A 
HETATM   40  F   UNL     1     -45.591  61.975 -45.243  1.00  0.00    -0.206 F 
HETATM   41  C   UNL     1     -46.771  62.601 -47.183  1.00  0.00     0.044 A 
HETATM   42  C   UNL     1     -46.876  62.597 -48.576  1.00  0.00     0.032 A 
ENDBRANCH  33  36
ENDBRANCH  31  32
ENDBRANCH  30  31
ENDBRANCH   6  30
TORSDOF 8
ENDMDL
MODEL 5
REMARK VINA RESULT:      -8.4      3.207      5.892
REMARK  8 active torsions:
REMARK  status: ('A' for Active; 'I' for Inactive)
REMARK    1  A    between atoms: C_6  and  S_7 
REMARK    2  A    between atoms: S_7  and  C_8 
REMARK    3  A    between atoms: C_8  and  C_9 
REMARK       I    between atoms: C_9  and  N_10 
REMARK    4  A    between atoms: N_10  and  C_11 
REMARK    5  A    between atoms: C_24  and  C_25 
REMARK    6  A    between atoms: C_25  and  C_26 
REMARK       I    between atoms: C_26  and  N_27 
REMARK    7  A    between atoms: N_27  and  C_28 
REMARK    8  A    between atoms: C_28  and  C_29 
ROOT
HETATM    1  C   UNL     1     -39.482  49.715 -53.823  1.00  0.00     0.001 A 
HETATM    2  C   UNL     1     -39.921  50.925 -54.357  1.00  0.00     0.018 A 
HETATM    3  C   UNL     1     -40.172  51.998 -53.499  1.00  0.00     0.039 A 
HETATM    4  C   UNL     1     -39.991  51.885 -52.119  1.00  0.00     0.073 A 
HETATM    5  N   UNL     1     -40.222  52.957 -51.246  1.00  0.00    -0.223 NA
HETATM    6  C   UNL     1     -40.626  54.082 -51.740  1.00  0.00     0.178 A 
HETATM    7  N   UNL     1     -40.838  54.289 -53.097  1.00  0.00    -0.241 N 
HETATM    8  C   UNL     1     -40.625  53.296 -53.997  1.00  0.00     0.147 A 
HETATM    9  N   UNL     1     -40.845  53.560 -55.245  1.00  0.00    -0.256 NA
HETATM   10  C   UNL     1     -41.292  55.388 -53.796  1.00  0.00     0.257 A 
HETATM   11  O   UNL     1     -41.723  56.450 -53.377  1.00  0.00    -0.270 OA
HETATM   12  C   UNL     1     -41.230  54.998 -55.263  1.00  0.00     0.211 A 
HETATM   13  C   UNL     1     -39.553  50.668 -51.597  1.00  0.00     0.032 A 
HETATM   14  C   UNL     1     -39.299  49.586 -52.445  1.00  0.00     0.002 A 
ENDROOT
BRANCH  12  15
HETATM   15  C   UNL     1     -42.581  55.180 -55.936  1.00  0.00     0.140 C 
BRANCH  15  16
HETATM   16  C   UNL     1     -42.659  56.497 -56.675  1.00  0.00     0.220 C 
HETATM   17  N   UNL     1     -42.385  56.374 -58.021  1.00  0.00    -0.357 N 
HETATM   18  H   UNL     1     -42.505  55.467 -58.450  1.00  0.00     0.162 HD
HETATM   19  O   UNL     1     -42.965  57.560 -56.147  1.00  0.00    -0.274 OA
BRANCH  17  20
HETATM   20  C   UNL     1     -42.401  57.537 -58.878  1.00  0.00     0.161 C 
BRANCH  20  21
HETATM   21  C   UNL     1     -43.742  57.812 -59.519  1.00  0.00    -0.038 A 
HETATM   22  C   UNL     1     -44.524  56.712 -59.917  1.00  0.00     0.048 A 
HETATM   23  C   UNL     1     -45.770  56.948 -60.459  1.00  0.00     0.105 A 
HETATM   24  C   UNL     1     -46.259  58.221 -60.622  1.00  0.00     0.105 A 
HETATM   25  O   UNL     1     -46.649  55.997 -60.876  1.00  0.00    -0.323 OA
HETATM   26  O   UNL     1     -47.504  58.234 -61.169  1.00  0.00    -0.323 OA
HETATM   27  C   UNL     1     -45.533  59.328 -60.243  1.00  0.00     0.040 A 
HETATM   28  C   UNL     1     -47.755  56.820 -61.301  1.00  0.00     0.352 A 
HETATM   29  C   UNL     1     -44.271  59.117 -59.674  1.00  0.00     0.012 A 
ENDBRANCH  20  21
ENDBRANCH  17  20
ENDBRANCH  15  16
ENDBRANCH  12  15
BRANCH   6  30
HETATM   30  S   UNL     1     -40.853  55.411 -50.629  1.00  0.00    -0.082 SA
BRANCH  30  31
HETATM   31  C   UNL     1     -42.593  55.151 -50.170  1.00  0.00     0.185 C 
BRANCH  31  32
HETATM   32  C   UNL     1     -43.566  56.248 -50.600  1.00  0.00     0.231 C 
HETATM   33  N   UNL     1     -42.980  57.422 -51.029  1.00  0.00    -0.327 N 
HETATM   34  H   UNL     1     -41.975  57.468 -50.903  1.00  0.00     0.169 HD
HETATM   35  O   UNL     1     -44.774  56.013 -50.591  1.00  0.00    -0.272 OA
BRANCH  33  36
HETATM   36  C   UNL     1     -43.612  58.611 -51.435  1.00  0.00     0.034 A 
HETATM   37  C   UNL     1     -43.391  59.857 -50.842  1.00  0.00     0.032 A 
HETATM   38  C   UNL     1     -44.050  60.995 -51.322  1.00  0.00     0.044 A 
HETATM   39  C   UNL     1     -44.926  60.884 -52.392  1.00  0.00     0.116 A 
HETATM   40  F   UNL     1     -45.550  61.975 -52.854  1.00  0.00    -0.206 F 
HETATM   41  C   UNL     1     -45.163  59.655 -52.992  1.00  0.00     0.044 A 
HETATM   42  C   UNL     1     -44.509  58.519 -52.511  1.00  0.00     0.032 A 
ENDBRANCH  33  36
ENDBRANCH  31  32
ENDBRANCH  30  31
ENDBRANCH   6  30
TORSDOF 8
ENDMDL
MODEL 6
REMARK VINA RESULT:      -8.4      3.182      6.488
REMARK  8 active torsions:
REMARK  status: ('A' for Active; 'I' for Inactive)
REMARK    1  A    between atoms: C_6  and  S_7 
REMARK    2  A    between atoms: S_7  and  C_8 
REMARK    3  A    between atoms: C_8  and  C_9 
REMARK       I    between atoms: C_9  and  N_10 
REMARK    4  A    between atoms: N_10  and  C_11 
REMARK    5  A    between atoms: C_24  and  C_25 
REMARK    6  A    between atoms: C_25  and  C_26 
REMARK       I    between atoms: C_26  and  N_27 
REMARK    7  A    between atoms: N_27  and  C_28 
REMARK    8  A    between atoms: C_28  and  C_29 
ROOT
HETATM    1  C   UNL     1     -39.599  50.110 -53.413  1.00  0.00     0.001 A 
HETATM    2  C   UNL     1     -40.088  51.199 -54.133  1.00  0.00     0.018 A 
HETATM    3  C   UNL     1     -40.401  52.379 -53.455  1.00  0.00     0.039 A 
HETATM    4  C   UNL     1     -40.231  52.493 -52.073  1.00  0.00     0.073 A 
HETATM    5  N   UNL     1     -40.524  53.676 -51.381  1.00  0.00    -0.223 NA
HETATM    6  C   UNL     1     -40.975  54.689 -52.047  1.00  0.00     0.178 A 
HETATM    7  N   UNL     1     -41.180  54.670 -53.421  1.00  0.00    -0.241 N 
HETATM    8  C   UNL     1     -40.908  53.560 -54.153  1.00  0.00     0.147 A 
HETATM    9  N   UNL     1     -41.126  53.614 -55.428  1.00  0.00    -0.256 NA
HETATM   10  C   UNL     1     -41.677  55.622 -54.286  1.00  0.00     0.257 A 
HETATM   11  O   UNL     1     -42.162  56.714 -54.041  1.00  0.00    -0.270 OA
HETATM   12  C   UNL     1     -41.578  55.011 -55.674  1.00  0.00     0.211 A 
HETATM   13  C   UNL     1     -39.743  51.395 -51.365  1.00  0.00     0.032 A 
HETATM   14  C   UNL     1     -39.427  50.208 -52.031  1.00  0.00     0.002 A 
ENDROOT
BRANCH  12  15
HETATM   15  C   UNL     1     -42.928  55.019 -56.373  1.00  0.00     0.140 C 
BRANCH  15  16
HETATM   16  C   UNL     1     -42.951  56.003 -57.521  1.00  0.00     0.220 C 
HETATM   17  N   UNL     1     -42.147  57.101 -57.302  1.00  0.00    -0.357 N 
HETATM   18  H   UNL     1     -41.391  57.013 -56.637  1.00  0.00     0.162 HD
HETATM   19  O   UNL     1     -43.588  55.832 -58.554  1.00  0.00    -0.274 OA
BRANCH  17  20
HETATM   20  C   UNL     1     -42.060  58.151 -58.293  1.00  0.00     0.161 C 
BRANCH  20  21
HETATM   21  C   UNL     1     -42.278  59.541 -57.739  1.00  0.00    -0.038 A 
HETATM   22  C   UNL     1     -41.989  60.638 -58.572  1.00  0.00     0.048 A 
HETATM   23  C   UNL     1     -42.229  61.910 -58.095  1.00  0.00     0.105 A 
HETATM   24  C   UNL     1     -42.734  62.128 -56.836  1.00  0.00     0.105 A 
HETATM   25  O   UNL     1     -42.019  63.067 -58.778  1.00  0.00    -0.323 OA
HETATM   26  O   UNL     1     -42.899  63.450 -56.564  1.00  0.00    -0.323 OA
HETATM   27  C   UNL     1     -43.036  61.086 -55.989  1.00  0.00     0.040 A 
HETATM   28  C   UNL     1     -42.471  64.037 -57.809  1.00  0.00     0.352 A 
HETATM   29  C   UNL     1     -42.819  59.782 -56.453  1.00  0.00     0.012 A 
ENDBRANCH  20  21
ENDBRANCH  17  20
ENDBRANCH  15  16
ENDBRANCH  12  15
BRANCH   6  30
HETATM   30  S   UNL     1     -41.278  56.163 -51.161  1.00  0.00    -0.082 SA
BRANCH  30  31
HETATM   31  C   UNL     1     -43.012  55.897 -50.682  1.00  0.00     0.185 C 
BRANCH  31  32
HETATM   32  C   UNL     1     -43.973  57.041 -51.003  1.00  0.00     0.231 C 
HETATM   33  N   UNL     1     -43.449  58.052 -51.783  1.00  0.00    -0.327 N 
HETATM   34  H   UNL     1     -42.453  57.981 -51.961  1.00  0.00     0.169 HD
HETATM   35  O   UNL     1     -45.137  56.975 -50.606  1.00  0.00    -0.272 OA
BRANCH  33  36
HETATM   36  C   UNL     1     -44.071  59.245 -52.195  1.00  0.00     0.034 A 
HETATM   37  C   UNL     1     -45.063  59.311 -53.177  1.00  0.00     0.032 A 
HETATM   38  C   UNL     1     -45.644  60.539 -53.512  1.00  0.00     0.044 A 
HETATM   39  C   UNL     1     -45.232  61.696 -52.865  1.00  0.00     0.116 A 
HETATM   40  F   UNL     1     -45.794  62.869 -53.183  1.00  0.00    -0.206 F 
HETATM   41  C   UNL     1     -44.245  61.652 -51.891  1.00  0.00     0.044 A 
HETATM   42  C   UNL     1     -43.663  60.427 -51.558  1.00  0.00     0.032 A 
ENDBRANCH  33  36
ENDBRANCH  31  32
ENDBRANCH  30  31
ENDBRANCH   6  30
TORSDOF 8
ENDMDL
MODEL 7
REMARK VINA RESULT:      -8.2      3.243      6.111
REMARK  8 active torsions:
REMARK  status: ('A' for Active; 'I' for Inactive)
REMARK    1  A    between atoms: C_6  and  S_7 
REMARK    2  A    between atoms: S_7  and  C_8 
REMARK    3  A    between atoms: C_8  and  C_9 
REMARK       I    between atoms: C_9  and  N_10 
REMARK    4  A    between atoms: N_10  and  C_11 
REMARK    5  A    between atoms: C_24  and  C_25 
REMARK    6  A    between atoms: C_25  and  C_26 
REMARK       I    between atoms: C_26  and  N_27 
REMARK    7  A    between atoms: N_27  and  C_28 
REMARK    8  A    between atoms: C_28  and  C_29 
ROOT
HETATM    1  C   UNL     1     -39.507  49.845 -53.350  1.00  0.00     0.001 A 
HETATM    2  C   UNL     1     -39.919  51.007 -54.001  1.00  0.00     0.018 A 
HETATM    3  C   UNL     1     -40.237  52.137 -53.244  1.00  0.00     0.039 A 
HETATM    4  C   UNL     1     -40.147  52.129 -51.850  1.00  0.00     0.073 A 
HETATM    5  N   UNL     1     -40.445  53.260 -51.077  1.00  0.00    -0.223 NA
HETATM    6  C   UNL     1     -40.825  54.340 -51.680  1.00  0.00     0.178 A 
HETATM    7  N   UNL     1     -40.948  54.442 -53.060  1.00  0.00    -0.241 N 
HETATM    8  C   UNL     1     -40.666  53.388 -53.867  1.00  0.00     0.147 A 
HETATM    9  N   UNL     1     -40.805  53.556 -55.143  1.00  0.00    -0.256 NA
HETATM   10  C   UNL     1     -41.363  55.480 -53.867  1.00  0.00     0.257 A 
HETATM   11  O   UNL     1     -41.830  56.565 -53.558  1.00  0.00    -0.270 OA
HETATM   12  C   UNL     1     -41.200  54.984 -55.294  1.00  0.00     0.211 A 
HETATM   13  C   UNL     1     -39.735  50.960 -51.211  1.00  0.00     0.032 A 
HETATM   14  C   UNL     1     -39.415  49.822 -51.957  1.00  0.00     0.002 A 
ENDROOT
BRANCH  12  15
HETATM   15  C   UNL     1     -42.505  55.097 -56.066  1.00  0.00     0.140 C 
BRANCH  15  16
HETATM   16  C   UNL     1     -42.936  56.539 -56.215  1.00  0.00     0.220 C 
HETATM   17  N   UNL     1     -41.920  57.360 -56.656  1.00  0.00    -0.357 N 
HETATM   18  H   UNL     1     -41.148  56.937 -57.152  1.00  0.00     0.162 HD
HETATM   19  O   UNL     1     -44.076  56.936 -56.003  1.00  0.00    -0.274 OA
BRANCH  17  20
HETATM   20  C   UNL     1     -42.153  58.774 -56.841  1.00  0.00     0.161 C 
BRANCH  20  21
HETATM   21  C   UNL     1     -42.116  59.221 -58.285  1.00  0.00    -0.038 A 
HETATM   22  C   UNL     1     -42.070  60.602 -58.550  1.00  0.00     0.048 A 
HETATM   23  C   UNL     1     -41.988  61.021 -59.862  1.00  0.00     0.105 A 
HETATM   24  C   UNL     1     -41.955  60.129 -60.906  1.00  0.00     0.105 A 
HETATM   25  O   UNL     1     -41.920  62.313 -60.281  1.00  0.00    -0.323 OA
HETATM   26  O   UNL     1     -41.869  60.745 -62.115  1.00  0.00    -0.323 OA
HETATM   27  C   UNL     1     -41.992  58.769 -60.695  1.00  0.00     0.040 A 
HETATM   28  C   UNL     1     -41.819  62.128 -61.709  1.00  0.00     0.352 A 
HETATM   29  C   UNL     1     -42.058  58.315 -59.372  1.00  0.00     0.012 A 
ENDBRANCH  20  21
ENDBRANCH  17  20
ENDBRANCH  15  16
ENDBRANCH  12  15
BRANCH   6  30
HETATM   30  S   UNL     1     -41.137  55.744 -50.689  1.00  0.00    -0.082 SA
BRANCH  30  31
HETATM   31  C   UNL     1     -42.939  55.605 -50.496  1.00  0.00     0.185 C 
BRANCH  31  32
HETATM   32  C   UNL     1     -43.738  56.877 -50.778  1.00  0.00     0.231 C 
HETATM   33  N   UNL     1     -42.994  57.961 -51.198  1.00  0.00    -0.327 N 
HETATM   34  H   UNL     1     -41.990  57.828 -51.164  1.00  0.00     0.169 HD
HETATM   35  O   UNL     1     -44.964  56.850 -50.668  1.00  0.00    -0.272 OA
BRANCH  33  36
HETATM   36  C   UNL     1     -43.441  59.265 -51.482  1.00  0.00     0.034 A 
HETATM   37  C   UNL     1     -43.346  60.337 -50.590  1.00  0.00     0.032 A 
HETATM   38  C   UNL     1     -43.798  61.607 -50.962  1.00  0.00     0.044 A 
HETATM   39  C   UNL     1     -44.345  61.802 -52.223  1.00  0.00     0.116 A 
HETATM   40  F   UNL     1     -44.772  63.021 -52.579  1.00  0.00    -0.206 F 
HETATM   41  C   UNL     1     -44.453  60.751 -53.121  1.00  0.00     0.044 A 
HETATM   42  C   UNL     1     -44.004  59.481 -52.749  1.00  0.00     0.032 A 
ENDBRANCH  33  36
ENDBRANCH  31  32
ENDBRANCH  30  31
ENDBRANCH   6  30
TORSDOF 8
ENDMDL
MODEL 8
REMARK VINA RESULT:      -8.0      4.590      7.417
REMARK  8 active torsions:
REMARK  status: ('A' for Active; 'I' for Inactive)
REMARK    1  A    between atoms: C_6  and  S_7 
REMARK    2  A    between atoms: S_7  and  C_8 
REMARK    3  A    between atoms: C_8  and  C_9 
REMARK       I    between atoms: C_9  and  N_10 
REMARK    4  A    between atoms: N_10  and  C_11 
REMARK    5  A    between atoms: C_24  and  C_25 
REMARK    6  A    between atoms: C_25  and  C_26 
REMARK       I    between atoms: C_26  and  N_27 
REMARK    7  A    between atoms: N_27  and  C_28 
REMARK    8  A    between atoms: C_28  and  C_29 
ROOT
HETATM    1  C   UNL     1     -40.616  52.806 -50.476  1.00  0.00     0.001 A 
HETATM    2  C   UNL     1     -40.927  53.441 -51.677  1.00  0.00     0.018 A 
HETATM    3  C   UNL     1     -41.095  54.828 -51.692  1.00  0.00     0.039 A 
HETATM    4  C   UNL     1     -40.956  55.591 -50.531  1.00  0.00     0.073 A 
HETATM    5  N   UNL     1     -41.104  56.985 -50.533  1.00  0.00    -0.223 NA
HETATM    6  C   UNL     1     -41.389  57.577 -51.647  1.00  0.00     0.178 A 
HETATM    7  N   UNL     1     -41.551  56.902 -52.850  1.00  0.00    -0.241 N 
HETATM    8  C   UNL     1     -41.412  55.554 -52.921  1.00  0.00     0.147 A 
HETATM    9  N   UNL     1     -41.579  54.994 -54.076  1.00  0.00    -0.256 NA
HETATM   10  C   UNL     1     -41.884  57.349 -54.112  1.00  0.00     0.257 A 
HETATM   11  O   UNL     1     -42.221  58.463 -54.477  1.00  0.00    -0.270 OA
HETATM   12  C   UNL     1     -41.826  56.125 -55.011  1.00  0.00     0.211 A 
HETATM   13  C   UNL     1     -40.646  54.943 -49.335  1.00  0.00     0.032 A 
HETATM   14  C   UNL     1     -40.476  53.556 -49.306  1.00  0.00     0.002 A 
ENDROOT
BRANCH  12  15
HETATM   15  C   UNL     1     -43.139  55.928 -55.752  1.00  0.00     0.140 C 
BRANCH  15  16
HETATM   16  C   UNL     1     -43.008  56.285 -57.215  1.00  0.00     0.220 C 
HETATM   17  N   UNL     1     -43.786  55.492 -58.032  1.00  0.00    -0.357 N 
HETATM   18  H   UNL     1     -44.585  55.027 -57.624  1.00  0.00     0.162 HD
HETATM   19  O   UNL     1     -42.312  57.203 -57.635  1.00  0.00    -0.274 OA
BRANCH  17  20
HETATM   20  C   UNL     1     -43.773  55.687 -59.465  1.00  0.00     0.161 C 
BRANCH  20  21
HETATM   21  C   UNL     1     -44.938  56.497 -59.988  1.00  0.00    -0.038 A 
HETATM   22  C   UNL     1     -45.858  55.859 -60.841  1.00  0.00     0.048 A 
HETATM   23  C   UNL     1     -46.951  56.573 -61.286  1.00  0.00     0.105 A 
HETATM   24  C   UNL     1     -47.158  57.881 -60.923  1.00  0.00     0.105 A 
HETATM   25  O   UNL     1     -47.932  56.098 -62.099  1.00  0.00    -0.323 OA
HETATM   26  O   UNL     1     -48.292  58.398 -61.465  1.00  0.00    -0.323 OA
HETATM   27  C   UNL     1     -46.289  58.544 -60.086  1.00  0.00     0.040 A 
HETATM   28  C   UNL     1     -48.792  57.254 -62.187  1.00  0.00     0.352 A 
HETATM   29  C   UNL     1     -45.179  57.838 -59.605  1.00  0.00     0.012 A 
ENDBRANCH  20  21
ENDBRANCH  17  20
ENDBRANCH  15  16
ENDBRANCH  12  15
BRANCH   6  30
HETATM   30  S   UNL     1     -41.514  59.319 -51.622  1.00  0.00    -0.082 SA
BRANCH  30  31
HETATM   31  C   UNL     1     -43.276  59.508 -51.216  1.00  0.00     0.185 C 
BRANCH  31  32
HETATM   32  C   UNL     1     -43.615  60.618 -50.223  1.00  0.00     0.231 C 
HETATM   33  N   UNL     1     -44.652  60.338 -49.355  1.00  0.00    -0.327 N 
HETATM   34  H   UNL     1     -45.148  59.475 -49.548  1.00  0.00     0.169 HD
HETATM   35  O   UNL     1     -42.934  61.643 -50.216  1.00  0.00    -0.272 OA
BRANCH  33  36
HETATM   36  C   UNL     1     -45.215  61.175 -48.375  1.00  0.00     0.034 A 
HETATM   37  C   UNL     1     -44.802  61.206 -47.040  1.00  0.00     0.032 A 
HETATM   38  C   UNL     1     -45.405  62.086 -46.134  1.00  0.00     0.044 A 
HETATM   39  C   UNL     1     -46.418  62.931 -46.565  1.00  0.00     0.116 A 
HETATM   40  F   UNL     1     -46.990  63.776 -45.697  1.00  0.00    -0.206 F 
HETATM   41  C   UNL     1     -46.846  62.913 -47.884  1.00  0.00     0.044 A 
HETATM   42  C   UNL     1     -46.247  62.032 -48.788  1.00  0.00     0.032 A 
ENDBRANCH  33  36
ENDBRANCH  31  32
ENDBRANCH  30  31
ENDBRANCH   6  30
TORSDOF 8
ENDMDL
MODEL 9
REMARK VINA RESULT:      -8.0      3.128      6.453
REMARK  8 active torsions:
REMARK  status: ('A' for Active; 'I' for Inactive)
REMARK    1  A    between atoms: C_6  and  S_7 
REMARK    2  A    between atoms: S_7  and  C_8 
REMARK    3  A    between atoms: C_8  and  C_9 
REMARK       I    between atoms: C_9  and  N_10 
REMARK    4  A    between atoms: N_10  and  C_11 
REMARK    5  A    between atoms: C_24  and  C_25 
REMARK    6  A    between atoms: C_25  and  C_26 
REMARK       I    between atoms: C_26  and  N_27 
REMARK    7  A    between atoms: N_27  and  C_28 
REMARK    8  A    between atoms: C_28  and  C_29 
ROOT
HETATM    1  C   UNL     1     -39.410  51.436 -53.430  1.00  0.00     0.001 A 
HETATM    2  C   UNL     1     -40.027  52.393 -54.235  1.00  0.00     0.018 A 
HETATM    3  C   UNL     1     -40.744  53.429 -53.633  1.00  0.00     0.039 A 
HETATM    4  C   UNL     1     -40.855  53.529 -52.245  1.00  0.00     0.073 A 
HETATM    5  N   UNL     1     -41.557  54.573 -51.626  1.00  0.00    -0.223 NA
HETATM    6  C   UNL     1     -42.127  55.463 -52.370  1.00  0.00     0.178 A 
HETATM    7  N   UNL     1     -42.076  55.446 -53.758  1.00  0.00    -0.241 N 
HETATM    8  C   UNL     1     -41.406  54.469 -54.421  1.00  0.00     0.147 A 
HETATM    9  N   UNL     1     -41.403  54.515 -55.715  1.00  0.00    -0.256 NA
HETATM   10  C   UNL     1     -42.640  56.274 -54.706  1.00  0.00     0.257 A 
HETATM   11  O   UNL     1     -43.424  57.198 -54.561  1.00  0.00    -0.270 OA
HETATM   12  C   UNL     1     -42.147  55.761 -56.048  1.00  0.00     0.211 A 
HETATM   13  C   UNL     1     -40.235  52.564 -51.451  1.00  0.00     0.032 A 
HETATM   14  C   UNL     1     -39.514  51.521 -52.041  1.00  0.00     0.002 A 
ENDROOT
BRANCH  12  15
HETATM   15  C   UNL     1     -43.309  55.455 -56.978  1.00  0.00     0.140 C 
BRANCH  15  16
HETATM   16  C   UNL     1     -43.258  56.305 -58.228  1.00  0.00     0.220 C 
HETATM   17  N   UNL     1     -43.839  57.544 -58.059  1.00  0.00    -0.357 N 
HETATM   18  H   UNL     1     -43.919  57.908 -57.119  1.00  0.00     0.162 HD
HETATM   19  O   UNL     1     -42.726  55.950 -59.274  1.00  0.00    -0.274 OA
BRANCH  17  20
HETATM   20  C   UNL     1     -43.891  58.482 -59.157  1.00  0.00     0.161 C 
BRANCH  20  21
HETATM   21  C   UNL     1     -43.112  59.756 -58.916  1.00  0.00    -0.038 A 
HETATM   22  C   UNL     1     -43.647  60.961 -59.409  1.00  0.00     0.048 A 
HETATM   23  C   UNL     1     -42.970  62.136 -59.154  1.00  0.00     0.105 A 
HETATM   24  C   UNL     1     -41.796  62.156 -58.442  1.00  0.00     0.105 A 
HETATM   25  O   UNL     1     -43.361  63.379 -59.546  1.00  0.00    -0.323 OA
HETATM   26  O   UNL     1     -41.295  63.411 -58.300  1.00  0.00    -0.323 OA
HETATM   27  C   UNL     1     -41.239  61.003 -57.936  1.00  0.00     0.040 A 
HETATM   28  C   UNL     1     -42.306  64.184 -58.978  1.00  0.00     0.352 A 
HETATM   29  C   UNL     1     -41.914  59.797 -58.165  1.00  0.00     0.012 A 
ENDBRANCH  20  21
ENDBRANCH  17  20
ENDBRANCH  15  16
ENDBRANCH  12  15
BRANCH   6  30
HETATM   30  S   UNL     1     -42.948  56.778 -51.564  1.00  0.00    -0.082 SA
BRANCH  30  31
HETATM   31  C   UNL     1     -41.589  57.982 -51.453  1.00  0.00     0.185 C 
BRANCH  31  32
HETATM   32  C   UNL     1     -41.632  59.128 -52.463  1.00  0.00     0.231 C 
HETATM   33  N   UNL     1     -42.878  59.685 -52.672  1.00  0.00    -0.327 N 
HETATM   34  H   UNL     1     -43.644  59.198 -52.220  1.00  0.00     0.169 HD
HETATM   35  O   UNL     1     -40.581  59.512 -52.977  1.00  0.00    -0.272 OA
BRANCH  33  36
HETATM   36  C   UNL     1     -43.233  60.709 -53.569  1.00  0.00     0.034 A 
HETATM   37  C   UNL     1     -42.959  62.063 -53.359  1.00  0.00     0.032 A 
HETATM   38  C   UNL     1     -43.331  63.016 -54.314  1.00  0.00     0.044 A 
HETATM   39  C   UNL     1     -43.975  62.611 -55.475  1.00  0.00     0.116 A 
HETATM   40  F   UNL     1     -44.325  63.524 -56.391  1.00  0.00    -0.206 F 
HETATM   41  C   UNL     1     -44.261  61.273 -55.701  1.00  0.00     0.044 A 
HETATM   42  C   UNL     1     -43.892  60.322 -54.745  1.00  0.00     0.032 A 
ENDBRANCH  33  36
ENDBRANCH  31  32
ENDBRANCH  30  31
ENDBRANCH   6  30
TORSDOF 8
ENDMDL
MODEL 10
REMARK VINA RESULT:      -8.0      3.551      8.870
REMARK  8 active torsions:
REMARK  status: ('A' for Active; 'I' for Inactive)
REMARK    1  A    between atoms: C_6  and  S_7 
REMARK    2  A    between atoms: S_7  and  C_8 
REMARK    3  A    between atoms: C_8  and  C_9 
REMARK       I    between atoms: C_9  and  N_10 
REMARK    4  A    between atoms: N_10  and  C_11 
REMARK    5  A    between atoms: C_24  and  C_25 
REMARK    6  A    between atoms: C_25  and  C_26 
REMARK       I    between atoms: C_26  and  N_27 
REMARK    7  A    between atoms: N_27  and  C_28 
REMARK    8  A    between atoms: C_28  and  C_29 
ROOT
HETATM    1  C   UNL     1     -40.578  58.312 -50.709  1.00  0.00     0.001 A 
HETATM    2  C   UNL     1     -41.015  58.165 -52.025  1.00  0.00     0.018 A 
HETATM    3  C   UNL     1     -41.888  59.115 -52.563  1.00  0.00     0.039 A 
HETATM    4  C   UNL     1     -42.328  60.207 -51.813  1.00  0.00     0.073 A 
HETATM    5  N   UNL     1     -43.190  61.177 -52.344  1.00  0.00    -0.223 NA
HETATM    6  C   UNL     1     -43.595  61.045 -53.565  1.00  0.00     0.178 A 
HETATM    7  N   UNL     1     -43.214  59.991 -54.387  1.00  0.00    -0.241 N 
HETATM    8  C   UNL     1     -42.375  59.023 -53.938  1.00  0.00     0.147 A 
HETATM    9  N   UNL     1     -42.066  58.070 -54.759  1.00  0.00    -0.256 NA
HETATM   10  C   UNL     1     -43.562  59.667 -55.681  1.00  0.00     0.257 A 
HETATM   11  O   UNL     1     -44.387  60.187 -56.416  1.00  0.00    -0.270 OA
HETATM   12  C   UNL     1     -42.748  58.433 -56.031  1.00  0.00     0.211 A 
HETATM   13  C   UNL     1     -41.884  60.341 -50.498  1.00  0.00     0.032 A 
HETATM   14  C   UNL     1     -41.012  59.398 -49.947  1.00  0.00     0.002 A 
ENDROOT
BRANCH  12  15
HETATM   15  C   UNL     1     -43.647  57.299 -56.497  1.00  0.00     0.140 C 
BRANCH  15  16
HETATM   16  C   UNL     1     -43.145  55.959 -56.006  1.00  0.00     0.220 C 
HETATM   17  N   UNL     1     -43.660  55.611 -54.776  1.00  0.00    -0.357 N 
HETATM   18  H   UNL     1     -44.526  56.042 -54.483  1.00  0.00     0.162 HD
HETATM   19  O   UNL     1     -42.388  55.237 -56.645  1.00  0.00    -0.274 OA
BRANCH  17  20
HETATM   20  C   UNL     1     -43.276  54.366 -54.149  1.00  0.00     0.161 C 
BRANCH  20  21
HETATM   21  C   UNL     1     -42.759  54.521 -52.737  1.00  0.00    -0.038 A 
HETATM   22  C   UNL     1     -41.486  54.001 -52.438  1.00  0.00     0.048 A 
HETATM   23  C   UNL     1     -40.982  54.178 -51.166  1.00  0.00     0.105 A 
HETATM   24  C   UNL     1     -41.689  54.840 -50.193  1.00  0.00     0.105 A 
HETATM   25  O   UNL     1     -39.768  53.750 -50.725  1.00  0.00    -0.323 OA
HETATM   26  O   UNL     1     -41.014  54.908 -49.015  1.00  0.00    -0.323 OA
HETATM   27  C   UNL     1     -42.935  55.371 -50.440  1.00  0.00     0.040 A 
HETATM   28  C   UNL     1     -39.786  54.240 -49.368  1.00  0.00     0.352 A 
HETATM   29  C   UNL     1     -43.464  55.221 -51.729  1.00  0.00     0.012 A 
ENDBRANCH  20  21
ENDBRANCH  17  20
ENDBRANCH  15  16
ENDBRANCH  12  15
BRANCH   6  30
HETATM   30  S   UNL     1     -44.624  62.300 -54.211  1.00  0.00    -0.082 SA
BRANCH  30  31
HETATM   31  C   UNL     1     -43.366  63.476 -54.794  1.00  0.00     0.185 C 
BRANCH  31  32
HETATM   32  C   UNL     1     -43.136  63.509 -56.305  1.00  0.00     0.231 C 
HETATM   33  N   UNL     1     -42.270  62.550 -56.791  1.00  0.00    -0.327 N 
HETATM   34  H   UNL     1     -41.795  62.004 -56.081  1.00  0.00     0.169 HD
HETATM   35  O   UNL     1     -43.754  64.327 -56.987  1.00  0.00    -0.272 OA
BRANCH  33  36
HETATM   36  C   UNL     1     -41.831  62.367 -58.115  1.00  0.00     0.034 A 
HETATM   37  C   UNL     1     -42.556  61.679 -59.093  1.00  0.00     0.032 A 
HETATM   38  C   UNL     1     -42.052  61.560 -60.393  1.00  0.00     0.044 A 
HETATM   39  C   UNL     1     -40.827  62.129 -60.712  1.00  0.00     0.116 A 
HETATM   40  F   UNL     1     -40.350  62.020 -61.958  1.00  0.00    -0.206 F 
HETATM   41  C   UNL     1     -40.090  62.812 -59.755  1.00  0.00     0.044 A 
HETATM   42  C   UNL     1     -40.591  62.928 -58.456  1.00  0.00     0.032 A 
ENDBRANCH  33  36
ENDBRANCH  31  32
ENDBRANCH  30  31
ENDBRANCH   6  30
TORSDOF 8
ENDMDL
