MODEL 1
REMARK VINA RESULT:      -9.0      0.000      0.000
REMARK  6 active torsions:
REMARK  status: ('A' for Active; 'I' for Inactive)
REMARK    1  A    between atoms: O_2  and  C_3 
REMARK    2  A    between atoms: C_6  and  C_7 
REMARK    3  A    between atoms: C_12  and  C_13 
REMARK       I    between atoms: C_13  and  N_14 
REMARK    4  A    between atoms: N_14  and  C_15 
REMARK    5  A    between atoms: C_17  and  O_18 
REMARK    6  A    between atoms: C_24  and  C_25 
ROOT
HETATM    1  C   UNL     1     -43.146  58.548 -59.103  1.00  0.00     0.118 C 
HETATM    2  N   UNL     1     -43.345  58.347 -57.669  1.00  0.00    -0.366 N 
HETATM    3  C   UNL     1     -43.187  57.147 -57.075  1.00  0.00     0.123 A 
HETATM    4  N   UNL     1     -43.047  56.006 -57.811  1.00  0.00    -0.240 N 
HETATM    5  N   UNL     1     -42.751  54.915 -57.082  1.00  0.00    -0.165 NA
HETATM    6  C   UNL     1     -42.800  55.372 -55.807  1.00  0.00     0.148 A 
HETATM    7  C   UNL     1     -43.103  56.762 -55.765  1.00  0.00     0.089 A 
HETATM    8  C   UNL     1     -43.055  55.996 -59.260  1.00  0.00     0.221 C 
HETATM    9  C   UNL     1     -42.477  57.325 -59.769  1.00  0.00     0.066 C 
HETATM   10  H   UNL     1     -43.457  59.200 -57.120  1.00  0.00     0.161 HD
ENDROOT
BRANCH   6  11
HETATM   11  C   UNL     1     -42.512  54.505 -54.649  1.00  0.00     0.276 C 
HETATM   12  N   UNL     1     -41.375  53.747 -54.846  1.00  0.00    -0.322 N 
HETATM   13  H   UNL     1     -40.951  53.887 -55.760  1.00  0.00     0.169 HD
HETATM   14  O   UNL     1     -43.223  54.516 -53.650  1.00  0.00    -0.266 OA
BRANCH  12  15
HETATM   15  C   UNL     1     -40.744  52.870 -53.948  1.00  0.00     0.037 A 
HETATM   16  C   UNL     1     -40.384  51.558 -54.267  1.00  0.00     0.066 A 
HETATM   17  C   UNL     1     -39.778  50.752 -53.304  1.00  0.00     0.067 A 
HETATM   18  C   UNL     1     -39.520  51.232 -52.027  1.00  0.00     0.036 A 
HETATM   19  C   UNL     1     -39.875  52.538 -51.701  1.00  0.00     0.005 A 
HETATM   20  C   UNL     1     -40.484  53.354 -52.658  1.00  0.00     0.029 A 
BRANCH  17  21
HETATM   21  O   UNL     1     -39.418  49.466 -53.584  1.00  0.00    -0.361 OA
HETATM   22  H   UNL     1     -38.588  49.271 -53.115  1.00  0.00     0.217 HD
ENDBRANCH  17  21
ENDBRANCH  12  15
ENDBRANCH   6  11
BRANCH   8  23
HETATM   23  C   UNL     1     -44.452  55.731 -59.772  1.00  0.00     0.409 C 
HETATM   24  F   UNL     1     -44.784  54.423 -59.706  1.00  0.00    -0.169 F 
HETATM   25  F   UNL     1     -45.407  56.433 -59.128  1.00  0.00    -0.169 F 
HETATM   26  F   UNL     1     -44.531  56.083 -61.083  1.00  0.00    -0.169 F 
ENDBRANCH   8  23
BRANCH   1  27
HETATM   27  C   UNL     1     -42.306  59.798 -59.307  1.00  0.00    -0.035 A 
HETATM   28  C   UNL     1     -41.702  60.449 -58.215  1.00  0.00     0.012 A 
HETATM   29  C   UNL     1     -40.916  61.590 -58.398  1.00  0.00     0.037 A 
HETATM   30  C   UNL     1     -40.722  62.105 -59.678  1.00  0.00     0.068 A 
HETATM   31  C   UNL     1     -41.337  61.481 -60.765  1.00  0.00     0.037 A 
HETATM   32  C   UNL     1     -42.120  60.335 -60.586  1.00  0.00     0.012 A 
BRANCH  30  33
HETATM   33  O   UNL     1     -39.975  63.207 -59.992  1.00  0.00    -0.356 OA
HETATM   34  C   UNL     1     -39.436  63.257 -61.308  1.00  0.00     0.210 C 
ENDBRANCH  30  33
ENDBRANCH   1  27
TORSDOF 6
ENDMDL
MODEL 2
REMARK VINA RESULT:      -8.9      5.564      9.668
REMARK  6 active torsions:
REMARK  status: ('A' for Active; 'I' for Inactive)
REMARK    1  A    between atoms: O_2  and  C_3 
REMARK    2  A    between atoms: C_6  and  C_7 
REMARK    3  A    between atoms: C_12  and  C_13 
REMARK       I    between atoms: C_13  and  N_14 
REMARK    4  A    between atoms: N_14  and  C_15 
REMARK    5  A    between atoms: C_17  and  O_18 
REMARK    6  A    between atoms: C_24  and  C_25 
ROOT
HETATM    1  C   UNL     1     -41.643  55.200 -53.859  1.00  0.00     0.118 C 
HETATM    2  N   UNL     1     -41.564  56.250 -52.844  1.00  0.00    -0.366 N 
HETATM    3  C   UNL     1     -42.624  57.007 -52.499  1.00  0.00     0.123 A 
HETATM    4  N   UNL     1     -43.776  56.988 -53.232  1.00  0.00    -0.240 N 
HETATM    5  N   UNL     1     -44.790  57.680 -52.681  1.00  0.00    -0.165 NA
HETATM    6  C   UNL     1     -44.220  58.245 -51.589  1.00  0.00     0.148 A 
HETATM    7  C   UNL     1     -42.854  57.871 -51.464  1.00  0.00     0.089 A 
HETATM    8  C   UNL     1     -43.946  56.166 -54.414  1.00  0.00     0.221 C 
HETATM    9  C   UNL     1     -43.103  54.891 -54.257  1.00  0.00     0.066 C 
HETATM   10  H   UNL     1     -40.701  56.268 -52.301  1.00  0.00     0.161 HD
ENDROOT
BRANCH   6  11
HETATM   11  C   UNL     1     -44.984  59.092 -50.654  1.00  0.00     0.276 C 
HETATM   12  N   UNL     1     -44.194  60.073 -50.088  1.00  0.00    -0.322 N 
HETATM   13  H   UNL     1     -43.221  60.025 -50.381  1.00  0.00     0.169 HD
HETATM   14  O   UNL     1     -46.181  58.911 -50.460  1.00  0.00    -0.266 OA
BRANCH  12  15
HETATM   15  C   UNL     1     -44.576  61.108 -49.217  1.00  0.00     0.037 A 
HETATM   16  C   UNL     1     -45.348  60.911 -48.070  1.00  0.00     0.066 A 
HETATM   17  C   UNL     1     -45.695  62.002 -47.273  1.00  0.00     0.067 A 
HETATM   18  C   UNL     1     -45.284  63.287 -47.599  1.00  0.00     0.036 A 
HETATM   19  C   UNL     1     -44.513  63.491 -48.741  1.00  0.00     0.005 A 
HETATM   20  C   UNL     1     -44.161  62.405 -49.546  1.00  0.00     0.029 A 
BRANCH  17  21
HETATM   21  O   UNL     1     -46.452  61.843 -46.148  1.00  0.00    -0.361 OA
HETATM   22  H   UNL     1     -46.035  62.345 -45.427  1.00  0.00     0.217 HD
ENDBRANCH  17  21
ENDBRANCH  12  15
ENDBRANCH   6  11
BRANCH   8  23
HETATM   23  C   UNL     1     -43.590  56.954 -55.653  1.00  0.00     0.409 C 
HETATM   24  F   UNL     1     -42.736  57.967 -55.390  1.00  0.00    -0.169 F 
HETATM   25  F   UNL     1     -43.052  56.204 -56.636  1.00  0.00    -0.169 F 
HETATM   26  F   UNL     1     -44.712  57.522 -56.169  1.00  0.00    -0.169 F 
ENDBRANCH   8  23
BRANCH   1  27
HETATM   27  C   UNL     1     -40.955  53.955 -53.324  1.00  0.00    -0.035 A 
HETATM   28  C   UNL     1     -40.552  52.923 -54.191  1.00  0.00     0.012 A 
HETATM   29  C   UNL     1     -39.906  51.782 -53.706  1.00  0.00     0.037 A 
HETATM   30  C   UNL     1     -39.653  51.650 -52.342  1.00  0.00     0.068 A 
HETATM   31  C   UNL     1     -40.072  52.658 -51.471  1.00  0.00     0.037 A 
HETATM   32  C   UNL     1     -40.714  53.804 -51.953  1.00  0.00     0.012 A 
BRANCH  30  33
HETATM   33  O   UNL     1     -39.027  50.592 -51.743  1.00  0.00    -0.356 OA
HETATM   34  C   UNL     1     -39.747  49.929 -50.709  1.00  0.00     0.210 C 
ENDBRANCH  30  33
ENDBRANCH   1  27
TORSDOF 6
ENDMDL
MODEL 3
REMARK VINA RESULT:      -8.7      6.514      7.810
REMARK  6 active torsions:
REMARK  status: ('A' for Active; 'I' for Inactive)
REMARK    1  A    between atoms: O_2  and  C_3 
REMARK    2  A    between atoms: C_6  and  C_7 
REMARK    3  A    between atoms: C_12  and  C_13 
REMARK       I    between atoms: C_13  and  N_14 
REMARK    4  A    between atoms: N_14  and  C_15 
REMARK    5  A    between atoms: C_17  and  O_18 
REMARK    6  A    between atoms: C_24  and  C_25 
ROOT
HETATM    1  C   UNL     1     -42.200  60.377 -51.289  1.00  0.00     0.118 C 
HETATM    2  N   UNL     1     -42.507  59.338 -52.271  1.00  0.00    -0.366 N 
HETATM    3  C   UNL     1     -42.083  58.065 -52.138  1.00  0.00     0.123 A 
HETATM    4  N   UNL     1     -41.157  57.723 -51.195  1.00  0.00    -0.240 N 
HETATM    5  N   UNL     1     -40.946  56.398 -51.087  1.00  0.00    -0.165 NA
HETATM    6  C   UNL     1     -41.710  55.882 -52.081  1.00  0.00     0.148 A 
HETATM    7  C   UNL     1     -42.410  56.903 -52.781  1.00  0.00     0.089 A 
HETATM    8  C   UNL     1     -40.573  58.682 -50.278  1.00  0.00     0.221 C 
HETATM    9  C   UNL     1     -41.601  59.787 -49.994  1.00  0.00     0.066 C 
HETATM   10  H   UNL     1     -43.194  59.596 -52.980  1.00  0.00     0.161 HD
ENDROOT
BRANCH   6  11
HETATM   11  C   UNL     1     -41.805  54.431 -52.326  1.00  0.00     0.276 C 
HETATM   12  N   UNL     1     -40.562  53.861 -52.522  1.00  0.00    -0.322 N 
HETATM   13  H   UNL     1     -39.802  54.537 -52.500  1.00  0.00     0.169 HD
HETATM   14  O   UNL     1     -42.886  53.852 -52.321  1.00  0.00    -0.266 OA
BRANCH  12  15
HETATM   15  C   UNL     1     -40.243  52.505 -52.704  1.00  0.00     0.037 A 
HETATM   16  C   UNL     1     -39.796  51.668 -51.679  1.00  0.00     0.066 A 
HETATM   17  C   UNL     1     -39.485  50.338 -51.957  1.00  0.00     0.067 A 
HETATM   18  C   UNL     1     -39.613  49.824 -53.240  1.00  0.00     0.036 A 
HETATM   19  C   UNL     1     -40.058  50.652 -54.268  1.00  0.00     0.005 A 
HETATM   20  C   UNL     1     -40.372  51.987 -54.000  1.00  0.00     0.029 A 
BRANCH  17  21
HETATM   21  O   UNL     1     -39.043  49.496 -50.977  1.00  0.00    -0.361 OA
HETATM   22  H   UNL     1     -39.095  49.963 -50.126  1.00  0.00     0.217 HD
ENDBRANCH  17  21
ENDBRANCH  12  15
ENDBRANCH   6  11
BRANCH   8  23
HETATM   23  C   UNL     1     -39.277  59.219 -50.842  1.00  0.00     0.409 C 
HETATM   24  F   UNL     1     -38.204  58.509 -50.429  1.00  0.00    -0.169 F 
HETATM   25  F   UNL     1     -39.250  59.263 -52.190  1.00  0.00    -0.169 F 
HETATM   26  F   UNL     1     -39.085  60.493 -50.408  1.00  0.00    -0.169 F 
ENDBRANCH   8  23
BRANCH   1  27
HETATM   27  C   UNL     1     -43.472  61.153 -50.989  1.00  0.00    -0.035 A 
HETATM   28  C   UNL     1     -44.730  60.524 -51.032  1.00  0.00     0.012 A 
HETATM   29  C   UNL     1     -45.901  61.229 -50.742  1.00  0.00     0.037 A 
HETATM   30  C   UNL     1     -45.837  62.581 -50.407  1.00  0.00     0.068 A 
HETATM   31  C   UNL     1     -44.596  63.219 -50.386  1.00  0.00     0.037 A 
HETATM   32  C   UNL     1     -43.420  62.515 -50.670  1.00  0.00     0.012 A 
BRANCH  30  33
HETATM   33  O   UNL     1     -46.903  63.379 -50.098  1.00  0.00    -0.356 OA
HETATM   34  C   UNL     1     -46.638  64.771 -49.962  1.00  0.00     0.210 C 
ENDBRANCH  30  33
ENDBRANCH   1  27
TORSDOF 6
ENDMDL
MODEL 4
REMARK VINA RESULT:      -8.6      2.610      9.559
REMARK  6 active torsions:
REMARK  status: ('A' for Active; 'I' for Inactive)
REMARK    1  A    between atoms: O_2  and  C_3 
REMARK    2  A    between atoms: C_6  and  C_7 
REMARK    3  A    between atoms: C_12  and  C_13 
REMARK       I    between atoms: C_13  and  N_14 
REMARK    4  A    between atoms: N_14  and  C_15 
REMARK    5  A    between atoms: C_17  and  O_18 
REMARK    6  A    between atoms: C_24  and  C_25 
ROOT
HETATM    1  C   UNL     1     -42.751  54.836 -53.943  1.00  0.00     0.118 C 
HETATM    2  N   UNL     1     -43.007  54.603 -55.363  1.00  0.00    -0.366 N 
HETATM    3  C   UNL     1     -43.025  55.599 -56.271  1.00  0.00     0.123 A 
HETATM    4  N   UNL     1     -43.025  56.908 -55.886  1.00  0.00    -0.240 N 
HETATM    5  N   UNL     1     -42.895  57.781 -56.901  1.00  0.00    -0.165 NA
HETATM    6  C   UNL     1     -42.909  56.983 -57.997  1.00  0.00     0.148 A 
HETATM    7  C   UNL     1     -43.023  55.611 -57.639  1.00  0.00     0.089 A 
HETATM    8  C   UNL     1     -43.003  57.321 -54.496  1.00  0.00     0.221 C 
HETATM    9  C   UNL     1     -42.239  56.270 -53.678  1.00  0.00     0.066 C 
HETATM   10  H   UNL     1     -43.014  53.624 -55.650  1.00  0.00     0.161 HD
ENDROOT
BRANCH   6  11
HETATM   11  C   UNL     1     -42.767  57.521 -59.363  1.00  0.00     0.276 C 
HETATM   12  N   UNL     1     -43.072  58.867 -59.418  1.00  0.00    -0.322 N 
HETATM   13  H   UNL     1     -43.374  59.248 -58.525  1.00  0.00     0.169 HD
HETATM   14  O   UNL     1     -42.396  56.813 -60.293  1.00  0.00    -0.266 OA
BRANCH  12  15
HETATM   15  C   UNL     1     -42.980  59.738 -60.517  1.00  0.00     0.037 A 
HETATM   16  C   UNL     1     -41.811  60.413 -60.876  1.00  0.00     0.066 A 
HETATM   17  C   UNL     1     -41.818  61.274 -61.973  1.00  0.00     0.067 A 
HETATM   18  C   UNL     1     -42.970  61.473 -62.722  1.00  0.00     0.036 A 
HETATM   19  C   UNL     1     -44.139  60.802 -62.371  1.00  0.00     0.005 A 
HETATM   20  C   UNL     1     -44.143  59.939 -61.272  1.00  0.00     0.029 A 
BRANCH  17  21
HETATM   21  O   UNL     1     -40.693  61.951 -62.347  1.00  0.00    -0.361 OA
HETATM   22  H   UNL     1     -40.657  62.785 -61.848  1.00  0.00     0.217 HD
ENDBRANCH  17  21
ENDBRANCH  12  15
ENDBRANCH   6  11
BRANCH   8  23
HETATM   23  C   UNL     1     -44.412  57.543 -53.996  1.00  0.00     0.409 C 
HETATM   24  F   UNL     1     -45.323  56.833 -54.696  1.00  0.00    -0.169 F 
HETATM   25  F   UNL     1     -44.575  57.252 -52.689  1.00  0.00    -0.169 F 
HETATM   26  F   UNL     1     -44.747  58.852 -54.145  1.00  0.00    -0.169 F 
ENDBRANCH   8  23
BRANCH   1  27
HETATM   27  C   UNL     1     -41.746  53.807 -53.454  1.00  0.00    -0.035 A 
HETATM   28  C   UNL     1     -41.173  52.878 -54.342  1.00  0.00     0.012 A 
HETATM   29  C   UNL     1     -40.237  51.939 -53.901  1.00  0.00     0.037 A 
HETATM   30  C   UNL     1     -39.857  51.908 -52.560  1.00  0.00     0.068 A 
HETATM   31  C   UNL     1     -40.438  52.811 -51.667  1.00  0.00     0.037 A 
HETATM   32  C   UNL     1     -41.372  53.756 -52.106  1.00  0.00     0.012 A 
BRANCH  30  33
HETATM   33  O   UNL     1     -38.951  51.047 -52.005  1.00  0.00    -0.356 OA
HETATM   34  C   UNL     1     -39.468  50.071 -51.108  1.00  0.00     0.210 C 
ENDBRANCH  30  33
ENDBRANCH   1  27
TORSDOF 6
ENDMDL
MODEL 5
REMARK VINA RESULT:      -8.4      6.684      8.536
REMARK  6 active torsions:
REMARK  status: ('A' for Active; 'I' for Inactive)
REMARK    1  A    between atoms: O_2  and  C_3 
REMARK    2  A    between atoms: C_6  and  C_7 
REMARK    3  A    between atoms: C_12  and  C_13 
REMARK       I    between atoms: C_13  and  N_14 
REMARK    4  A    between atoms: N_14  and  C_15 
REMARK    5  A    between atoms: C_17  and  O_18 
REMARK    6  A    between atoms: C_24  and  C_25 
ROOT
HETATM    1  C   UNL     1     -44.283  60.808 -50.538  1.00  0.00     0.118 C 
HETATM    2  N   UNL     1     -44.841  59.466 -50.704  1.00  0.00    -0.366 N 
HETATM    3  C   UNL     1     -44.109  58.426 -51.151  1.00  0.00     0.123 A 
HETATM    4  N   UNL     1     -42.866  58.612 -51.684  1.00  0.00    -0.240 N 
HETATM    5  N   UNL     1     -42.204  57.471 -51.947  1.00  0.00    -0.165 NA
HETATM    6  C   UNL     1     -43.115  56.511 -51.653  1.00  0.00     0.148 A 
HETATM    7  C   UNL     1     -44.332  57.077 -51.183  1.00  0.00     0.089 A 
HETATM    8  C   UNL     1     -42.247  59.917 -51.805  1.00  0.00     0.221 C 
HETATM    9  C   UNL     1     -42.743  60.810 -50.659  1.00  0.00     0.066 C 
HETATM   10  H   UNL     1     -45.773  59.329 -50.312  1.00  0.00     0.161 HD
ENDROOT
BRANCH   6  11
HETATM   11  C   UNL     1     -42.808  55.074 -51.775  1.00  0.00     0.276 C 
HETATM   12  N   UNL     1     -41.642  54.856 -52.481  1.00  0.00    -0.322 N 
HETATM   13  H   UNL     1     -41.214  55.712 -52.826  1.00  0.00     0.169 HD
HETATM   14  O   UNL     1     -43.530  54.221 -51.268  1.00  0.00    -0.266 OA
BRANCH  12  15
HETATM   15  C   UNL     1     -40.990  53.637 -52.735  1.00  0.00     0.037 A 
HETATM   16  C   UNL     1     -40.420  52.840 -51.740  1.00  0.00     0.066 A 
HETATM   17  C   UNL     1     -39.775  51.653 -52.087  1.00  0.00     0.067 A 
HETATM   18  C   UNL     1     -39.691  51.244 -53.411  1.00  0.00     0.036 A 
HETATM   19  C   UNL     1     -40.257  52.033 -54.409  1.00  0.00     0.005 A 
HETATM   20  C   UNL     1     -40.904  53.224 -54.072  1.00  0.00     0.029 A 
BRANCH  17  21
HETATM   21  O   UNL     1     -39.205  50.854 -51.138  1.00  0.00    -0.361 OA
HETATM   22  H   UNL     1     -39.818  50.787 -50.386  1.00  0.00     0.217 HD
ENDBRANCH  17  21
ENDBRANCH  12  15
ENDBRANCH   6  11
BRANCH   8  23
HETATM   23  C   UNL     1     -42.530  60.504 -53.169  1.00  0.00     0.409 C 
HETATM   24  F   UNL     1     -43.674  60.026 -53.706  1.00  0.00    -0.169 F 
HETATM   25  F   UNL     1     -42.601  61.850 -53.175  1.00  0.00    -0.169 F 
HETATM   26  F   UNL     1     -41.532  60.164 -54.027  1.00  0.00    -0.169 F 
ENDBRANCH   8  23
BRANCH   1  27
HETATM   27  C   UNL     1     -44.719  61.351 -49.187  1.00  0.00    -0.035 A 
HETATM   28  C   UNL     1     -45.423  60.543 -48.276  1.00  0.00     0.012 A 
HETATM   29  C   UNL     1     -45.812  61.032 -47.026  1.00  0.00     0.037 A 
HETATM   30  C   UNL     1     -45.508  62.343 -46.665  1.00  0.00     0.068 A 
HETATM   31  C   UNL     1     -44.831  63.161 -47.572  1.00  0.00     0.037 A 
HETATM   32  C   UNL     1     -44.435  62.672 -48.822  1.00  0.00     0.012 A 
BRANCH  30  33
HETATM   33  O   UNL     1     -45.826  62.940 -45.476  1.00  0.00    -0.356 OA
HETATM   34  C   UNL     1     -47.070  63.628 -45.421  1.00  0.00     0.210 C 
ENDBRANCH  30  33
ENDBRANCH   1  27
TORSDOF 6
ENDMDL
MODEL 6
REMARK VINA RESULT:      -8.3      5.493      9.741
REMARK  6 active torsions:
REMARK  status: ('A' for Active; 'I' for Inactive)
REMARK    1  A    between atoms: O_2  and  C_3 
REMARK    2  A    between atoms: C_6  and  C_7 
REMARK    3  A    between atoms: C_12  and  C_13 
REMARK       I    between atoms: C_13  and  N_14 
REMARK    4  A    between atoms: N_14  and  C_15 
REMARK    5  A    between atoms: C_17  and  O_18 
REMARK    6  A    between atoms: C_24  and  C_25 
ROOT
HETATM    1  C   UNL     1     -41.470  54.928 -54.047  1.00  0.00     0.118 C 
HETATM    2  N   UNL     1     -40.791  56.037 -53.380  1.00  0.00    -0.366 N 
HETATM    3  C   UNL     1     -41.457  57.078 -52.841  1.00  0.00     0.123 A 
HETATM    4  N   UNL     1     -42.787  57.268 -53.080  1.00  0.00    -0.240 N 
HETATM    5  N   UNL     1     -43.341  58.258 -52.357  1.00  0.00    -0.165 NA
HETATM    6  C   UNL     1     -42.282  58.786 -51.696  1.00  0.00     0.148 A 
HETATM    7  C   UNL     1     -41.079  58.091 -52.002  1.00  0.00     0.089 A 
HETATM    8  C   UNL     1     -43.573  56.379 -53.913  1.00  0.00     0.221 C 
HETATM    9  C   UNL     1     -42.996  54.960 -53.808  1.00  0.00     0.066 C 
HETATM   10  H   UNL     1     -39.795  55.899 -53.207  1.00  0.00     0.161 HD
ENDROOT
BRANCH   6  11
HETATM   11  C   UNL     1     -42.426  59.907 -50.748  1.00  0.00     0.276 C 
HETATM   12  N   UNL     1     -43.751  60.242 -50.549  1.00  0.00    -0.322 N 
HETATM   13  H   UNL     1     -44.395  59.690 -51.109  1.00  0.00     0.169 HD
HETATM   14  O   UNL     1     -41.450  60.424 -50.216  1.00  0.00    -0.266 OA
BRANCH  12  15
HETATM   15  C   UNL     1     -44.287  61.197 -49.667  1.00  0.00     0.037 A 
HETATM   16  C   UNL     1     -43.913  62.543 -49.661  1.00  0.00     0.066 A 
HETATM   17  C   UNL     1     -44.486  63.416 -48.736  1.00  0.00     0.067 A 
HETATM   18  C   UNL     1     -45.427  62.972 -47.818  1.00  0.00     0.036 A 
HETATM   19  C   UNL     1     -45.806  61.632 -47.819  1.00  0.00     0.005 A 
HETATM   20  C   UNL     1     -45.237  60.748 -48.740  1.00  0.00     0.029 A 
BRANCH  17  21
HETATM   21  O   UNL     1     -44.139  64.736 -48.702  1.00  0.00    -0.361 OA
HETATM   22  H   UNL     1     -44.594  65.191 -49.431  1.00  0.00     0.217 HD
ENDBRANCH  17  21
ENDBRANCH  12  15
ENDBRANCH   6  11
BRANCH   8  23
HETATM   23  C   UNL     1     -43.608  56.894 -55.334  1.00  0.00     0.409 C 
HETATM   24  F   UNL     1     -44.773  57.513 -55.627  1.00  0.00    -0.169 F 
HETATM   25  F   UNL     1     -42.602  57.742 -55.628  1.00  0.00    -0.169 F 
HETATM   26  F   UNL     1     -43.500  55.850 -56.199  1.00  0.00    -0.169 F 
ENDBRANCH   8  23
BRANCH   1  27
HETATM   27  C   UNL     1     -40.874  53.623 -53.549  1.00  0.00    -0.035 A 
HETATM   28  C   UNL     1     -40.656  52.546 -54.428  1.00  0.00     0.012 A 
HETATM   29  C   UNL     1     -40.093  51.348 -53.978  1.00  0.00     0.037 A 
HETATM   30  C   UNL     1     -39.740  51.203 -52.638  1.00  0.00     0.068 A 
HETATM   31  C   UNL     1     -39.975  52.258 -51.753  1.00  0.00     0.037 A 
HETATM   32  C   UNL     1     -40.533  53.460 -52.201  1.00  0.00     0.012 A 
BRANCH  30  33
HETATM   33  O   UNL     1     -39.179  50.090 -52.074  1.00  0.00    -0.356 OA
HETATM   34  C   UNL     1     -39.628  49.743 -50.769  1.00  0.00     0.210 C 
ENDBRANCH  30  33
ENDBRANCH   1  27
TORSDOF 6
ENDMDL
MODEL 7
REMARK VINA RESULT:      -8.3      4.769      5.810
REMARK  6 active torsions:
REMARK  status: ('A' for Active; 'I' for Inactive)
REMARK    1  A    between atoms: O_2  and  C_3 
REMARK    2  A    between atoms: C_6  and  C_7 
REMARK    3  A    between atoms: C_12  and  C_13 
REMARK       I    between atoms: C_13  and  N_14 
REMARK    4  A    between atoms: N_14  and  C_15 
REMARK    5  A    between atoms: C_17  and  O_18 
REMARK    6  A    between atoms: C_24  and  C_25 
ROOT
HETATM    1  C   UNL     1     -42.005  60.169 -53.573  1.00  0.00     0.118 C 
HETATM    2  N   UNL     1     -41.431  58.898 -54.013  1.00  0.00    -0.366 N 
HETATM    3  C   UNL     1     -41.493  57.776 -53.268  1.00  0.00     0.123 A 
HETATM    4  N   UNL     1     -41.899  57.814 -51.965  1.00  0.00    -0.240 N 
HETATM    5  N   UNL     1     -42.050  56.602 -51.401  1.00  0.00    -0.165 NA
HETATM    6  C   UNL     1     -41.625  55.755 -52.370  1.00  0.00     0.148 A 
HETATM    7  C   UNL     1     -41.236  56.461 -53.543  1.00  0.00     0.089 A 
HETATM    8  C   UNL     1     -42.291  59.039 -51.296  1.00  0.00     0.221 C 
HETATM    9  C   UNL     1     -42.905  59.995 -52.330  1.00  0.00     0.066 C 
HETATM   10  H   UNL     1     -41.121  58.872 -54.985  1.00  0.00     0.161 HD
ENDROOT
BRANCH   6  11
HETATM   11  C   UNL     1     -41.635  54.291 -52.195  1.00  0.00     0.276 C 
HETATM   12  N   UNL     1     -40.572  53.690 -52.840  1.00  0.00    -0.322 N 
HETATM   13  H   UNL     1     -39.988  54.347 -53.352  1.00  0.00     0.169 HD
HETATM   14  O   UNL     1     -42.498  53.733 -51.526  1.00  0.00    -0.266 OA
BRANCH  12  15
HETATM   15  C   UNL     1     -40.204  52.334 -52.839  1.00  0.00     0.037 A 
HETATM   16  C   UNL     1     -40.249  51.516 -53.970  1.00  0.00     0.066 A 
HETATM   17  C   UNL     1     -39.881  50.174 -53.870  1.00  0.00     0.067 A 
HETATM   18  C   UNL     1     -39.466  49.633 -52.661  1.00  0.00     0.036 A 
HETATM   19  C   UNL     1     -39.417  50.442 -51.529  1.00  0.00     0.005 A 
HETATM   20  C   UNL     1     -39.785  51.787 -51.618  1.00  0.00     0.029 A 
BRANCH  17  21
HETATM   21  O   UNL     1     -39.917  49.348 -54.957  1.00  0.00    -0.361 OA
HETATM   22  H   UNL     1     -40.626  49.653 -55.549  1.00  0.00     0.217 HD
ENDBRANCH  17  21
ENDBRANCH  12  15
ENDBRANCH   6  11
BRANCH   8  23
HETATM   23  C   UNL     1     -41.107  59.639 -50.573  1.00  0.00     0.409 C 
HETATM   24  F   UNL     1     -40.901  59.070 -49.365  1.00  0.00    -0.169 F 
HETATM   25  F   UNL     1     -39.954  59.565 -51.268  1.00  0.00    -0.169 F 
HETATM   26  F   UNL     1     -41.337  60.959 -50.342  1.00  0.00    -0.169 F 
ENDBRANCH   8  23
BRANCH   1  27
HETATM   27  C   UNL     1     -42.790  60.773 -54.726  1.00  0.00    -0.035 A 
HETATM   28  C   UNL     1     -42.315  60.686 -56.047  1.00  0.00     0.012 A 
HETATM   29  C   UNL     1     -43.040  61.226 -57.113  1.00  0.00     0.037 A 
HETATM   30  C   UNL     1     -44.255  61.867 -56.877  1.00  0.00     0.068 A 
HETATM   31  C   UNL     1     -44.722  61.979 -55.565  1.00  0.00     0.037 A 
HETATM   32  C   UNL     1     -44.001  61.435 -54.497  1.00  0.00     0.012 A 
BRANCH  30  33
HETATM   33  O   UNL     1     -45.061  62.430 -57.827  1.00  0.00    -0.356 OA
HETATM   34  C   UNL     1     -44.872  63.818 -58.081  1.00  0.00     0.210 C 
ENDBRANCH  30  33
ENDBRANCH   1  27
TORSDOF 6
ENDMDL
MODEL 8
REMARK VINA RESULT:      -8.1      5.261      9.769
REMARK  6 active torsions:
REMARK  status: ('A' for Active; 'I' for Inactive)
REMARK    1  A    between atoms: O_2  and  C_3 
REMARK    2  A    between atoms: C_6  and  C_7 
REMARK    3  A    between atoms: C_12  and  C_13 
REMARK       I    between atoms: C_13  and  N_14 
REMARK    4  A    between atoms: N_14  and  C_15 
REMARK    5  A    between atoms: C_17  and  O_18 
REMARK    6  A    between atoms: C_24  and  C_25 
ROOT
HETATM    1  C   UNL     1     -41.550  55.348 -53.885  1.00  0.00     0.118 C 
HETATM    2  N   UNL     1     -41.670  56.387 -52.864  1.00  0.00    -0.366 N 
HETATM    3  C   UNL     1     -42.793  57.114 -52.697  1.00  0.00     0.123 A 
HETATM    4  N   UNL     1     -43.804  57.075 -53.612  1.00  0.00    -0.240 N 
HETATM    5  N   UNL     1     -44.914  57.735 -53.234  1.00  0.00    -0.165 NA
HETATM    6  C   UNL     1     -44.551  58.302 -52.058  1.00  0.00     0.148 A 
HETATM    7  C   UNL     1     -43.215  57.960 -51.708  1.00  0.00     0.089 A 
HETATM    8  C   UNL     1     -43.752  56.262 -54.812  1.00  0.00     0.221 C 
HETATM    9  C   UNL     1     -42.914  55.007 -54.524  1.00  0.00     0.066 C 
HETATM   10  H   UNL     1     -40.910  56.421 -52.184  1.00  0.00     0.161 HD
ENDROOT
BRANCH   6  11
HETATM   11  C   UNL     1     -45.482  59.118 -51.258  1.00  0.00     0.276 C 
HETATM   12  N   UNL     1     -45.481  60.440 -51.659  1.00  0.00    -0.322 N 
HETATM   13  H   UNL     1     -44.818  60.632 -52.406  1.00  0.00     0.169 HD
HETATM   14  O   UNL     1     -46.167  58.621 -50.370  1.00  0.00    -0.266 OA
BRANCH  12  15
HETATM   15  C   UNL     1     -46.284  61.494 -51.193  1.00  0.00     0.037 A 
HETATM   16  C   UNL     1     -47.270  62.116 -51.962  1.00  0.00     0.066 A 
HETATM   17  C   UNL     1     -48.008  63.170 -51.421  1.00  0.00     0.067 A 
HETATM   18  C   UNL     1     -47.782  63.613 -50.125  1.00  0.00     0.036 A 
HETATM   19  C   UNL     1     -46.801  62.997 -49.352  1.00  0.00     0.005 A 
HETATM   20  C   UNL     1     -46.055  61.942 -49.885  1.00  0.00     0.029 A 
BRANCH  17  21
HETATM   21  O   UNL     1     -48.976  63.801 -52.148  1.00  0.00    -0.361 OA
HETATM   22  H   UNL     1     -48.607  64.631 -52.494  1.00  0.00     0.217 HD
ENDBRANCH  17  21
ENDBRANCH  12  15
ENDBRANCH   6  11
BRANCH   8  23
HETATM   23  C   UNL     1     -43.214  57.073 -55.968  1.00  0.00     0.409 C 
HETATM   24  F   UNL     1     -42.462  56.331 -56.810  1.00  0.00    -0.169 F 
HETATM   25  F   UNL     1     -44.174  57.680 -56.696  1.00  0.00    -0.169 F 
HETATM   26  F   UNL     1     -42.405  58.059 -55.496  1.00  0.00    -0.169 F 
ENDBRANCH   8  23
BRANCH   1  27
HETATM   27  C   UNL     1     -40.929  54.114 -53.251  1.00  0.00    -0.035 A 
HETATM   28  C   UNL     1     -40.648  54.073 -51.873  1.00  0.00     0.012 A 
HETATM   29  C   UNL     1     -40.091  52.935 -51.282  1.00  0.00     0.037 A 
HETATM   30  C   UNL     1     -39.801  51.816 -52.061  1.00  0.00     0.068 A 
HETATM   31  C   UNL     1     -40.054  51.856 -53.433  1.00  0.00     0.037 A 
HETATM   32  C   UNL     1     -40.616  52.991 -54.027  1.00  0.00     0.012 A 
BRANCH  30  33
HETATM   33  O   UNL     1     -39.263  50.643 -51.606  1.00  0.00    -0.356 OA
HETATM   34  C   UNL     1     -39.598  49.466 -52.332  1.00  0.00     0.210 C 
ENDBRANCH  30  33
ENDBRANCH   1  27
TORSDOF 6
ENDMDL
MODEL 9
REMARK VINA RESULT:      -8.0      3.540      4.908
REMARK  6 active torsions:
REMARK  status: ('A' for Active; 'I' for Inactive)
REMARK    1  A    between atoms: O_2  and  C_3 
REMARK    2  A    between atoms: C_6  and  C_7 
REMARK    3  A    between atoms: C_12  and  C_13 
REMARK       I    between atoms: C_13  and  N_14 
REMARK    4  A    between atoms: N_14  and  C_15 
REMARK    5  A    between atoms: C_17  and  O_18 
REMARK    6  A    between atoms: C_24  and  C_25 
ROOT
HETATM    1  C   UNL     1     -44.154  58.176 -58.363  1.00  0.00     0.118 C 
HETATM    2  N   UNL     1     -43.202  57.105 -58.071  1.00  0.00    -0.366 N 
HETATM    3  C   UNL     1     -42.751  56.854 -56.826  1.00  0.00     0.123 A 
HETATM    4  N   UNL     1     -42.984  57.724 -55.800  1.00  0.00    -0.240 N 
HETATM    5  N   UNL     1     -42.603  57.266 -54.594  1.00  0.00    -0.165 NA
HETATM    6  C   UNL     1     -42.009  56.084 -54.886  1.00  0.00     0.148 A 
HETATM    7  C   UNL     1     -42.055  55.810 -56.281  1.00  0.00     0.089 A 
HETATM    8  C   UNL     1     -43.724  58.959 -55.966  1.00  0.00     0.221 C 
HETATM    9  C   UNL     1     -44.769  58.767 -57.075  1.00  0.00     0.066 C 
HETATM   10  H   UNL     1     -43.022  56.458 -58.840  1.00  0.00     0.161 HD
ENDROOT
BRANCH   6  11
HETATM   11  C   UNL     1     -41.449  55.206 -53.841  1.00  0.00     0.276 C 
HETATM   12  N   UNL     1     -41.231  53.925 -54.310  1.00  0.00    -0.322 N 
HETATM   13  H   UNL     1     -41.522  53.795 -55.276  1.00  0.00     0.169 HD
HETATM   14  O   UNL     1     -41.207  55.626 -52.715  1.00  0.00    -0.266 OA
BRANCH  12  15
HETATM   15  C   UNL     1     -40.642  52.839 -53.641  1.00  0.00     0.037 A 
HETATM   16  C   UNL     1     -40.310  51.632 -54.262  1.00  0.00     0.066 A 
HETATM   17  C   UNL     1     -39.744  50.601 -53.513  1.00  0.00     0.067 A 
HETATM   18  C   UNL     1     -39.501  50.751 -52.154  1.00  0.00     0.036 A 
HETATM   19  C   UNL     1     -39.827  51.952 -51.528  1.00  0.00     0.005 A 
HETATM   20  C   UNL     1     -40.396  52.991 -52.269  1.00  0.00     0.029 A 
BRANCH  17  21
HETATM   21  O   UNL     1     -39.412  49.409 -54.089  1.00  0.00    -0.361 OA
HETATM   22  H   UNL     1     -40.176  48.811 -54.016  1.00  0.00     0.217 HD
ENDBRANCH  17  21
ENDBRANCH  12  15
ENDBRANCH   6  11
BRANCH   8  23
HETATM   23  C   UNL     1     -42.774  60.101 -56.247  1.00  0.00     0.409 C 
HETATM   24  F   UNL     1     -42.414  60.757 -55.123  1.00  0.00    -0.169 F 
HETATM   25  F   UNL     1     -41.648  59.724 -56.886  1.00  0.00    -0.169 F 
HETATM   26  F   UNL     1     -43.386  61.016 -57.046  1.00  0.00    -0.169 F 
ENDBRANCH   8  23
BRANCH   1  27
HETATM   27  C   UNL     1     -45.238  57.627 -59.275  1.00  0.00    -0.035 A 
HETATM   28  C   UNL     1     -45.246  56.272 -59.655  1.00  0.00     0.012 A 
HETATM   29  C   UNL     1     -46.250  55.759 -60.481  1.00  0.00     0.037 A 
HETATM   30  C   UNL     1     -47.265  56.593 -60.947  1.00  0.00     0.068 A 
HETATM   31  C   UNL     1     -47.251  57.944 -60.596  1.00  0.00     0.037 A 
HETATM   32  C   UNL     1     -46.251  58.460 -59.764  1.00  0.00     0.012 A 
BRANCH  30  33
HETATM   33  O   UNL     1     -48.303  56.216 -61.753  1.00  0.00    -0.356 OA
HETATM   34  C   UNL     1     -48.654  57.113 -62.801  1.00  0.00     0.210 C 
ENDBRANCH  30  33
ENDBRANCH   1  27
TORSDOF 6
ENDMDL
MODEL 10
REMARK VINA RESULT:      -7.9      3.898      4.629
REMARK  6 active torsions:
REMARK  status: ('A' for Active; 'I' for Inactive)
REMARK    1  A    between atoms: O_2  and  C_3 
REMARK    2  A    between atoms: C_6  and  C_7 
REMARK    3  A    between atoms: C_12  and  C_13 
REMARK       I    between atoms: C_13  and  N_14 
REMARK    4  A    between atoms: N_14  and  C_15 
REMARK    5  A    between atoms: C_17  and  O_18 
REMARK    6  A    between atoms: C_24  and  C_25 
ROOT
HETATM    1  C   UNL     1     -42.488  60.107 -54.772  1.00  0.00     0.118 C 
HETATM    2  N   UNL     1     -41.577  58.970 -54.650  1.00  0.00    -0.366 N 
HETATM    3  C   UNL     1     -41.890  57.861 -53.951  1.00  0.00     0.123 A 
HETATM    4  N   UNL     1     -42.983  57.824 -53.133  1.00  0.00    -0.240 N 
HETATM    5  N   UNL     1     -43.247  56.608 -52.622  1.00  0.00    -0.165 NA
HETATM    6  C   UNL     1     -42.209  55.856 -53.063  1.00  0.00     0.148 A 
HETATM    7  C   UNL     1     -41.322  56.619 -53.873  1.00  0.00     0.089 A 
HETATM    8  C   UNL     1     -43.876  58.953 -52.959  1.00  0.00     0.221 C 
HETATM    9  C   UNL     1     -43.906  59.768 -54.261  1.00  0.00     0.066 C 
HETATM   10  H   UNL     1     -40.757  59.000 -55.256  1.00  0.00     0.161 HD
ENDROOT
BRANCH   6  11
HETATM   11  C   UNL     1     -42.094  54.418 -52.756  1.00  0.00     0.276 C 
HETATM   12  N   UNL     1     -40.952  53.867 -53.302  1.00  0.00    -0.322 N 
HETATM   13  H   UNL     1     -40.406  54.530 -53.848  1.00  0.00     0.169 HD
HETATM   14  O   UNL     1     -42.933  53.841 -52.073  1.00  0.00    -0.266 OA
BRANCH  12  15
HETATM   15  C   UNL     1     -40.461  52.557 -53.163  1.00  0.00     0.037 A 
HETATM   16  C   UNL     1     -40.458  51.616 -54.195  1.00  0.00     0.066 A 
HETATM   17  C   UNL     1     -39.967  50.332 -53.960  1.00  0.00     0.067 A 
HETATM   18  C   UNL     1     -39.477  49.969 -52.713  1.00  0.00     0.036 A 
HETATM   19  C   UNL     1     -39.476  50.902 -51.679  1.00  0.00     0.005 A 
HETATM   20  C   UNL     1     -39.967  52.191 -51.904  1.00  0.00     0.029 A 
BRANCH  17  21
HETATM   21  O   UNL     1     -39.954  49.389 -54.947  1.00  0.00    -0.361 OA
HETATM   22  H   UNL     1     -40.360  49.772 -55.743  1.00  0.00     0.217 HD
ENDBRANCH  17  21
ENDBRANCH  12  15
ENDBRANCH   6  11
BRANCH   8  23
HETATM   23  C   UNL     1     -43.451  59.774 -51.764  1.00  0.00     0.409 C 
HETATM   24  F   UNL     1     -44.115  59.426 -50.640  1.00  0.00    -0.169 F 
HETATM   25  F   UNL     1     -42.130  59.706 -51.502  1.00  0.00    -0.169 F 
HETATM   26  F   UNL     1     -43.735  61.085 -51.987  1.00  0.00    -0.169 F 
ENDBRANCH   8  23
BRANCH   1  27
HETATM   27  C   UNL     1     -42.529  60.543 -56.227  1.00  0.00    -0.035 A 
HETATM   28  C   UNL     1     -41.771  59.873 -57.204  1.00  0.00     0.012 A 
HETATM   29  C   UNL     1     -41.818  60.259 -58.546  1.00  0.00     0.037 A 
HETATM   30  C   UNL     1     -42.622  61.328 -58.937  1.00  0.00     0.068 A 
HETATM   31  C   UNL     1     -43.360  62.015 -57.970  1.00  0.00     0.037 A 
HETATM   32  C   UNL     1     -43.320  61.627 -56.627  1.00  0.00     0.012 A 
BRANCH  30  33
HETATM   33  O   UNL     1     -42.760  61.801 -60.213  1.00  0.00    -0.356 OA
HETATM   34  C   UNL     1     -41.968  61.172 -61.214  1.00  0.00     0.210 C 
ENDBRANCH  30  33
ENDBRANCH   1  27
TORSDOF 6
ENDMDL
