MODEL 1
REMARK VINA RESULT:      -8.9      0.000      0.000
REMARK  6 active torsions:
REMARK  status: ('A' for Active; 'I' for Inactive)
REMARK    1  A    between atoms: C_5  and  C_6 
REMARK    2  A    between atoms: C_11  and  C_12 
REMARK       I    between atoms: C_12  and  N_13 
REMARK    3  A    between atoms: N_13  and  C_14 
REMARK    4  A    between atoms: C_17  and  C_18 
REMARK    5  A    between atoms: C_18  and  O_19 
REMARK    6  A    between atoms: C_25  and  C_26 
ROOT
HETATM    1  C   UNL     1     -43.324  55.991 -53.906  1.00  0.00     0.118 C 
HETATM    2  N   UNL     1     -44.356  56.345 -52.941  1.00  0.00    -0.366 N 
HETATM    3  C   UNL     1     -44.381  57.531 -52.302  1.00  0.00     0.123 A 
HETATM    4  N   UNL     1     -43.475  58.518 -52.569  1.00  0.00    -0.240 N 
HETATM    5  N   UNL     1     -43.705  59.668 -51.904  1.00  0.00    -0.165 NA
HETATM    6  C   UNL     1     -44.757  59.364 -51.108  1.00  0.00     0.148 A 
HETATM    7  C   UNL     1     -45.207  58.033 -51.333  1.00  0.00     0.089 A 
HETATM    8  C   UNL     1     -42.390  58.384 -53.521  1.00  0.00     0.221 C 
HETATM    9  C   UNL     1     -42.681  57.248 -54.519  1.00  0.00     0.066 C 
HETATM   10  H   UNL     1     -44.960  55.577 -52.648  1.00  0.00     0.161 HD
ENDROOT
BRANCH   6  11
HETATM   11  C   UNL     1     -45.342  60.329 -50.159  1.00  0.00     0.276 C 
HETATM   12  N   UNL     1     -44.513  60.566 -49.080  1.00  0.00    -0.322 N 
HETATM   13  H   UNL     1     -43.640  60.046 -49.117  1.00  0.00     0.169 HD
HETATM   14  O   UNL     1     -46.439  60.835 -50.368  1.00  0.00    -0.266 OA
BRANCH  12  15
HETATM   15  C   UNL     1     -44.726  61.432 -47.995  1.00  0.00     0.035 A 
HETATM   16  C   UNL     1     -44.965  60.999 -46.690  1.00  0.00     0.030 A 
HETATM   17  C   UNL     1     -45.183  61.925 -45.662  1.00  0.00     0.012 A 
HETATM   18  C   UNL     1     -45.166  63.302 -45.916  1.00  0.00    -0.030 A 
HETATM   19  C   UNL     1     -44.923  63.733 -47.226  1.00  0.00     0.012 A 
HETATM   20  C   UNL     1     -44.700  62.806 -48.253  1.00  0.00     0.030 A 
BRANCH  18  21
HETATM   21  C   UNL     1     -45.447  64.304 -44.819  1.00  0.00     0.147 C 
HETATM   22  C   UNL     1     -46.938  64.393 -44.515  1.00  0.00     0.044 C 
BRANCH  21  23
HETATM   23  O   UNL     1     -44.747  63.932 -43.633  1.00  0.00    -0.391 OA
HETATM   24  H   UNL     1     -43.799  64.027 -43.817  1.00  0.00     0.210 HD
ENDBRANCH  21  23
ENDBRANCH  18  21
ENDBRANCH  12  15
ENDBRANCH   6  11
BRANCH   8  25
HETATM   25  C   UNL     1     -41.072  58.240 -52.795  1.00  0.00     0.409 C 
HETATM   26  F   UNL     1     -41.161  57.595 -51.619  1.00  0.00    -0.169 F 
HETATM   27  F   UNL     1     -40.187  57.555 -53.564  1.00  0.00    -0.169 F 
HETATM   28  F   UNL     1     -40.502  59.445 -52.550  1.00  0.00    -0.169 F 
ENDBRANCH   8  25
BRANCH   1  29
HETATM   29  C   UNL     1     -42.348  54.960 -53.368  1.00  0.00    -0.035 A 
HETATM   30  C   UNL     1     -41.387  54.411 -54.235  1.00  0.00     0.010 A 
HETATM   31  C   UNL     1     -40.496  53.426 -53.795  1.00  0.00     0.007 A 
HETATM   32  C   UNL     1     -40.546  52.962 -52.478  1.00  0.00    -0.062 A 
HETATM   33  C   UNL     1     -39.585  51.921 -51.989  1.00  0.00     0.048 C 
HETATM   34  C   UNL     1     -41.486  53.514 -51.604  1.00  0.00     0.007 A 
HETATM   35  C   UNL     1     -42.381  54.494 -52.046  1.00  0.00     0.010 A 
ENDBRANCH   1  29
TORSDOF 6
ENDMDL
MODEL 2
REMARK VINA RESULT:      -8.6      7.224     10.205
REMARK  6 active torsions:
REMARK  status: ('A' for Active; 'I' for Inactive)
REMARK    1  A    between atoms: C_5  and  C_6 
REMARK    2  A    between atoms: C_11  and  C_12 
REMARK       I    between atoms: C_12  and  N_13 
REMARK    3  A    between atoms: N_13  and  C_14 
REMARK    4  A    between atoms: C_17  and  C_18 
REMARK    5  A    between atoms: C_18  and  O_19 
REMARK    6  A    between atoms: C_25  and  C_26 
ROOT
HETATM    1  C   UNL     1     -45.771  58.960 -57.788  1.00  0.00     0.118 C 
HETATM    2  N   UNL     1     -45.540  58.018 -56.701  1.00  0.00    -0.366 N 
HETATM    3  C   UNL     1     -44.311  57.582 -56.363  1.00  0.00     0.123 A 
HETATM    4  N   UNL     1     -43.182  58.052 -56.973  1.00  0.00    -0.240 N 
HETATM    5  N   UNL     1     -42.036  57.575 -56.446  1.00  0.00    -0.165 NA
HETATM    6  C   UNL     1     -42.465  56.691 -55.514  1.00  0.00     0.148 A 
HETATM    7  C   UNL     1     -43.885  56.671 -55.435  1.00  0.00     0.089 A 
HETATM    8  C   UNL     1     -43.187  59.020 -58.052  1.00  0.00     0.221 C 
HETATM    9  C   UNL     1     -44.514  59.802 -58.071  1.00  0.00     0.066 C 
HETATM   10  H   UNL     1     -46.378  57.575 -56.325  1.00  0.00     0.161 HD
ENDROOT
BRANCH   6  11
HETATM   11  C   UNL     1     -41.539  55.887 -54.695  1.00  0.00     0.276 C 
HETATM   12  N   UNL     1     -41.859  54.543 -54.716  1.00  0.00    -0.322 N 
HETATM   13  H   UNL     1     -42.669  54.327 -55.291  1.00  0.00     0.169 HD
HETATM   14  O   UNL     1     -40.606  56.411 -54.098  1.00  0.00    -0.266 OA
BRANCH  12  15
HETATM   15  C   UNL     1     -41.195  53.483 -54.074  1.00  0.00     0.035 A 
HETATM   16  C   UNL     1     -40.598  52.418 -54.750  1.00  0.00     0.030 A 
HETATM   17  C   UNL     1     -39.966  51.390 -54.039  1.00  0.00     0.012 A 
HETATM   18  C   UNL     1     -39.916  51.405 -52.639  1.00  0.00    -0.030 A 
HETATM   19  C   UNL     1     -40.515  52.478 -51.966  1.00  0.00     0.012 A 
HETATM   20  C   UNL     1     -41.143  53.508 -52.677  1.00  0.00     0.030 A 
BRANCH  18  21
HETATM   21  C   UNL     1     -39.277  50.275 -51.866  1.00  0.00     0.147 C 
HETATM   22  C   UNL     1     -39.909  50.114 -50.489  1.00  0.00     0.044 C 
BRANCH  21  23
HETATM   23  O   UNL     1     -39.414  49.054 -52.592  1.00  0.00    -0.391 OA
HETATM   24  H   UNL     1     -38.643  48.979 -53.176  1.00  0.00     0.210 HD
ENDBRANCH  21  23
ENDBRANCH  18  21
ENDBRANCH  12  15
ENDBRANCH   6  11
BRANCH   8  25
HETATM   25  C   UNL     1     -42.855  58.343 -59.362  1.00  0.00     0.409 C 
HETATM   26  F   UNL     1     -43.173  57.038 -59.402  1.00  0.00    -0.169 F 
HETATM   27  F   UNL     1     -43.514  58.951 -60.382  1.00  0.00    -0.169 F 
HETATM   28  F   UNL     1     -41.535  58.446 -59.656  1.00  0.00    -0.169 F 
ENDBRANCH   8  25
BRANCH   1  29
HETATM   29  C   UNL     1     -46.402  58.307 -59.005  1.00  0.00    -0.035 A 
HETATM   30  C   UNL     1     -47.041  59.116 -59.961  1.00  0.00     0.010 A 
HETATM   31  C   UNL     1     -47.674  58.555 -61.075  1.00  0.00     0.007 A 
HETATM   32  C   UNL     1     -47.688  57.171 -61.260  1.00  0.00    -0.062 A 
HETATM   33  C   UNL     1     -48.347  56.558 -62.459  1.00  0.00     0.048 C 
HETATM   34  C   UNL     1     -47.041  56.359 -60.325  1.00  0.00     0.007 A 
HETATM   35  C   UNL     1     -46.414  56.920 -59.208  1.00  0.00     0.010 A 
ENDBRANCH   1  29
TORSDOF 6
ENDMDL
MODEL 3
REMARK VINA RESULT:      -8.5      7.455     10.648
REMARK  6 active torsions:
REMARK  status: ('A' for Active; 'I' for Inactive)
REMARK    1  A    between atoms: C_5  and  C_6 
REMARK    2  A    between atoms: C_11  and  C_12 
REMARK       I    between atoms: C_12  and  N_13 
REMARK    3  A    between atoms: N_13  and  C_14 
REMARK    4  A    between atoms: C_17  and  C_18 
REMARK    5  A    between atoms: C_18  and  O_19 
REMARK    6  A    between atoms: C_25  and  C_26 
ROOT
HETATM    1  C   UNL     1     -43.682  59.176 -58.898  1.00  0.00     0.118 C 
HETATM    2  N   UNL     1     -43.648  58.866 -57.475  1.00  0.00    -0.366 N 
HETATM    3  C   UNL     1     -43.353  57.639 -57.003  1.00  0.00     0.123 A 
HETATM    4  N   UNL     1     -42.993  56.612 -57.828  1.00  0.00    -0.240 N 
HETATM    5  N   UNL     1     -42.644  55.483 -57.178  1.00  0.00    -0.165 NA
HETATM    6  C   UNL     1     -42.882  55.784 -55.880  1.00  0.00     0.148 A 
HETATM    7  C   UNL     1     -43.325  57.128 -55.734  1.00  0.00     0.089 A 
HETATM    8  C   UNL     1     -42.928  56.718 -59.272  1.00  0.00     0.221 C 
HETATM    9  C   UNL     1     -42.812  58.192 -59.703  1.00  0.00     0.066 C 
HETATM   10  H   UNL     1     -44.030  59.587 -56.864  1.00  0.00     0.161 HD
ENDROOT
BRANCH   6  11
HETATM   11  C   UNL     1     -42.673  54.816 -54.788  1.00  0.00     0.276 C 
HETATM   12  N   UNL     1     -41.470  54.146 -54.909  1.00  0.00    -0.322 N 
HETATM   13  H   UNL     1     -40.928  54.430 -55.721  1.00  0.00     0.169 HD
HETATM   14  O   UNL     1     -43.504  54.677 -53.898  1.00  0.00    -0.266 OA
BRANCH  12  15
HETATM   15  C   UNL     1     -40.928  53.172 -54.052  1.00  0.00     0.035 A 
HETATM   16  C   UNL     1     -40.634  53.399 -52.708  1.00  0.00     0.030 A 
HETATM   17  C   UNL     1     -40.082  52.382 -51.920  1.00  0.00     0.012 A 
HETATM   18  C   UNL     1     -39.814  51.117 -52.458  1.00  0.00    -0.030 A 
HETATM   19  C   UNL     1     -40.114  50.893 -53.807  1.00  0.00     0.012 A 
HETATM   20  C   UNL     1     -40.671  51.909 -54.594  1.00  0.00     0.030 A 
BRANCH  18  21
HETATM   21  C   UNL     1     -39.176  50.030 -51.624  1.00  0.00     0.147 C 
HETATM   22  C   UNL     1     -39.882  49.869 -50.282  1.00  0.00     0.044 C 
BRANCH  21  23
HETATM   23  O   UNL     1     -39.219  48.790 -52.329  1.00  0.00    -0.391 OA
HETATM   24  H   UNL     1     -38.303  48.542 -52.529  1.00  0.00     0.210 HD
ENDBRANCH  21  23
ENDBRANCH  18  21
ENDBRANCH  12  15
ENDBRANCH   6  11
BRANCH   8  25
HETATM   25  C   UNL     1     -44.089  55.984 -59.903  1.00  0.00     0.409 C 
HETATM   26  F   UNL     1     -43.879  54.667 -60.074  1.00  0.00    -0.169 F 
HETATM   27  F   UNL     1     -45.200  56.119 -59.134  1.00  0.00    -0.169 F 
HETATM   28  F   UNL     1     -44.407  56.501 -61.115  1.00  0.00    -0.169 F 
ENDBRANCH   8  25
BRANCH   1  29
HETATM   29  C   UNL     1     -45.094  59.371 -59.422  1.00  0.00    -0.035 A 
HETATM   30  C   UNL     1     -45.281  59.721 -60.770  1.00  0.00     0.010 A 
HETATM   31  C   UNL     1     -46.560  59.954 -61.286  1.00  0.00     0.007 A 
HETATM   32  C   UNL     1     -47.685  59.847 -60.465  1.00  0.00    -0.062 A 
HETATM   33  C   UNL     1     -49.064  60.075 -61.008  1.00  0.00     0.048 C 
HETATM   34  C   UNL     1     -47.512  59.483 -59.127  1.00  0.00     0.007 A 
HETATM   35  C   UNL     1     -46.232  59.257 -58.611  1.00  0.00     0.010 A 
ENDBRANCH   1  29
TORSDOF 6
ENDMDL
MODEL 4
REMARK VINA RESULT:      -8.5      3.576      9.964
REMARK  6 active torsions:
REMARK  status: ('A' for Active; 'I' for Inactive)
REMARK    1  A    between atoms: C_5  and  C_6 
REMARK    2  A    between atoms: C_11  and  C_12 
REMARK       I    between atoms: C_12  and  N_13 
REMARK    3  A    between atoms: N_13  and  C_14 
REMARK    4  A    between atoms: C_17  and  C_18 
REMARK    5  A    between atoms: C_18  and  O_19 
REMARK    6  A    between atoms: C_25  and  C_26 
ROOT
HETATM    1  C   UNL     1     -42.832  61.633 -50.505  1.00  0.00     0.118 C 
HETATM    2  N   UNL     1     -42.276  60.296 -50.350  1.00  0.00    -0.366 N 
HETATM    3  C   UNL     1     -42.553  59.288 -51.199  1.00  0.00     0.123 A 
HETATM    4  N   UNL     1     -43.323  59.470 -52.313  1.00  0.00    -0.240 N 
HETATM    5  N   UNL     1     -43.421  58.376 -53.097  1.00  0.00    -0.165 NA
HETATM    6  C   UNL     1     -42.751  57.430 -52.397  1.00  0.00     0.148 A 
HETATM    7  C   UNL     1     -42.194  57.967 -51.204  1.00  0.00     0.089 A 
HETATM    8  C   UNL     1     -43.943  60.730 -52.673  1.00  0.00     0.221 C 
HETATM    9  C   UNL     1     -43.236  61.902 -51.966  1.00  0.00     0.066 C 
HETATM   10  H   UNL     1     -41.803  60.122 -49.464  1.00  0.00     0.161 HD
ENDROOT
BRANCH   6  11
HETATM   11  C   UNL     1     -42.626  56.037 -52.863  1.00  0.00     0.276 C 
HETATM   12  N   UNL     1     -41.349  55.540 -52.681  1.00  0.00    -0.322 N 
HETATM   13  H   UNL     1     -40.711  56.207 -52.255  1.00  0.00     0.169 HD
HETATM   14  O   UNL     1     -43.585  55.440 -53.338  1.00  0.00    -0.266 OA
BRANCH  12  15
HETATM   15  C   UNL     1     -40.866  54.256 -52.986  1.00  0.00     0.035 A 
HETATM   16  C   UNL     1     -40.665  53.791 -54.286  1.00  0.00     0.030 A 
HETATM   17  C   UNL     1     -40.193  52.491 -54.510  1.00  0.00     0.012 A 
HETATM   18  C   UNL     1     -39.909  51.632 -53.442  1.00  0.00    -0.030 A 
HETATM   19  C   UNL     1     -40.109  52.105 -52.138  1.00  0.00     0.012 A 
HETATM   20  C   UNL     1     -40.577  53.405 -51.914  1.00  0.00     0.030 A 
BRANCH  18  21
HETATM   21  C   UNL     1     -39.444  50.214 -53.680  1.00  0.00     0.147 C 
HETATM   22  C   UNL     1     -39.568  49.367 -52.418  1.00  0.00     0.044 C 
BRANCH  21  23
HETATM   23  O   UNL     1     -40.217  49.619 -54.721  1.00  0.00    -0.391 OA
HETATM   24  H   UNL     1     -41.084  50.054 -54.719  1.00  0.00     0.210 HD
ENDBRANCH  21  23
ENDBRANCH  18  21
ENDBRANCH  12  15
ENDBRANCH   6  11
BRANCH   8  25
HETATM   25  C   UNL     1     -45.432  60.671 -52.422  1.00  0.00     0.409 C 
HETATM   26  F   UNL     1     -45.795  59.787 -51.476  1.00  0.00    -0.169 F 
HETATM   27  F   UNL     1     -45.889  61.889 -52.033  1.00  0.00    -0.169 F 
HETATM   28  F   UNL     1     -46.116  60.357 -53.549  1.00  0.00    -0.169 F 
ENDBRANCH   8  25
BRANCH   1  29
HETATM   29  C   UNL     1     -43.896  61.949 -49.469  1.00  0.00    -0.035 A 
HETATM   30  C   UNL     1     -44.177  63.292 -49.165  1.00  0.00     0.010 A 
HETATM   31  C   UNL     1     -45.118  63.630 -48.186  1.00  0.00     0.007 A 
HETATM   32  C   UNL     1     -45.799  62.633 -47.483  1.00  0.00    -0.062 A 
HETATM   33  C   UNL     1     -46.823  62.980 -46.445  1.00  0.00     0.048 C 
HETATM   34  C   UNL     1     -45.539  61.294 -47.790  1.00  0.00     0.007 A 
HETATM   35  C   UNL     1     -44.594  60.958 -48.764  1.00  0.00     0.010 A 
ENDBRANCH   1  29
TORSDOF 6
ENDMDL
MODEL 5
REMARK VINA RESULT:      -8.2      6.022      9.904
REMARK  6 active torsions:
REMARK  status: ('A' for Active; 'I' for Inactive)
REMARK    1  A    between atoms: C_5  and  C_6 
REMARK    2  A    between atoms: C_11  and  C_12 
REMARK       I    between atoms: C_12  and  N_13 
REMARK    3  A    between atoms: N_13  and  C_14 
REMARK    4  A    between atoms: C_17  and  C_18 
REMARK    5  A    between atoms: C_18  and  O_19 
REMARK    6  A    between atoms: C_25  and  C_26 
ROOT
HETATM    1  C   UNL     1     -43.996  60.377 -57.311  1.00  0.00     0.118 C 
HETATM    2  N   UNL     1     -43.714  58.996 -57.683  1.00  0.00    -0.366 N 
HETATM    3  C   UNL     1     -43.443  58.038 -56.776  1.00  0.00     0.123 A 
HETATM    4  N   UNL     1     -43.484  58.279 -55.432  1.00  0.00    -0.240 N 
HETATM    5  N   UNL     1     -43.276  57.184 -54.672  1.00  0.00    -0.165 NA
HETATM    6  C   UNL     1     -43.002  56.220 -55.582  1.00  0.00     0.148 A 
HETATM    7  C   UNL     1     -43.099  56.720 -56.910  1.00  0.00     0.089 A 
HETATM    8  C   UNL     1     -43.780  59.573 -54.850  1.00  0.00     0.221 C 
HETATM    9  C   UNL     1     -44.516  60.468 -55.865  1.00  0.00     0.066 C 
HETATM   10  H   UNL     1     -43.563  58.837 -58.678  1.00  0.00     0.161 HD
ENDROOT
BRANCH   6  11
HETATM   11  C   UNL     1     -42.669  54.836 -55.198  1.00  0.00     0.276 C 
HETATM   12  N   UNL     1     -41.539  54.773 -54.404  1.00  0.00    -0.322 N 
HETATM   13  H   UNL     1     -41.128  55.682 -54.211  1.00  0.00     0.169 HD
HETATM   14  O   UNL     1     -43.362  53.894 -55.565  1.00  0.00    -0.266 OA
BRANCH  12  15
HETATM   15  C   UNL     1     -40.939  53.636 -53.838  1.00  0.00     0.035 A 
HETATM   16  C   UNL     1     -40.456  52.560 -54.583  1.00  0.00     0.030 A 
HETATM   17  C   UNL     1     -39.882  51.453 -53.945  1.00  0.00     0.012 A 
HETATM   18  C   UNL     1     -39.777  51.399 -52.550  1.00  0.00    -0.030 A 
HETATM   19  C   UNL     1     -40.260  52.483 -51.805  1.00  0.00     0.012 A 
HETATM   20  C   UNL     1     -40.830  53.591 -52.444  1.00  0.00     0.030 A 
BRANCH  18  21
HETATM   21  C   UNL     1     -39.200  50.188 -51.854  1.00  0.00     0.147 C 
HETATM   22  C   UNL     1     -39.824  49.986 -50.478  1.00  0.00     0.044 C 
BRANCH  21  23
HETATM   23  O   UNL     1     -39.425  49.022 -52.646  1.00  0.00    -0.391 OA
HETATM   24  H   UNL     1     -40.326  48.716 -52.457  1.00  0.00     0.210 HD
ENDBRANCH  21  23
ENDBRANCH  18  21
ENDBRANCH  12  15
ENDBRANCH   6  11
BRANCH   8  25
HETATM   25  C   UNL     1     -42.522  60.192 -54.284  1.00  0.00     0.409 C 
HETATM   26  F   UNL     1     -41.393  59.798 -54.898  1.00  0.00    -0.169 F 
HETATM   27  F   UNL     1     -42.583  61.545 -54.381  1.00  0.00    -0.169 F 
HETATM   28  F   UNL     1     -42.380  59.917 -52.965  1.00  0.00    -0.169 F 
ENDBRANCH   8  25
BRANCH   1  29
HETATM   29  C   UNL     1     -42.855  61.319 -57.651  1.00  0.00    -0.035 A 
HETATM   30  C   UNL     1     -43.070  62.706 -57.581  1.00  0.00     0.010 A 
HETATM   31  C   UNL     1     -42.063  63.613 -57.928  1.00  0.00     0.007 A 
HETATM   32  C   UNL     1     -40.815  63.155 -58.357  1.00  0.00    -0.062 A 
HETATM   33  C   UNL     1     -39.720  64.114 -58.713  1.00  0.00     0.048 C 
HETATM   34  C   UNL     1     -40.584  61.777 -58.413  1.00  0.00     0.007 A 
HETATM   35  C   UNL     1     -41.595  60.872 -58.073  1.00  0.00     0.010 A 
ENDBRANCH   1  29
TORSDOF 6
ENDMDL
MODEL 6
REMARK VINA RESULT:      -8.2      5.862      9.016
REMARK  6 active torsions:
REMARK  status: ('A' for Active; 'I' for Inactive)
REMARK    1  A    between atoms: C_5  and  C_6 
REMARK    2  A    between atoms: C_11  and  C_12 
REMARK       I    between atoms: C_12  and  N_13 
REMARK    3  A    between atoms: N_13  and  C_14 
REMARK    4  A    between atoms: C_17  and  C_18 
REMARK    5  A    between atoms: C_18  and  O_19 
REMARK    6  A    between atoms: C_25  and  C_26 
ROOT
HETATM    1  C   UNL     1     -43.280  54.156 -52.770  1.00  0.00     0.118 C 
HETATM    2  N   UNL     1     -43.837  55.462 -53.096  1.00  0.00    -0.366 N 
HETATM    3  C   UNL     1     -43.409  56.197 -54.142  1.00  0.00     0.123 A 
HETATM    4  N   UNL     1     -42.466  55.734 -55.016  1.00  0.00    -0.240 N 
HETATM    5  N   UNL     1     -42.226  56.562 -56.052  1.00  0.00    -0.165 NA
HETATM    6  C   UNL     1     -42.990  57.644 -55.771  1.00  0.00     0.148 A 
HETATM    7  C   UNL     1     -43.745  57.448 -54.582  1.00  0.00     0.089 A 
HETATM    8  C   UNL     1     -41.812  54.446 -54.894  1.00  0.00     0.221 C 
HETATM    9  C   UNL     1     -42.641  53.498 -54.007  1.00  0.00     0.066 C 
HETATM   10  H   UNL     1     -44.448  55.864 -52.387  1.00  0.00     0.161 HD
ENDROOT
BRANCH   6  11
HETATM   11  C   UNL     1     -43.018  58.842 -56.630  1.00  0.00     0.276 C 
HETATM   12  N   UNL     1     -42.044  58.804 -57.609  1.00  0.00    -0.322 N 
HETATM   13  H   UNL     1     -41.475  57.962 -57.582  1.00  0.00     0.169 HD
HETATM   14  O   UNL     1     -43.844  59.730 -56.449  1.00  0.00    -0.266 OA
BRANCH  12  15
HETATM   15  C   UNL     1     -41.784  59.754 -58.612  1.00  0.00     0.035 A 
HETATM   16  C   UNL     1     -41.211  61.002 -58.369  1.00  0.00     0.030 A 
HETATM   17  C   UNL     1     -40.995  61.902 -59.420  1.00  0.00     0.012 A 
HETATM   18  C   UNL     1     -41.345  61.572 -60.736  1.00  0.00    -0.030 A 
HETATM   19  C   UNL     1     -41.917  60.316 -60.975  1.00  0.00     0.012 A 
HETATM   20  C   UNL     1     -42.128  59.415 -59.924  1.00  0.00     0.030 A 
BRANCH  18  21
HETATM   21  C   UNL     1     -41.157  62.557 -61.866  1.00  0.00     0.147 C 
HETATM   22  C   UNL     1     -39.759  63.165 -61.849  1.00  0.00     0.044 C 
BRANCH  21  23
HETATM   23  O   UNL     1     -41.369  61.904 -63.117  1.00  0.00    -0.391 OA
HETATM   24  H   UNL     1     -42.289  62.073 -63.376  1.00  0.00     0.210 HD
ENDBRANCH  21  23
ENDBRANCH  18  21
ENDBRANCH  12  15
ENDBRANCH   6  11
BRANCH   8  25
HETATM   25  C   UNL     1     -40.384  54.627 -54.431  1.00  0.00     0.409 C 
HETATM   26  F   UNL     1     -39.511  54.869 -55.424  1.00  0.00    -0.169 F 
HETATM   27  F   UNL     1     -40.304  55.666 -53.561  1.00  0.00    -0.169 F 
HETATM   28  F   UNL     1     -39.936  53.539 -53.758  1.00  0.00    -0.169 F 
ENDBRANCH   8  25
BRANCH   1  29
HETATM   29  C   UNL     1     -42.407  54.186 -51.527  1.00  0.00    -0.035 A 
HETATM   30  C   UNL     1     -41.535  53.112 -51.279  1.00  0.00     0.010 A 
HETATM   31  C   UNL     1     -40.744  53.075 -50.125  1.00  0.00     0.007 A 
HETATM   32  C   UNL     1     -40.808  54.109 -49.189  1.00  0.00    -0.062 A 
HETATM   33  C   UNL     1     -39.953  54.092 -47.958  1.00  0.00     0.048 C 
HETATM   34  C   UNL     1     -41.659  55.190 -49.435  1.00  0.00     0.007 A 
HETATM   35  C   UNL     1     -42.454  55.223 -50.585  1.00  0.00     0.010 A 
ENDBRANCH   1  29
TORSDOF 6
ENDMDL
MODEL 7
REMARK VINA RESULT:      -7.8      4.176      9.634
REMARK  6 active torsions:
REMARK  status: ('A' for Active; 'I' for Inactive)
REMARK    1  A    between atoms: C_5  and  C_6 
REMARK    2  A    between atoms: C_11  and  C_12 
REMARK       I    between atoms: C_12  and  N_13 
REMARK    3  A    between atoms: N_13  and  C_14 
REMARK    4  A    between atoms: C_17  and  C_18 
REMARK    5  A    between atoms: C_18  and  O_19 
REMARK    6  A    between atoms: C_25  and  C_26 
ROOT
HETATM    1  C   UNL     1     -45.598  60.979 -53.397  1.00  0.00     0.118 C 
HETATM    2  N   UNL     1     -45.520  59.583 -53.807  1.00  0.00    -0.366 N 
HETATM    3  C   UNL     1     -44.792  58.667 -53.138  1.00  0.00     0.123 A 
HETATM    4  N   UNL     1     -44.130  58.970 -51.982  1.00  0.00    -0.240 N 
HETATM    5  N   UNL     1     -43.531  57.911 -51.400  1.00  0.00    -0.165 NA
HETATM    6  C   UNL     1     -43.749  56.906 -52.280  1.00  0.00     0.148 A 
HETATM    7  C   UNL     1     -44.538  57.344 -53.380  1.00  0.00     0.089 A 
HETATM    8  C   UNL     1     -44.109  60.290 -51.383  1.00  0.00     0.221 C 
HETATM    9  C   UNL     1     -45.287  61.138 -51.898  1.00  0.00     0.066 C 
HETATM   10  H   UNL     1     -45.907  59.377 -54.726  1.00  0.00     0.161 HD
ENDROOT
BRANCH   6  11
HETATM   11  C   UNL     1     -43.232  55.541 -52.072  1.00  0.00     0.276 C 
HETATM   12  N   UNL     1     -42.302  55.184 -53.030  1.00  0.00    -0.322 N 
HETATM   13  H   UNL     1     -42.123  55.916 -53.713  1.00  0.00     0.169 HD
HETATM   14  O   UNL     1     -43.617  54.856 -51.132  1.00  0.00    -0.266 OA
BRANCH  12  15
HETATM   15  C   UNL     1     -41.589  53.979 -53.142  1.00  0.00     0.035 A 
HETATM   16  C   UNL     1     -40.674  53.527 -52.190  1.00  0.00     0.030 A 
HETATM   17  C   UNL     1     -39.991  52.320 -52.378  1.00  0.00     0.012 A 
HETATM   18  C   UNL     1     -40.208  51.537 -53.519  1.00  0.00    -0.030 A 
HETATM   19  C   UNL     1     -41.130  51.993 -54.470  1.00  0.00     0.012 A 
HETATM   20  C   UNL     1     -41.817  53.198 -54.279  1.00  0.00     0.030 A 
BRANCH  18  21
HETATM   21  C   UNL     1     -39.439  50.256 -53.749  1.00  0.00     0.147 C 
HETATM   22  C   UNL     1     -39.466  49.362 -52.515  1.00  0.00     0.044 C 
BRANCH  21  23
HETATM   23  O   UNL     1     -39.998  49.548 -54.854  1.00  0.00    -0.391 OA
HETATM   24  H   UNL     1     -40.500  48.800 -54.491  1.00  0.00     0.210 HD
ENDBRANCH  21  23
ENDBRANCH  18  21
ENDBRANCH  12  15
ENDBRANCH   6  11
BRANCH   8  25
HETATM   25  C   UNL     1     -42.756  60.933 -51.584  1.00  0.00     0.409 C 
HETATM   26  F   UNL     1     -42.153  60.595 -52.737  1.00  0.00    -0.169 F 
HETATM   27  F   UNL     1     -42.876  62.286 -51.574  1.00  0.00    -0.169 F 
HETATM   28  F   UNL     1     -41.902  60.625 -50.578  1.00  0.00    -0.169 F 
ENDBRANCH   8  25
BRANCH   1  29
HETATM   29  C   UNL     1     -44.825  61.904 -54.321  1.00  0.00    -0.035 A 
HETATM   30  C   UNL     1     -44.104  61.353 -55.394  1.00  0.00     0.010 A 
HETATM   31  C   UNL     1     -43.342  62.161 -56.245  1.00  0.00     0.007 A 
HETATM   32  C   UNL     1     -43.279  63.541 -56.041  1.00  0.00    -0.062 A 
HETATM   33  C   UNL     1     -42.482  64.422 -56.956  1.00  0.00     0.048 C 
HETATM   34  C   UNL     1     -44.006  64.102 -54.987  1.00  0.00     0.007 A 
HETATM   35  C   UNL     1     -44.762  63.292 -54.134  1.00  0.00     0.010 A 
ENDBRANCH   1  29
TORSDOF 6
ENDMDL
MODEL 8
REMARK VINA RESULT:      -7.6      5.511      8.907
REMARK  6 active torsions:
REMARK  status: ('A' for Active; 'I' for Inactive)
REMARK    1  A    between atoms: C_5  and  C_6 
REMARK    2  A    between atoms: C_11  and  C_12 
REMARK       I    between atoms: C_12  and  N_13 
REMARK    3  A    between atoms: N_13  and  C_14 
REMARK    4  A    between atoms: C_17  and  C_18 
REMARK    5  A    between atoms: C_18  and  O_19 
REMARK    6  A    between atoms: C_25  and  C_26 
ROOT
HETATM    1  C   UNL     1     -41.704  56.450 -51.693  1.00  0.00     0.118 C 
HETATM    2  N   UNL     1     -41.044  57.518 -52.433  1.00  0.00    -0.366 N 
HETATM    3  C   UNL     1     -41.644  58.187 -53.437  1.00  0.00     0.123 A 
HETATM    4  N   UNL     1     -42.945  57.958 -53.785  1.00  0.00    -0.240 N 
HETATM    5  N   UNL     1     -43.408  58.781 -54.748  1.00  0.00    -0.165 NA
HETATM    6  C   UNL     1     -42.317  59.508 -55.089  1.00  0.00     0.148 A 
HETATM    7  C   UNL     1     -41.195  59.162 -54.286  1.00  0.00     0.089 A 
HETATM    8  C   UNL     1     -43.791  56.966 -53.152  1.00  0.00     0.221 C 
HETATM    9  C   UNL     1     -43.236  56.586 -51.766  1.00  0.00     0.066 C 
HETATM   10  H   UNL     1     -40.044  57.611 -52.263  1.00  0.00     0.161 HD
ENDROOT
BRANCH   6  11
HETATM   11  C   UNL     1     -42.343  60.531 -56.150  1.00  0.00     0.276 C 
HETATM   12  N   UNL     1     -41.611  60.149 -57.259  1.00  0.00    -0.322 N 
HETATM   13  H   UNL     1     -41.183  59.232 -57.166  1.00  0.00     0.169 HD
HETATM   14  O   UNL     1     -42.970  61.574 -56.007  1.00  0.00    -0.266 OA
BRANCH  12  15
HETATM   15  C   UNL     1     -41.425  60.854 -58.461  1.00  0.00     0.035 A 
HETATM   16  C   UNL     1     -42.092  60.552 -59.648  1.00  0.00     0.030 A 
HETATM   17  C   UNL     1     -41.843  61.292 -60.811  1.00  0.00     0.012 A 
HETATM   18  C   UNL     1     -40.925  62.350 -60.810  1.00  0.00    -0.030 A 
HETATM   19  C   UNL     1     -40.260  62.651 -59.615  1.00  0.00     0.012 A 
HETATM   20  C   UNL     1     -40.513  61.914 -58.451  1.00  0.00     0.030 A 
BRANCH  18  21
HETATM   21  C   UNL     1     -40.619  63.122 -62.073  1.00  0.00     0.147 C 
HETATM   22  C   UNL     1     -39.201  63.680 -62.055  1.00  0.00     0.044 C 
BRANCH  21  23
HETATM   23  O   UNL     1     -40.774  62.272 -63.209  1.00  0.00    -0.391 OA
HETATM   24  H   UNL     1     -41.376  61.556 -62.952  1.00  0.00     0.210 HD
ENDBRANCH  21  23
ENDBRANCH  18  21
ENDBRANCH  12  15
ENDBRANCH   6  11
BRANCH   8  25
HETATM   25  C   UNL     1     -43.995  55.787 -54.075  1.00  0.00     0.409 C 
HETATM   26  F   UNL     1     -43.987  54.595 -53.454  1.00  0.00    -0.169 F 
HETATM   27  F   UNL     1     -45.186  55.899 -54.718  1.00  0.00    -0.169 F 
HETATM   28  F   UNL     1     -43.049  55.742 -55.044  1.00  0.00    -0.169 F 
ENDBRANCH   8  25
BRANCH   1  29
HETATM   29  C   UNL     1     -41.157  55.076 -52.037  1.00  0.00    -0.035 A 
HETATM   30  C   UNL     1     -40.725  54.820 -53.349  1.00  0.00     0.010 A 
HETATM   31  C   UNL     1     -40.256  53.557 -53.723  1.00  0.00     0.007 A 
HETATM   32  C   UNL     1     -40.211  52.515 -52.794  1.00  0.00    -0.062 A 
HETATM   33  C   UNL     1     -39.692  51.161 -53.175  1.00  0.00     0.048 C 
HETATM   34  C   UNL     1     -40.622  52.763 -51.481  1.00  0.00     0.007 A 
HETATM   35  C   UNL     1     -41.097  54.024 -51.111  1.00  0.00     0.010 A 
ENDBRANCH   1  29
TORSDOF 6
ENDMDL
MODEL 9
REMARK VINA RESULT:      -7.5     19.236     22.447
REMARK  6 active torsions:
REMARK  status: ('A' for Active; 'I' for Inactive)
REMARK    1  A    between atoms: C_5  and  C_6 
REMARK    2  A    between atoms: C_11  and  C_12 
REMARK       I    between atoms: C_12  and  N_13 
REMARK    3  A    between atoms: N_13  and  C_14 
REMARK    4  A    between atoms: C_17  and  C_18 
REMARK    5  A    between atoms: C_18  and  O_19 
REMARK    6  A    between atoms: C_25  and  C_26 
ROOT
HETATM    1  C   UNL     1     -33.824  41.387 -52.329  1.00  0.00     0.118 C 
HETATM    2  N   UNL     1     -33.723  41.103 -53.755  1.00  0.00    -0.366 N 
HETATM    3  C   UNL     1     -34.785  41.145 -54.584  1.00  0.00     0.123 A 
HETATM    4  N   UNL     1     -36.024  41.530 -54.156  1.00  0.00    -0.240 N 
HETATM    5  N   UNL     1     -36.945  41.602 -55.138  1.00  0.00    -0.165 NA
HETATM    6  C   UNL     1     -36.277  41.154 -56.226  1.00  0.00     0.148 A 
HETATM    7  C   UNL     1     -34.920  40.860 -55.916  1.00  0.00     0.089 A 
HETATM    8  C   UNL     1     -36.332  41.889 -52.785  1.00  0.00     0.221 C 
HETATM    9  C   UNL     1     -35.049  42.269 -52.023  1.00  0.00     0.066 C 
HETATM   10  H   UNL     1     -32.837  40.701 -54.056  1.00  0.00     0.161 HD
ENDROOT
BRANCH   6  11
HETATM   11  C   UNL     1     -36.911  41.024 -57.551  1.00  0.00     0.276 C 
HETATM   12  N   UNL     1     -37.042  39.703 -57.938  1.00  0.00    -0.322 N 
HETATM   13  H   UNL     1     -36.689  39.043 -57.251  1.00  0.00     0.169 HD
HETATM   14  O   UNL     1     -37.267  42.013 -58.182  1.00  0.00    -0.266 OA
BRANCH  12  15
HETATM   15  C   UNL     1     -37.612  39.197 -59.119  1.00  0.00     0.035 A 
HETATM   16  C   UNL     1     -37.236  39.605 -60.399  1.00  0.00     0.030 A 
HETATM   17  C   UNL     1     -37.861  39.064 -61.529  1.00  0.00     0.012 A 
HETATM   18  C   UNL     1     -38.872  38.103 -61.404  1.00  0.00    -0.030 A 
HETATM   19  C   UNL     1     -39.245  37.695 -60.117  1.00  0.00     0.012 A 
HETATM   20  C   UNL     1     -38.616  38.233 -58.987  1.00  0.00     0.030 A 
BRANCH  18  21
HETATM   21  C   UNL     1     -39.582  37.550 -62.619  1.00  0.00     0.147 C 
HETATM   22  C   UNL     1     -41.016  38.059 -62.706  1.00  0.00     0.044 C 
BRANCH  21  23
HETATM   23  O   UNL     1     -38.878  37.926 -63.803  1.00  0.00    -0.391 OA
HETATM   24  H   UNL     1     -38.116  38.459 -63.526  1.00  0.00     0.210 HD
ENDBRANCH  21  23
ENDBRANCH  18  21
ENDBRANCH  12  15
ENDBRANCH   6  11
BRANCH   8  25
HETATM   25  C   UNL     1     -37.136  40.793 -52.126  1.00  0.00     0.409 C 
HETATM   26  F   UNL     1     -36.841  40.600 -50.828  1.00  0.00    -0.169 F 
HETATM   27  F   UNL     1     -38.462  41.077 -52.200  1.00  0.00    -0.169 F 
HETATM   28  F   UNL     1     -36.972  39.604 -52.757  1.00  0.00    -0.169 F 
ENDBRANCH   8  25
BRANCH   1  29
HETATM   29  C   UNL     1     -33.692  40.140 -51.473  1.00  0.00    -0.035 A 
HETATM   30  C   UNL     1     -33.366  40.277 -50.113  1.00  0.00     0.010 A 
HETATM   31  C   UNL     1     -33.190  39.155 -49.295  1.00  0.00     0.007 A 
HETATM   32  C   UNL     1     -33.332  37.868 -49.819  1.00  0.00    -0.062 A 
HETATM   33  C   UNL     1     -33.166  36.658 -48.950  1.00  0.00     0.048 C 
HETATM   34  C   UNL     1     -33.673  37.721 -51.166  1.00  0.00     0.007 A 
HETATM   35  C   UNL     1     -33.842  38.843 -51.984  1.00  0.00     0.010 A 
ENDBRANCH   1  29
TORSDOF 6
ENDMDL
MODEL 10
REMARK VINA RESULT:      -7.4      5.939      8.574
REMARK  6 active torsions:
REMARK  status: ('A' for Active; 'I' for Inactive)
REMARK    1  A    between atoms: C_5  and  C_6 
REMARK    2  A    between atoms: C_11  and  C_12 
REMARK       I    between atoms: C_12  and  N_13 
REMARK    3  A    between atoms: N_13  and  C_14 
REMARK    4  A    between atoms: C_17  and  C_18 
REMARK    5  A    between atoms: C_18  and  O_19 
REMARK    6  A    between atoms: C_25  and  C_26 
ROOT
HETATM    1  C   UNL     1     -40.404  55.141 -52.279  1.00  0.00     0.118 C 
HETATM    2  N   UNL     1     -40.696  55.906 -53.484  1.00  0.00    -0.366 N 
HETATM    3  C   UNL     1     -41.926  56.375 -53.770  1.00  0.00     0.123 A 
HETATM    4  N   UNL     1     -42.977  56.227 -52.909  1.00  0.00    -0.240 N 
HETATM    5  N   UNL     1     -44.108  56.838 -53.315  1.00  0.00    -0.165 NA
HETATM    6  C   UNL     1     -43.781  57.320 -54.537  1.00  0.00     0.148 A 
HETATM    7  C   UNL     1     -42.421  57.050 -54.853  1.00  0.00     0.089 A 
HETATM    8  C   UNL     1     -42.892  55.531 -51.640  1.00  0.00     0.221 C 
HETATM    9  C   UNL     1     -41.429  55.439 -51.169  1.00  0.00     0.066 C 
HETATM   10  H   UNL     1     -39.954  55.916 -54.183  1.00  0.00     0.161 HD
ENDROOT
BRANCH   6  11
HETATM   11  C   UNL     1     -44.742  58.047 -55.389  1.00  0.00     0.276 C 
HETATM   12  N   UNL     1     -44.706  57.613 -56.701  1.00  0.00    -0.322 N 
HETATM   13  H   UNL     1     -44.035  56.868 -56.863  1.00  0.00     0.169 HD
HETATM   14  O   UNL     1     -45.467  58.917 -54.922  1.00  0.00    -0.266 OA
BRANCH  12  15
HETATM   15  C   UNL     1     -45.486  58.057 -57.782  1.00  0.00     0.035 A 
HETATM   16  C   UNL     1     -46.877  58.151 -57.750  1.00  0.00     0.030 A 
HETATM   17  C   UNL     1     -47.586  58.590 -58.875  1.00  0.00     0.012 A 
HETATM   18  C   UNL     1     -46.920  58.944 -60.055  1.00  0.00    -0.030 A 
HETATM   19  C   UNL     1     -45.523  58.850 -60.082  1.00  0.00     0.012 A 
HETATM   20  C   UNL     1     -44.814  58.416 -58.955  1.00  0.00     0.030 A 
BRANCH  18  21
HETATM   21  C   UNL     1     -47.684  59.374 -61.286  1.00  0.00     0.147 C 
HETATM   22  C   UNL     1     -48.643  60.518 -60.977  1.00  0.00     0.044 C 
BRANCH  21  23
HETATM   23  O   UNL     1     -46.771  59.788 -62.302  1.00  0.00    -0.391 OA
HETATM   24  H   UNL     1     -46.934  59.230 -63.079  1.00  0.00     0.210 HD
ENDBRANCH  21  23
ENDBRANCH  18  21
ENDBRANCH  12  15
ENDBRANCH   6  11
BRANCH   8  25
HETATM   25  C   UNL     1     -43.593  54.195 -51.730  1.00  0.00     0.409 C 
HETATM   26  F   UNL     1     -42.859  53.159 -51.289  1.00  0.00    -0.169 F 
HETATM   27  F   UNL     1     -44.737  54.218 -50.998  1.00  0.00    -0.169 F 
HETATM   28  F   UNL     1     -43.968  53.912 -53.001  1.00  0.00    -0.169 F 
ENDBRANCH   8  25
BRANCH   1  29
HETATM   29  C   UNL     1     -40.167  53.668 -52.563  1.00  0.00    -0.035 A 
HETATM   30  C   UNL     1     -40.458  53.163 -53.842  1.00  0.00     0.010 A 
HETATM   31  C   UNL     1     -40.296  51.805 -54.137  1.00  0.00     0.007 A 
HETATM   32  C   UNL     1     -39.843  50.917 -53.159  1.00  0.00    -0.062 A 
HETATM   33  C   UNL     1     -39.648  49.463 -53.466  1.00  0.00     0.048 C 
HETATM   34  C   UNL     1     -39.535  51.412 -51.889  1.00  0.00     0.007 A 
HETATM   35  C   UNL     1     -39.703  52.768 -51.593  1.00  0.00     0.010 A 
ENDBRANCH   1  29
TORSDOF 6
ENDMDL
