MODEL 1
REMARK VINA RESULT:      -9.5      0.000      0.000
REMARK  7 active torsions:
REMARK  status: ('A' for Active; 'I' for Inactive)
REMARK    1  A    between atoms: C_2  and  O_3 
REMARK    2  A    between atoms: O_3  and  C_4 
REMARK    3  A    between atoms: C_5  and  O_6 
REMARK    4  A    between atoms: C_7  and  C_8 
REMARK    5  A    between atoms: N_9  and  N_10 
REMARK       I    between atoms: N_10  and  C_11 
REMARK    6  A    between atoms: C_11  and  C_12 
REMARK    7  A    between atoms: C_16  and  C_17 
ROOT
HETATM    1  C   UNL     1     -41.520  57.501 -53.311  1.00  0.00     0.121 A 
HETATM    2  N   UNL     1     -41.829  57.670 -51.990  1.00  0.00    -0.272 N 
HETATM    3  H   UNL     1     -42.147  58.528 -51.549  1.00  0.00     0.189 HD
HETATM    4  N   UNL     1     -41.638  56.579 -51.236  1.00  0.00    -0.174 NA
HETATM    5  C   UNL     1     -41.217  55.638 -52.093  1.00  0.00     0.090 A 
HETATM    6  C   UNL     1     -41.151  56.174 -53.414  1.00  0.00     0.071 A 
ENDROOT
BRANCH   1   7
HETATM    7  C   UNL     1     -41.593  58.602 -54.239  1.00  0.00     0.289 C 
HETATM    8  N   UNL     1     -42.422  58.385 -55.329  1.00  0.00    -0.242 N 
HETATM    9  H   UNL     1     -42.915  57.507 -55.429  1.00  0.00     0.192 HD
HETATM   10  O   UNL     1     -40.930  59.621 -54.064  1.00  0.00    -0.264 OA
BRANCH   8  11
HETATM   11  N   UNL     1     -42.418  59.259 -56.377  1.00  0.00    -0.183 NA
HETATM   12  C   UNL     1     -42.012  58.771 -57.507  1.00  0.00     0.153 C 
BRANCH  12  13
HETATM   13  C   UNL     1     -41.880  59.612 -58.712  1.00  0.00     0.019 A 
HETATM   14  C   UNL     1     -41.345  60.897 -58.614  1.00  0.00     0.110 A 
HETATM   15  C   UNL     1     -41.266  61.730 -59.739  1.00  0.00     0.102 A 
HETATM   16  C   UNL     1     -41.709  61.254 -60.975  1.00  0.00     0.040 A 
HETATM   17  C   UNL     1     -42.236  59.963 -61.079  1.00  0.00     0.004 A 
HETATM   18  C   UNL     1     -42.326  59.144 -59.951  1.00  0.00     0.016 A 
BRANCH  14  19
HETATM   19  O   UNL     1     -40.900  61.377 -57.407  1.00  0.00    -0.357 OA
HETATM   20  H   UNL     1     -40.857  62.348 -57.521  1.00  0.00     0.218 HD
ENDBRANCH  14  19
BRANCH  15  21
HETATM   21  O   UNL     1     -40.739  62.974 -59.498  1.00  0.00    -0.349 OA
BRANCH  21  22
HETATM   22  C   UNL     1     -39.732  63.428 -60.405  1.00  0.00     0.171 C 
HETATM   23  C   UNL     1     -38.618  64.056 -59.586  1.00  0.00     0.034 C 
ENDBRANCH  21  22
ENDBRANCH  15  21
ENDBRANCH  12  13
ENDBRANCH   8  11
ENDBRANCH   1   7
BRANCH   5  24
HETATM   24  C   UNL     1     -40.831  54.288 -51.661  1.00  0.00     0.005 A 
HETATM   25  C   UNL     1     -40.510  53.245 -52.583  1.00  0.00    -0.012 A 
HETATM   26  C   UNL     1     -40.196  52.027 -52.026  1.00  0.00    -0.012 A 
HETATM   27  C   UNL     1     -40.459  53.277 -54.001  1.00  0.00     0.013 A 
HETATM   28  C   UNL     1     -39.869  50.895 -52.751  1.00  0.00    -0.046 A 
HETATM   29  C   UNL     1     -40.168  51.772 -50.668  1.00  0.00    -0.046 A 
HETATM   30  C   UNL     1     -39.829  50.910 -54.137  1.00  0.00     0.008 A 
HETATM   31  C   UNL     1     -39.600  49.751 -51.838  1.00  0.00     0.044 A 
HETATM   32  C   UNL     1     -40.129  52.132 -54.753  1.00  0.00     0.001 A 
HETATM   33  C   UNL     1     -39.794  50.354 -50.413  1.00  0.00     0.044 A 
HETATM   34  C   UNL     1     -40.466  52.758 -49.743  1.00  0.00     0.009 A 
HETATM   35  C   UNL     1     -40.801  54.018 -50.265  1.00  0.00     0.015 A 
ENDBRANCH   5  24
TORSDOF 7
ENDMDL
MODEL 2
REMARK VINA RESULT:      -9.2      5.581      8.158
REMARK  7 active torsions:
REMARK  status: ('A' for Active; 'I' for Inactive)
REMARK    1  A    between atoms: C_2  and  O_3 
REMARK    2  A    between atoms: O_3  and  C_4 
REMARK    3  A    between atoms: C_5  and  O_6 
REMARK    4  A    between atoms: C_7  and  C_8 
REMARK    5  A    between atoms: N_9  and  N_10 
REMARK       I    between atoms: N_10  and  C_11 
REMARK    6  A    between atoms: C_11  and  C_12 
REMARK    7  A    between atoms: C_16  and  C_17 
ROOT
HETATM    1  C   UNL     1     -42.962  57.129 -51.724  1.00  0.00     0.121 A 
HETATM    2  N   UNL     1     -41.796  57.614 -52.246  1.00  0.00    -0.272 N 
HETATM    3  H   UNL     1     -41.509  58.588 -52.285  1.00  0.00     0.189 HD
HETATM    4  N   UNL     1     -41.004  56.679 -52.787  1.00  0.00    -0.174 NA
HETATM    5  C   UNL     1     -41.653  55.522 -52.588  1.00  0.00     0.090 A 
HETATM    6  C   UNL     1     -42.880  55.762 -51.901  1.00  0.00     0.071 A 
ENDROOT
BRANCH   1   7
HETATM    7  C   UNL     1     -43.959  58.017 -51.178  1.00  0.00     0.289 C 
HETATM    8  N   UNL     1     -43.510  59.304 -50.925  1.00  0.00    -0.242 N 
HETATM    9  H   UNL     1     -42.550  59.557 -51.118  1.00  0.00     0.192 HD
HETATM   10  O   UNL     1     -45.095  57.618 -50.935  1.00  0.00    -0.264 OA
BRANCH   8  11
HETATM   11  N   UNL     1     -44.291  60.175 -50.220  1.00  0.00    -0.183 NA
HETATM   12  C   UNL     1     -43.749  61.323 -49.964  1.00  0.00     0.153 C 
BRANCH  12  13
HETATM   13  C   UNL     1     -44.440  62.340 -49.148  1.00  0.00     0.019 A 
HETATM   14  C   UNL     1     -44.804  62.053 -47.831  1.00  0.00     0.110 A 
HETATM   15  C   UNL     1     -45.512  62.987 -47.061  1.00  0.00     0.102 A 
HETATM   16  C   UNL     1     -45.834  64.227 -47.616  1.00  0.00     0.040 A 
HETATM   17  C   UNL     1     -45.462  64.522 -48.932  1.00  0.00     0.004 A 
HETATM   18  C   UNL     1     -44.770  63.582 -49.698  1.00  0.00     0.016 A 
BRANCH  14  19
HETATM   19  O   UNL     1     -44.489  60.841 -47.269  1.00  0.00    -0.357 OA
HETATM   20  H   UNL     1     -44.014  61.061 -46.442  1.00  0.00     0.218 HD
ENDBRANCH  14  19
BRANCH  15  21
HETATM   21  O   UNL     1     -45.823  62.569 -45.792  1.00  0.00    -0.349 OA
BRANCH  21  22
HETATM   22  C   UNL     1     -45.365  63.391 -44.717  1.00  0.00     0.171 C 
HETATM   23  C   UNL     1     -44.294  62.621 -43.965  1.00  0.00     0.034 C 
ENDBRANCH  21  22
ENDBRANCH  15  21
ENDBRANCH  12  13
ENDBRANCH   8  11
ENDBRANCH   1   7
BRANCH   5  24
HETATM   24  C   UNL     1     -41.150  54.235 -53.088  1.00  0.00     0.005 A 
HETATM   25  C   UNL     1     -40.768  53.167 -52.221  1.00  0.00    -0.012 A 
HETATM   26  C   UNL     1     -40.290  52.034 -52.838  1.00  0.00    -0.012 A 
HETATM   27  C   UNL     1     -40.812  53.093 -50.804  1.00  0.00     0.013 A 
HETATM   28  C   UNL     1     -39.860  50.901 -52.171  1.00  0.00    -0.046 A 
HETATM   29  C   UNL     1     -40.174  51.880 -54.206  1.00  0.00    -0.046 A 
HETATM   30  C   UNL     1     -39.887  50.821 -50.787  1.00  0.00     0.008 A 
HETATM   31  C   UNL     1     -39.395  49.871 -53.140  1.00  0.00     0.044 A 
HETATM   32  C   UNL     1     -40.377  51.946 -50.111  1.00  0.00     0.001 A 
HETATM   33  C   UNL     1     -39.618  50.537 -54.533  1.00  0.00     0.044 A 
HETATM   34  C   UNL     1     -40.540  52.889 -55.079  1.00  0.00     0.009 A 
HETATM   35  C   UNL     1     -41.027  54.070 -54.495  1.00  0.00     0.015 A 
ENDBRANCH   5  24
TORSDOF 7
ENDMDL
MODEL 3
REMARK VINA RESULT:      -9.1      5.687      7.452
REMARK  7 active torsions:
REMARK  status: ('A' for Active; 'I' for Inactive)
REMARK    1  A    between atoms: C_2  and  O_3 
REMARK    2  A    between atoms: O_3  and  C_4 
REMARK    3  A    between atoms: C_5  and  O_6 
REMARK    4  A    between atoms: C_7  and  C_8 
REMARK    5  A    between atoms: N_9  and  N_10 
REMARK       I    between atoms: N_10  and  C_11 
REMARK    6  A    between atoms: C_11  and  C_12 
REMARK    7  A    between atoms: C_16  and  C_17 
ROOT
HETATM    1  C   UNL     1     -43.375  57.812 -51.128  1.00  0.00     0.121 A 
HETATM    2  N   UNL     1     -42.168  58.160 -50.587  1.00  0.00    -0.272 N 
HETATM    3  H   UNL     1     -41.894  59.083 -50.263  1.00  0.00     0.189 HD
HETATM    4  N   UNL     1     -41.277  57.160 -50.539  1.00  0.00    -0.174 NA
HETATM    5  C   UNL     1     -41.926  56.098 -51.036  1.00  0.00     0.090 A 
HETATM    6  C   UNL     1     -43.258  56.463 -51.397  1.00  0.00     0.071 A 
ENDROOT
BRANCH   1   7
HETATM    7  C   UNL     1     -44.412  58.794 -51.325  1.00  0.00     0.289 C 
HETATM    8  N   UNL     1     -44.663  59.599 -50.225  1.00  0.00    -0.242 N 
HETATM    9  H   UNL     1     -44.139  59.472 -49.369  1.00  0.00     0.192 HD
HETATM   10  O   UNL     1     -45.029  58.856 -52.386  1.00  0.00    -0.264 OA
BRANCH   8  11
HETATM   11  N   UNL     1     -45.752  60.422 -50.213  1.00  0.00    -0.183 NA
HETATM   12  C   UNL     1     -45.608  61.525 -49.550  1.00  0.00     0.153 C 
BRANCH  12  13
HETATM   13  C   UNL     1     -46.720  62.480 -49.383  1.00  0.00     0.019 A 
HETATM   14  C   UNL     1     -47.378  62.992 -50.503  1.00  0.00     0.110 A 
HETATM   15  C   UNL     1     -48.399  63.943 -50.364  1.00  0.00     0.102 A 
HETATM   16  C   UNL     1     -48.774  64.363 -49.087  1.00  0.00     0.040 A 
HETATM   17  C   UNL     1     -48.124  63.844 -47.962  1.00  0.00     0.004 A 
HETATM   18  C   UNL     1     -47.098  62.908 -48.107  1.00  0.00     0.016 A 
BRANCH  14  19
HETATM   19  O   UNL     1     -47.025  62.585 -51.765  1.00  0.00    -0.357 OA
HETATM   20  H   UNL     1     -47.809  62.109 -52.107  1.00  0.00     0.218 HD
ENDBRANCH  14  19
BRANCH  15  21
HETATM   21  O   UNL     1     -48.945  64.377 -51.546  1.00  0.00    -0.349 OA
BRANCH  21  22
HETATM   22  C   UNL     1     -50.065  63.639 -52.042  1.00  0.00     0.171 C 
HETATM   23  C   UNL     1     -50.424  64.199 -53.406  1.00  0.00     0.034 C 
ENDBRANCH  21  22
ENDBRANCH  15  21
ENDBRANCH  12  13
ENDBRANCH   8  11
ENDBRANCH   1   7
BRANCH   5  24
HETATM   24  C   UNL     1     -41.283  54.789 -51.218  1.00  0.00     0.005 A 
HETATM   25  C   UNL     1     -40.951  54.264 -52.504  1.00  0.00    -0.012 A 
HETATM   26  C   UNL     1     -40.378  53.014 -52.513  1.00  0.00    -0.012 A 
HETATM   27  C   UNL     1     -41.119  54.847 -53.788  1.00  0.00     0.013 A 
HETATM   28  C   UNL     1     -39.998  52.335 -53.656  1.00  0.00    -0.046 A 
HETATM   29  C   UNL     1     -40.109  52.270 -51.380  1.00  0.00    -0.046 A 
HETATM   30  C   UNL     1     -40.168  52.887 -54.917  1.00  0.00     0.008 A 
HETATM   31  C   UNL     1     -39.427  51.006 -53.307  1.00  0.00     0.044 A 
HETATM   32  C   UNL     1     -40.737  54.166 -54.962  1.00  0.00     0.001 A 
HETATM   33  C   UNL     1     -39.494  50.965 -51.749  1.00  0.00     0.044 A 
HETATM   34  C   UNL     1     -40.410  52.747 -50.116  1.00  0.00     0.009 A 
HETATM   35  C   UNL     1     -41.004  54.018 -50.056  1.00  0.00     0.015 A 
ENDBRANCH   5  24
TORSDOF 7
ENDMDL
MODEL 4
REMARK VINA RESULT:      -9.0      3.988      4.964
REMARK  7 active torsions:
REMARK  status: ('A' for Active; 'I' for Inactive)
REMARK    1  A    between atoms: C_2  and  O_3 
REMARK    2  A    between atoms: O_3  and  C_4 
REMARK    3  A    between atoms: C_5  and  O_6 
REMARK    4  A    between atoms: C_7  and  C_8 
REMARK    5  A    between atoms: N_9  and  N_10 
REMARK       I    between atoms: N_10  and  C_11 
REMARK    6  A    between atoms: C_11  and  C_12 
REMARK    7  A    between atoms: C_16  and  C_17 
ROOT
HETATM    1  C   UNL     1     -42.233  55.703 -55.585  1.00  0.00     0.121 A 
HETATM    2  N   UNL     1     -41.494  56.551 -54.809  1.00  0.00    -0.272 N 
HETATM    3  H   UNL     1     -41.284  57.525 -55.008  1.00  0.00     0.189 HD
HETATM    4  N   UNL     1     -40.981  55.985 -53.708  1.00  0.00    -0.174 NA
HETATM    5  C   UNL     1     -41.424  54.720 -53.735  1.00  0.00     0.090 A 
HETATM    6  C   UNL     1     -42.235  54.510 -54.890  1.00  0.00     0.071 A 
ENDROOT
BRANCH   1   7
HETATM    7  C   UNL     1     -42.785  56.137 -56.844  1.00  0.00     0.289 C 
HETATM    8  N   UNL     1     -43.310  57.420 -56.834  1.00  0.00    -0.242 N 
HETATM    9  H   UNL     1     -43.291  57.973 -55.987  1.00  0.00     0.192 HD
HETATM   10  O   UNL     1     -42.804  55.388 -57.817  1.00  0.00    -0.264 OA
BRANCH   8  11
HETATM   11  N   UNL     1     -44.042  57.869 -57.895  1.00  0.00    -0.183 NA
HETATM   12  C   UNL     1     -45.322  57.932 -57.701  1.00  0.00     0.153 C 
BRANCH  12  13
HETATM   13  C   UNL     1     -46.250  58.326 -58.778  1.00  0.00     0.019 A 
HETATM   14  C   UNL     1     -46.681  57.382 -59.711  1.00  0.00     0.110 A 
HETATM   15  C   UNL     1     -47.518  57.753 -60.774  1.00  0.00     0.102 A 
HETATM   16  C   UNL     1     -47.940  59.079 -60.882  1.00  0.00     0.040 A 
HETATM   17  C   UNL     1     -47.518  60.025 -59.942  1.00  0.00     0.004 A 
HETATM   18  C   UNL     1     -46.673  59.653 -58.894  1.00  0.00     0.016 A 
BRANCH  14  19
HETATM   19  O   UNL     1     -46.280  56.073 -59.615  1.00  0.00    -0.357 OA
HETATM   20  H   UNL     1     -46.687  55.626 -60.385  1.00  0.00     0.218 HD
ENDBRANCH  14  19
BRANCH  15  21
HETATM   21  O   UNL     1     -47.848  56.731 -61.629  1.00  0.00    -0.349 OA
BRANCH  21  22
HETATM   22  C   UNL     1     -48.984  56.943 -62.470  1.00  0.00     0.171 C 
HETATM   23  C   UNL     1     -48.509  56.901 -63.911  1.00  0.00     0.034 C 
ENDBRANCH  21  22
ENDBRANCH  15  21
ENDBRANCH  12  13
ENDBRANCH   8  11
ENDBRANCH   1   7
BRANCH   5  24
HETATM   24  C   UNL     1     -41.040  53.724 -52.725  1.00  0.00     0.005 A 
HETATM   25  C   UNL     1     -40.534  52.433 -53.067  1.00  0.00    -0.012 A 
HETATM   26  C   UNL     1     -40.245  51.601 -52.010  1.00  0.00    -0.012 A 
HETATM   27  C   UNL     1     -40.275  51.875 -54.346  1.00  0.00     0.013 A 
HETATM   28  C   UNL     1     -39.759  50.313 -52.137  1.00  0.00    -0.046 A 
HETATM   29  C   UNL     1     -40.406  51.943 -50.681  1.00  0.00    -0.046 A 
HETATM   30  C   UNL     1     -39.513  49.751 -53.381  1.00  0.00     0.008 A 
HETATM   31  C   UNL     1     -39.571  49.692 -50.798  1.00  0.00     0.044 A 
HETATM   32  C   UNL     1     -39.779  50.563 -54.491  1.00  0.00     0.001 A 
HETATM   33  C   UNL     1     -40.005  50.810 -49.801  1.00  0.00     0.044 A 
HETATM   34  C   UNL     1     -40.888  53.186 -50.309  1.00  0.00     0.009 A 
HETATM   35  C   UNL     1     -41.204  54.068 -51.354  1.00  0.00     0.015 A 
ENDBRANCH   5  24
TORSDOF 7
ENDMDL
MODEL 5
REMARK VINA RESULT:      -9.0      5.124      7.316
REMARK  7 active torsions:
REMARK  status: ('A' for Active; 'I' for Inactive)
REMARK    1  A    between atoms: C_2  and  O_3 
REMARK    2  A    between atoms: O_3  and  C_4 
REMARK    3  A    between atoms: C_5  and  O_6 
REMARK    4  A    between atoms: C_7  and  C_8 
REMARK    5  A    between atoms: N_9  and  N_10 
REMARK       I    between atoms: N_10  and  C_11 
REMARK    6  A    between atoms: C_11  and  C_12 
REMARK    7  A    between atoms: C_16  and  C_17 
ROOT
HETATM    1  C   UNL     1     -41.332  57.487 -51.495  1.00  0.00     0.121 A 
HETATM    2  N   UNL     1     -41.343  56.717 -50.365  1.00  0.00    -0.272 N 
HETATM    3  H   UNL     1     -41.475  57.044 -49.412  1.00  0.00     0.189 HD
HETATM    4  N   UNL     1     -41.113  55.416 -50.583  1.00  0.00    -0.174 NA
HETATM    5  C   UNL     1     -40.975  55.309 -51.913  1.00  0.00     0.090 A 
HETATM    6  C   UNL     1     -41.129  56.589 -52.525  1.00  0.00     0.071 A 
ENDROOT
BRANCH   1   7
HETATM    7  C   UNL     1     -41.483  58.919 -51.422  1.00  0.00     0.289 C 
HETATM    8  N   UNL     1     -42.171  59.371 -50.306  1.00  0.00    -0.242 N 
HETATM    9  H   UNL     1     -42.526  58.714 -49.624  1.00  0.00     0.192 HD
HETATM   10  O   UNL     1     -41.056  59.646 -52.315  1.00  0.00    -0.264 OA
BRANCH   8  11
HETATM   11  N   UNL     1     -42.559  60.677 -50.224  1.00  0.00    -0.183 NA
HETATM   12  C   UNL     1     -43.689  60.884 -49.625  1.00  0.00     0.153 C 
BRANCH  12  13
HETATM   13  C   UNL     1     -44.276  62.234 -49.525  1.00  0.00     0.019 A 
HETATM   14  C   UNL     1     -45.580  62.398 -49.055  1.00  0.00     0.110 A 
HETATM   15  C   UNL     1     -46.173  63.668 -49.008  1.00  0.00     0.102 A 
HETATM   16  C   UNL     1     -45.436  64.782 -49.415  1.00  0.00     0.040 A 
HETATM   17  C   UNL     1     -44.126  64.623 -49.877  1.00  0.00     0.004 A 
HETATM   18  C   UNL     1     -43.547  63.354 -49.935  1.00  0.00     0.016 A 
BRANCH  14  19
HETATM   19  O   UNL     1     -46.315  61.313 -48.645  1.00  0.00    -0.357 OA
HETATM   20  H   UNL     1     -46.529  61.492 -47.707  1.00  0.00     0.218 HD
ENDBRANCH  14  19
BRANCH  15  21
HETATM   21  O   UNL     1     -47.465  63.683 -48.545  1.00  0.00    -0.349 OA
BRANCH  21  22
HETATM   22  C   UNL     1     -48.395  64.488 -49.272  1.00  0.00     0.171 C 
HETATM   23  C   UNL     1     -48.664  63.804 -50.600  1.00  0.00     0.034 C 
ENDBRANCH  21  22
ENDBRANCH  15  21
ENDBRANCH  12  13
ENDBRANCH   8  11
ENDBRANCH   1   7
BRANCH   5  24
HETATM   24  C   UNL     1     -40.647  54.040 -52.577  1.00  0.00     0.005 A 
HETATM   25  C   UNL     1     -40.423  52.827 -51.856  1.00  0.00    -0.012 A 
HETATM   26  C   UNL     1     -40.097  51.728 -52.616  1.00  0.00    -0.012 A 
HETATM   27  C   UNL     1     -40.491  52.581 -50.460  1.00  0.00     0.013 A 
HETATM   28  C   UNL     1     -39.832  50.471 -52.103  1.00  0.00    -0.046 A 
HETATM   29  C   UNL     1     -39.989  51.735 -53.994  1.00  0.00    -0.046 A 
HETATM   30  C   UNL     1     -39.883  50.220 -50.740  1.00  0.00     0.008 A 
HETATM   31  C   UNL     1     -39.503  49.520 -53.199  1.00  0.00     0.044 A 
HETATM   32  C   UNL     1     -40.223  51.305 -49.922  1.00  0.00     0.001 A 
HETATM   33  C   UNL     1     -39.619  50.382 -54.494  1.00  0.00     0.044 A 
HETATM   34  C   UNL     1     -40.206  52.889 -54.728  1.00  0.00     0.009 A 
HETATM   35  C   UNL     1     -40.534  54.040 -53.994  1.00  0.00     0.015 A 
ENDBRANCH   5  24
TORSDOF 7
ENDMDL
MODEL 6
REMARK VINA RESULT:      -8.9      2.888      4.059
REMARK  7 active torsions:
REMARK  status: ('A' for Active; 'I' for Inactive)
REMARK    1  A    between atoms: C_2  and  O_3 
REMARK    2  A    between atoms: O_3  and  C_4 
REMARK    3  A    between atoms: C_5  and  O_6 
REMARK    4  A    between atoms: C_7  and  C_8 
REMARK    5  A    between atoms: N_9  and  N_10 
REMARK       I    between atoms: N_10  and  C_11 
REMARK    6  A    between atoms: C_11  and  C_12 
REMARK    7  A    between atoms: C_16  and  C_17 
ROOT
HETATM    1  C   UNL     1     -42.893  55.672 -57.044  1.00  0.00     0.121 A 
HETATM    2  N   UNL     1     -43.538  54.488 -56.816  1.00  0.00    -0.272 N 
HETATM    3  H   UNL     1     -44.115  53.977 -57.478  1.00  0.00     0.189 HD
HETATM    4  N   UNL     1     -43.400  54.016 -55.570  1.00  0.00    -0.174 NA
HETATM    5  C   UNL     1     -42.605  54.903 -54.953  1.00  0.00     0.090 A 
HETATM    6  C   UNL     1     -42.246  55.949 -55.856  1.00  0.00     0.071 A 
ENDROOT
BRANCH   1   7
HETATM    7  C   UNL     1     -43.011  56.352 -58.310  1.00  0.00     0.289 C 
HETATM    8  N   UNL     1     -41.935  57.163 -58.633  1.00  0.00    -0.242 N 
HETATM    9  H   UNL     1     -41.150  57.247 -58.000  1.00  0.00     0.192 HD
HETATM   10  O   UNL     1     -44.018  56.227 -59.003  1.00  0.00    -0.264 OA
BRANCH   8  11
HETATM   11  N   UNL     1     -42.015  58.015 -59.696  1.00  0.00    -0.183 NA
HETATM   12  C   UNL     1     -42.156  59.268 -59.396  1.00  0.00     0.153 C 
BRANCH  12  13
HETATM   13  C   UNL     1     -42.331  60.299 -60.437  1.00  0.00     0.019 A 
HETATM   14  C   UNL     1     -43.396  60.213 -61.335  1.00  0.00     0.110 A 
HETATM   15  C   UNL     1     -43.544  61.153 -62.366  1.00  0.00     0.102 A 
HETATM   16  C   UNL     1     -42.625  62.198 -62.475  1.00  0.00     0.040 A 
HETATM   17  C   UNL     1     -41.563  62.293 -61.571  1.00  0.00     0.004 A 
HETATM   18  C   UNL     1     -41.412  61.346 -60.556  1.00  0.00     0.016 A 
BRANCH  14  19
HETATM   19  O   UNL     1     -44.311  59.195 -61.236  1.00  0.00    -0.357 OA
HETATM   20  H   UNL     1     -44.771  59.183 -62.100  1.00  0.00     0.218 HD
ENDBRANCH  14  19
BRANCH  15  21
HETATM   21  O   UNL     1     -44.622  60.939 -63.188  1.00  0.00    -0.349 OA
BRANCH  21  22
HETATM   22  C   UNL     1     -45.497  62.049 -63.397  1.00  0.00     0.171 C 
HETATM   23  C   UNL     1     -46.367  62.194 -62.162  1.00  0.00     0.034 C 
ENDBRANCH  21  22
ENDBRANCH  15  21
ENDBRANCH  12  13
ENDBRANCH   8  11
ENDBRANCH   1   7
BRANCH   5  24
HETATM   24  C   UNL     1     -42.245  54.792 -53.533  1.00  0.00     0.005 A 
HETATM   25  C   UNL     1     -41.361  53.786 -53.037  1.00  0.00    -0.012 A 
HETATM   26  C   UNL     1     -41.143  53.794 -51.679  1.00  0.00    -0.012 A 
HETATM   27  C   UNL     1     -40.659  52.773 -53.742  1.00  0.00     0.013 A 
HETATM   28  C   UNL     1     -40.331  52.896 -51.011  1.00  0.00    -0.046 A 
HETATM   29  C   UNL     1     -41.710  54.699 -50.802  1.00  0.00    -0.046 A 
HETATM   30  C   UNL     1     -39.650  51.894 -51.686  1.00  0.00     0.008 A 
HETATM   31  C   UNL     1     -40.331  53.180 -49.550  1.00  0.00     0.044 A 
HETATM   32  C   UNL     1     -39.828  51.851 -53.075  1.00  0.00     0.001 A 
HETATM   33  C   UNL     1     -41.268  54.420 -49.408  1.00  0.00     0.044 A 
HETATM   34  C   UNL     1     -42.568  55.692 -51.245  1.00  0.00     0.009 A 
HETATM   35  C   UNL     1     -42.826  55.719 -52.624  1.00  0.00     0.015 A 
ENDBRANCH   5  24
TORSDOF 7
ENDMDL
MODEL 7
REMARK VINA RESULT:      -8.8      4.298      5.386
REMARK  7 active torsions:
REMARK  status: ('A' for Active; 'I' for Inactive)
REMARK    1  A    between atoms: C_2  and  O_3 
REMARK    2  A    between atoms: O_3  and  C_4 
REMARK    3  A    between atoms: C_5  and  O_6 
REMARK    4  A    between atoms: C_7  and  C_8 
REMARK    5  A    between atoms: N_9  and  N_10 
REMARK       I    between atoms: N_10  and  C_11 
REMARK    6  A    between atoms: C_11  and  C_12 
REMARK    7  A    between atoms: C_16  and  C_17 
ROOT
HETATM    1  C   UNL     1     -43.160  55.784 -56.922  1.00  0.00     0.121 A 
HETATM    2  N   UNL     1     -43.529  54.497 -56.647  1.00  0.00    -0.272 N 
HETATM    3  H   UNL     1     -44.048  53.872 -57.259  1.00  0.00     0.189 HD
HETATM    4  N   UNL     1     -43.188  54.075 -55.422  1.00  0.00    -0.174 NA
HETATM    5  C   UNL     1     -42.538  55.111 -54.872  1.00  0.00     0.090 A 
HETATM    6  C   UNL     1     -42.479  56.198 -55.794  1.00  0.00     0.071 A 
ENDROOT
BRANCH   1   7
HETATM    7  C   UNL     1     -43.524  56.413 -58.167  1.00  0.00     0.289 C 
HETATM    8  N   UNL     1     -44.767  57.027 -58.163  1.00  0.00    -0.242 N 
HETATM    9  H   UNL     1     -45.343  57.009 -57.331  1.00  0.00     0.192 HD
HETATM   10  O   UNL     1     -42.783  56.355 -59.145  1.00  0.00    -0.264 OA
BRANCH   8  11
HETATM   11  N   UNL     1     -45.314  57.475 -59.331  1.00  0.00    -0.183 NA
HETATM   12  C   UNL     1     -46.567  57.192 -59.502  1.00  0.00     0.153 C 
BRANCH  12  13
HETATM   13  C   UNL     1     -47.276  57.543 -60.747  1.00  0.00     0.019 A 
HETATM   14  C   UNL     1     -47.426  58.881 -61.115  1.00  0.00     0.110 A 
HETATM   15  C   UNL     1     -48.147  59.235 -62.264  1.00  0.00     0.102 A 
HETATM   16  C   UNL     1     -48.701  58.230 -63.059  1.00  0.00     0.040 A 
HETATM   17  C   UNL     1     -48.545  56.888 -62.700  1.00  0.00     0.004 A 
HETATM   18  C   UNL     1     -47.839  56.543 -61.545  1.00  0.00     0.016 A 
BRANCH  14  19
HETATM   19  O   UNL     1     -46.881  59.880 -60.347  1.00  0.00    -0.357 OA
HETATM   20  H   UNL     1     -47.634  60.460 -60.112  1.00  0.00     0.218 HD
ENDBRANCH  14  19
BRANCH  15  21
HETATM   21  O   UNL     1     -48.233  60.585 -62.497  1.00  0.00    -0.349 OA
BRANCH  21  22
HETATM   22  C   UNL     1     -47.925  61.026 -63.821  1.00  0.00     0.171 C 
HETATM   23  C   UNL     1     -46.583  61.733 -63.775  1.00  0.00     0.034 C 
ENDBRANCH  21  22
ENDBRANCH  15  21
ENDBRANCH  12  13
ENDBRANCH   8  11
ENDBRANCH   1   7
BRANCH   5  24
HETATM   24  C   UNL     1     -42.039  55.089 -53.490  1.00  0.00     0.005 A 
HETATM   25  C   UNL     1     -41.204  54.045 -52.987  1.00  0.00    -0.012 A 
HETATM   26  C   UNL     1     -40.841  54.151 -51.664  1.00  0.00    -0.012 A 
HETATM   27  C   UNL     1     -40.682  52.906 -53.653  1.00  0.00     0.013 A 
HETATM   28  C   UNL     1     -40.050  53.236 -50.994  1.00  0.00    -0.046 A 
HETATM   29  C   UNL     1     -41.223  55.184 -50.829  1.00  0.00    -0.046 A 
HETATM   30  C   UNL     1     -39.544  52.113 -51.630  1.00  0.00     0.008 A 
HETATM   31  C   UNL     1     -39.865  53.648 -49.575  1.00  0.00     0.044 A 
HETATM   32  C   UNL     1     -39.874  51.965 -52.983  1.00  0.00     0.001 A 
HETATM   33  C   UNL     1     -40.660  54.985 -49.465  1.00  0.00     0.044 A 
HETATM   34  C   UNL     1     -42.025  56.218 -51.281  1.00  0.00     0.009 A 
HETATM   35  C   UNL     1     -42.428  56.149 -52.625  1.00  0.00     0.015 A 
ENDBRANCH   5  24
TORSDOF 7
ENDMDL
MODEL 8
REMARK VINA RESULT:      -8.7      5.130      7.073
REMARK  7 active torsions:
REMARK  status: ('A' for Active; 'I' for Inactive)
REMARK    1  A    between atoms: C_2  and  O_3 
REMARK    2  A    between atoms: O_3  and  C_4 
REMARK    3  A    between atoms: C_5  and  O_6 
REMARK    4  A    between atoms: C_7  and  C_8 
REMARK    5  A    between atoms: N_9  and  N_10 
REMARK       I    between atoms: N_10  and  C_11 
REMARK    6  A    between atoms: C_11  and  C_12 
REMARK    7  A    between atoms: C_16  and  C_17 
ROOT
HETATM    1  C   UNL     1     -42.085  58.343 -51.909  1.00  0.00     0.121 A 
HETATM    2  N   UNL     1     -41.164  58.667 -52.867  1.00  0.00    -0.272 N 
HETATM    3  H   UNL     1     -40.908  59.603 -53.167  1.00  0.00     0.189 HD
HETATM    4  N   UNL     1     -40.601  57.611 -53.469  1.00  0.00    -0.174 NA
HETATM    5  C   UNL     1     -41.143  56.543 -52.867  1.00  0.00     0.090 A 
HETATM    6  C   UNL     1     -42.066  56.963 -51.863  1.00  0.00     0.071 A 
ENDROOT
BRANCH   1   7
HETATM    7  C   UNL     1     -42.838  59.365 -51.226  1.00  0.00     0.289 C 
HETATM    8  N   UNL     1     -44.167  59.046 -50.993  1.00  0.00    -0.242 N 
HETATM    9  H   UNL     1     -44.539  58.156 -51.298  1.00  0.00     0.192 HD
HETATM   10  O   UNL     1     -42.319  60.437 -50.923  1.00  0.00    -0.264 OA
BRANCH   8  11
HETATM   11  N   UNL     1     -45.032  60.001 -50.544  1.00  0.00    -0.183 NA
HETATM   12  C   UNL     1     -45.695  60.627 -51.465  1.00  0.00     0.153 C 
BRANCH  12  13
HETATM   13  C   UNL     1     -46.612  61.737 -51.141  1.00  0.00     0.019 A 
HETATM   14  C   UNL     1     -47.550  62.168 -52.080  1.00  0.00     0.110 A 
HETATM   15  C   UNL     1     -48.389  63.258 -51.810  1.00  0.00     0.102 A 
HETATM   16  C   UNL     1     -48.297  63.902 -50.574  1.00  0.00     0.040 A 
HETATM   17  C   UNL     1     -47.365  63.467 -49.627  1.00  0.00     0.004 A 
HETATM   18  C   UNL     1     -46.522  62.390 -49.908  1.00  0.00     0.016 A 
BRANCH  14  19
HETATM   19  O   UNL     1     -47.657  61.541 -53.297  1.00  0.00    -0.357 OA
HETATM   20  H   UNL     1     -48.611  61.567 -53.512  1.00  0.00     0.218 HD
ENDBRANCH  14  19
BRANCH  15  21
HETATM   21  O   UNL     1     -49.249  63.588 -52.827  1.00  0.00    -0.349 OA
BRANCH  21  22
HETATM   22  C   UNL     1     -50.645  63.563 -52.518  1.00  0.00     0.171 C 
HETATM   23  C   UNL     1     -51.170  62.179 -52.856  1.00  0.00     0.034 C 
ENDBRANCH  21  22
ENDBRANCH  15  21
ENDBRANCH  12  13
ENDBRANCH   8  11
ENDBRANCH   1   7
BRANCH   5  24
HETATM   24  C   UNL     1     -40.839  55.164 -53.273  1.00  0.00     0.005 A 
HETATM   25  C   UNL     1     -40.598  54.117 -52.332  1.00  0.00    -0.012 A 
HETATM   26  C   UNL     1     -40.297  52.886 -52.866  1.00  0.00    -0.012 A 
HETATM   27  C   UNL     1     -40.627  54.154 -50.913  1.00  0.00     0.013 A 
HETATM   28  C   UNL     1     -40.022  51.754 -52.120  1.00  0.00    -0.046 A 
HETATM   29  C   UNL     1     -40.229  52.618 -54.220  1.00  0.00    -0.046 A 
HETATM   30  C   UNL     1     -40.035  51.780 -50.734  1.00  0.00     0.008 A 
HETATM   31  C   UNL     1     -39.726  50.601 -53.013  1.00  0.00     0.044 A 
HETATM   32  C   UNL     1     -40.348  53.009 -50.140  1.00  0.00     0.001 A 
HETATM   33  C   UNL     1     -39.877  51.189 -54.450  1.00  0.00     0.044 A 
HETATM   34  C   UNL     1     -40.462  53.604 -55.163  1.00  0.00     0.009 A 
HETATM   35  C   UNL     1     -40.765  54.881 -54.665  1.00  0.00     0.015 A 
ENDBRANCH   5  24
TORSDOF 7
ENDMDL
MODEL 9
REMARK VINA RESULT:      -8.7      4.377      5.670
REMARK  7 active torsions:
REMARK  status: ('A' for Active; 'I' for Inactive)
REMARK    1  A    between atoms: C_2  and  O_3 
REMARK    2  A    between atoms: O_3  and  C_4 
REMARK    3  A    between atoms: C_5  and  O_6 
REMARK    4  A    between atoms: C_7  and  C_8 
REMARK    5  A    between atoms: N_9  and  N_10 
REMARK       I    between atoms: N_10  and  C_11 
REMARK    6  A    between atoms: C_11  and  C_12 
REMARK    7  A    between atoms: C_16  and  C_17 
ROOT
HETATM    1  C   UNL     1     -42.910  56.179 -57.245  1.00  0.00     0.121 A 
HETATM    2  N   UNL     1     -42.415  57.145 -56.413  1.00  0.00    -0.272 N 
HETATM    3  H   UNL     1     -42.421  58.147 -56.579  1.00  0.00     0.189 HD
HETATM    4  N   UNL     1     -41.836  56.670 -55.302  1.00  0.00    -0.174 NA
HETATM    5  C   UNL     1     -41.981  55.339 -55.381  1.00  0.00     0.090 A 
HETATM    6  C   UNL     1     -42.673  54.993 -56.580  1.00  0.00     0.071 A 
ENDROOT
BRANCH   1   7
HETATM    7  C   UNL     1     -43.491  56.522 -58.519  1.00  0.00     0.289 C 
HETATM    8  N   UNL     1     -44.333  57.623 -58.494  1.00  0.00    -0.242 N 
HETATM    9  H   UNL     1     -44.503  58.116 -57.627  1.00  0.00     0.192 HD
HETATM   10  O   UNL     1     -43.263  55.846 -59.520  1.00  0.00    -0.264 OA
BRANCH   8  11
HETATM   11  N   UNL     1     -45.101  57.923 -59.582  1.00  0.00    -0.183 NA
HETATM   12  C   UNL     1     -46.322  57.491 -59.536  1.00  0.00     0.153 C 
BRANCH  12  13
HETATM   13  C   UNL     1     -47.250  57.671 -60.668  1.00  0.00     0.019 A 
HETATM   14  C   UNL     1     -47.712  58.946 -60.999  1.00  0.00     0.110 A 
HETATM   15  C   UNL     1     -48.639  59.128 -62.035  1.00  0.00     0.102 A 
HETATM   16  C   UNL     1     -49.085  58.019 -62.757  1.00  0.00     0.040 A 
HETATM   17  C   UNL     1     -48.616  56.741 -62.435  1.00  0.00     0.004 A 
HETATM   18  C   UNL     1     -47.704  56.565 -61.392  1.00  0.00     0.016 A 
BRANCH  14  19
HETATM   19  O   UNL     1     -47.279  60.047 -60.303  1.00  0.00    -0.357 OA
HETATM   20  H   UNL     1     -47.912  60.757 -60.532  1.00  0.00     0.218 HD
ENDBRANCH  14  19
BRANCH  15  21
HETATM   21  O   UNL     1     -49.024  60.429 -62.241  1.00  0.00    -0.349 OA
BRANCH  21  22
HETATM   22  C   UNL     1     -48.956  60.912 -63.585  1.00  0.00     0.171 C 
HETATM   23  C   UNL     1     -47.554  61.445 -63.816  1.00  0.00     0.034 C 
ENDBRANCH  21  22
ENDBRANCH  15  21
ENDBRANCH  12  13
ENDBRANCH   8  11
ENDBRANCH   1   7
BRANCH   5  24
HETATM   24  C   UNL     1     -41.426  54.420 -54.377  1.00  0.00     0.005 A 
HETATM   25  C   UNL     1     -41.724  54.527 -52.985  1.00  0.00    -0.012 A 
HETATM   26  C   UNL     1     -41.106  53.611 -52.166  1.00  0.00    -0.012 A 
HETATM   27  C   UNL     1     -42.575  55.442 -52.311  1.00  0.00     0.013 A 
HETATM   28  C   UNL     1     -41.258  53.560 -50.792  1.00  0.00    -0.046 A 
HETATM   29  C   UNL     1     -40.248  52.622 -52.608  1.00  0.00    -0.046 A 
HETATM   30  C   UNL     1     -42.077  54.455 -50.121  1.00  0.00     0.008 A 
HETATM   31  C   UNL     1     -40.439  52.458 -50.218  1.00  0.00     0.044 A 
HETATM   32  C   UNL     1     -42.740  55.402 -50.912  1.00  0.00     0.001 A 
HETATM   33  C   UNL     1     -39.755  51.810 -51.461  1.00  0.00     0.044 A 
HETATM   34  C   UNL     1     -39.940  52.482 -53.950  1.00  0.00     0.009 A 
HETATM   35  C   UNL     1     -40.542  53.400 -54.825  1.00  0.00     0.015 A 
ENDBRANCH   5  24
TORSDOF 7
ENDMDL
MODEL 10
REMARK VINA RESULT:      -8.6      2.660      4.014
REMARK  7 active torsions:
REMARK  status: ('A' for Active; 'I' for Inactive)
REMARK    1  A    between atoms: C_2  and  O_3 
REMARK    2  A    between atoms: O_3  and  C_4 
REMARK    3  A    between atoms: C_5  and  O_6 
REMARK    4  A    between atoms: C_7  and  C_8 
REMARK    5  A    between atoms: N_9  and  N_10 
REMARK       I    between atoms: N_10  and  C_11 
REMARK    6  A    between atoms: C_11  and  C_12 
REMARK    7  A    between atoms: C_16  and  C_17 
ROOT
HETATM    1  C   UNL     1     -42.172  55.727 -56.011  1.00  0.00     0.121 A 
HETATM    2  N   UNL     1     -41.062  56.261 -55.418  1.00  0.00    -0.272 N 
HETATM    3  H   UNL     1     -40.692  57.197 -55.560  1.00  0.00     0.189 HD
HETATM    4  N   UNL     1     -40.408  55.415 -54.611  1.00  0.00    -0.174 NA
HETATM    5  C   UNL     1     -41.129  54.285 -54.642  1.00  0.00     0.090 A 
HETATM    6  C   UNL     1     -42.260  54.449 -55.495  1.00  0.00     0.071 A 
ENDROOT
BRANCH   1   7
HETATM    7  C   UNL     1     -42.939  56.482 -56.971  1.00  0.00     0.289 C 
HETATM    8  N   UNL     1     -42.458  56.425 -58.269  1.00  0.00    -0.242 N 
HETATM    9  H   UNL     1     -41.628  55.888 -58.483  1.00  0.00     0.192 HD
HETATM   10  O   UNL     1     -43.915  57.142 -56.621  1.00  0.00    -0.264 OA
BRANCH   8  11
HETATM   11  N   UNL     1     -42.967  57.256 -59.225  1.00  0.00    -0.183 NA
HETATM   12  C   UNL     1     -42.305  58.353 -59.419  1.00  0.00     0.153 C 
BRANCH  12  13
HETATM   13  C   UNL     1     -42.773  59.383 -60.365  1.00  0.00     0.019 A 
HETATM   14  C   UNL     1     -44.112  59.777 -60.367  1.00  0.00     0.110 A 
HETATM   15  C   UNL     1     -44.585  60.713 -61.298  1.00  0.00     0.102 A 
HETATM   16  C   UNL     1     -43.696  61.272 -62.218  1.00  0.00     0.040 A 
HETATM   17  C   UNL     1     -42.351  60.888 -62.213  1.00  0.00     0.004 A 
HETATM   18  C   UNL     1     -41.889  59.944 -61.293  1.00  0.00     0.016 A 
BRANCH  14  19
HETATM   19  O   UNL     1     -44.997  59.241 -59.465  1.00  0.00    -0.357 OA
HETATM   20  H   UNL     1     -45.832  59.130 -59.964  1.00  0.00     0.218 HD
ENDBRANCH  14  19
BRANCH  15  21
HETATM   21  O   UNL     1     -45.925  60.993 -61.201  1.00  0.00    -0.349 OA
BRANCH  21  22
HETATM   22  C   UNL     1     -46.775  60.403 -62.187  1.00  0.00     0.171 C 
HETATM   23  C   UNL     1     -48.065  59.992 -61.502  1.00  0.00     0.034 C 
ENDBRANCH  21  22
ENDBRANCH  15  21
ENDBRANCH  12  13
ENDBRANCH   8  11
ENDBRANCH   1   7
BRANCH   5  24
HETATM   24  C   UNL     1     -40.723  53.066 -53.929  1.00  0.00     0.005 A 
HETATM   25  C   UNL     1     -40.685  52.982 -52.504  1.00  0.00    -0.012 A 
HETATM   26  C   UNL     1     -40.256  51.783 -51.984  1.00  0.00    -0.012 A 
HETATM   27  C   UNL     1     -41.032  53.957 -51.532  1.00  0.00     0.013 A 
HETATM   28  C   UNL     1     -40.140  51.512 -50.632  1.00  0.00    -0.046 A 
HETATM   29  C   UNL     1     -39.882  50.691 -52.744  1.00  0.00    -0.046 A 
HETATM   30  C   UNL     1     -40.464  52.459 -49.673  1.00  0.00     0.008 A 
HETATM   31  C   UNL     1     -39.636  50.128 -50.420  1.00  0.00     0.044 A 
HETATM   32  C   UNL     1     -40.918  53.695 -50.151  1.00  0.00     0.001 A 
HETATM   33  C   UNL     1     -39.468  49.563 -51.864  1.00  0.00     0.044 A 
HETATM   34  C   UNL     1     -39.911  50.731 -54.127  1.00  0.00     0.009 A 
HETATM   35  C   UNL     1     -40.335  51.939 -54.705  1.00  0.00     0.015 A 
ENDBRANCH   5  24
TORSDOF 7
ENDMDL
