MODEL 1
REMARK VINA RESULT:      -8.4      0.000      0.000
REMARK  5 active torsions:
REMARK  status: ('A' for Active; 'I' for Inactive)
REMARK    1  A    between atoms: C_4  and  N_5 
REMARK    2  A    between atoms: C_6  and  C_8 
REMARK    3  A    between atoms: C_6  and  O_7 
REMARK       I    between atoms: C_8  and  N_9 
REMARK    4  A    between atoms: N_9  and  C_10 
REMARK    5  A    between atoms: C_10  and  C_11 
ROOT
HETATM    1  N   UNL     1     -43.365  56.542 -53.176  1.00  0.00    -0.254 N 
HETATM    2  C   UNL     1     -43.149  55.772 -54.414  1.00  0.00     0.256 C 
HETATM    3  C   UNL     1     -43.521  56.552 -55.662  1.00  0.00     0.035 A 
HETATM    4  C   UNL     1     -44.472  57.561 -55.534  1.00  0.00     0.048 A 
HETATM    5  N   UNL     1     -44.966  57.864 -54.273  1.00  0.00    -0.308 N 
HETATM    6  C   UNL     1     -44.453  57.401 -53.094  1.00  0.00     0.330 C 
HETATM    7  O   UNL     1     -44.941  57.833 -52.049  1.00  0.00    -0.246 OA
HETATM    8  C   UNL     1     -43.041  56.247 -56.948  1.00  0.00     0.034 A 
HETATM    9  C   UNL     1     -43.489  56.968 -58.057  1.00  0.00     0.011 A 
HETATM   10 BR   UNL     1     -42.809  56.563 -59.775  1.00  0.00    -0.051 Br
HETATM   11  C   UNL     1     -44.437  57.977 -57.911  1.00  0.00     0.021 A 
HETATM   12  C   UNL     1     -44.939  58.269 -56.645  1.00  0.00     0.031 A 
HETATM   13  H   UNL     1     -45.690  58.562 -54.163  1.00  0.00     0.170 HD
ENDROOT
BRANCH   2  14
HETATM   14  C   UNL     1     -41.689  55.163 -54.551  1.00  0.00     0.279 C 
HETATM   15  N   UNL     1     -41.669  53.780 -54.611  1.00  0.00    -0.352 N 
HETATM   16  H   UNL     1     -42.542  53.326 -54.865  1.00  0.00     0.162 HD
HETATM   17  O   UNL     1     -40.658  55.835 -54.552  1.00  0.00    -0.268 OA
BRANCH  15  18
HETATM   18  C   UNL     1     -40.444  53.036 -54.746  1.00  0.00     0.168 C 
BRANCH  18  19
HETATM   19  C   UNL     1     -40.157  52.395 -53.427  1.00  0.00     0.000 A 
HETATM   20  S   UNL     1     -39.641  50.764 -53.346  1.00  0.00    -0.105 SA
HETATM   21  C   UNL     1     -39.558  50.808 -51.638  1.00  0.00     0.050 A 
HETATM   22  C   UNL     1     -39.919  52.037 -51.135  1.00  0.00     0.008 A 
HETATM   23  C   UNL     1     -40.268  52.954 -52.168  1.00  0.00     0.017 A 
ENDBRANCH  18  19
ENDBRANCH  15  18
ENDBRANCH   2  14
BRANCH   2  24
HETATM   24  O   UNL     1     -44.078  54.671 -54.369  1.00  0.00    -0.359 OA
HETATM   25  H   UNL     1     -44.080  54.407 -53.434  1.00  0.00     0.213 HD
ENDBRANCH   2  24
BRANCH   1  26
HETATM   26  C   UNL     1     -42.765  56.079 -51.962  1.00  0.00     0.042 A 
HETATM   27  C   UNL     1     -43.283  54.978 -51.271  1.00  0.00     0.030 A 
HETATM   28  C   UNL     1     -42.682  54.535 -50.091  1.00  0.00     0.002 A 
HETATM   29  C   UNL     1     -41.569  55.201 -49.580  1.00  0.00     0.000 A 
HETATM   30  C   UNL     1     -41.066  56.317 -50.242  1.00  0.00     0.002 A 
HETATM   31  C   UNL     1     -41.666  56.758 -51.423  1.00  0.00     0.030 A 
ENDBRANCH   1  26
TORSDOF 5
ENDMDL
MODEL 2
REMARK VINA RESULT:      -8.1      2.925      6.293
REMARK  5 active torsions:
REMARK  status: ('A' for Active; 'I' for Inactive)
REMARK    1  A    between atoms: C_4  and  N_5 
REMARK    2  A    between atoms: C_6  and  C_8 
REMARK    3  A    between atoms: C_6  and  O_7 
REMARK       I    between atoms: C_8  and  N_9 
REMARK    4  A    between atoms: N_9  and  C_10 
REMARK    5  A    between atoms: C_10  and  C_11 
ROOT
HETATM    1  N   UNL     1     -41.956  56.084 -52.563  1.00  0.00    -0.254 N 
HETATM    2  C   UNL     1     -41.416  55.235 -53.641  1.00  0.00     0.256 C 
HETATM    3  C   UNL     1     -40.878  53.911 -53.130  1.00  0.00     0.035 A 
HETATM    4  C   UNL     1     -40.440  53.856 -51.809  1.00  0.00     0.048 A 
HETATM    5  N   UNL     1     -40.594  54.976 -51.003  1.00  0.00    -0.308 N 
HETATM    6  C   UNL     1     -41.332  56.080 -51.322  1.00  0.00     0.330 C 
HETATM    7  O   UNL     1     -41.452  56.956 -50.464  1.00  0.00    -0.246 OA
HETATM    8  C   UNL     1     -40.702  52.774 -53.938  1.00  0.00     0.034 A 
HETATM    9  C   UNL     1     -40.132  51.613 -53.409  1.00  0.00     0.011 A 
HETATM   10 BR   UNL     1     -39.931  50.084 -54.503  1.00  0.00    -0.051 Br
HETATM   11  C   UNL     1     -39.703  51.575 -52.085  1.00  0.00     0.021 A 
HETATM   12  C   UNL     1     -39.848  52.705 -51.283  1.00  0.00     0.031 A 
HETATM   13  H   UNL     1     -40.241  54.973 -50.054  1.00  0.00     0.170 HD
ENDROOT
BRANCH   2  14
HETATM   14  C   UNL     1     -42.423  55.001 -54.846  1.00  0.00     0.279 C 
HETATM   15  N   UNL     1     -42.020  55.599 -56.028  1.00  0.00    -0.352 N 
HETATM   16  H   UNL     1     -41.037  55.845 -56.097  1.00  0.00     0.162 HD
HETATM   17  O   UNL     1     -43.490  54.395 -54.747  1.00  0.00    -0.268 OA
BRANCH  15  18
HETATM   18  C   UNL     1     -42.791  55.497 -57.240  1.00  0.00     0.168 C 
BRANCH  18  19
HETATM   19  C   UNL     1     -43.293  56.863 -57.573  1.00  0.00     0.000 A 
HETATM   20  S   UNL     1     -42.718  57.688 -58.960  1.00  0.00    -0.105 SA
HETATM   21  C   UNL     1     -43.692  59.054 -58.630  1.00  0.00     0.050 A 
HETATM   22  C   UNL     1     -44.439  58.892 -57.485  1.00  0.00     0.008 A 
HETATM   23  C   UNL     1     -44.207  57.628 -56.872  1.00  0.00     0.017 A 
ENDBRANCH  18  19
ENDBRANCH  15  18
ENDBRANCH   2  14
BRANCH   2  24
HETATM   24  O   UNL     1     -40.267  55.931 -54.162  1.00  0.00    -0.359 OA
HETATM   25  H   UNL     1     -39.961  56.468 -53.413  1.00  0.00     0.213 HD
ENDBRANCH   2  24
BRANCH   1  26
HETATM   26  C   UNL     1     -42.783  57.198 -52.911  1.00  0.00     0.042 A 
HETATM   27  C   UNL     1     -42.239  58.353 -53.486  1.00  0.00     0.030 A 
HETATM   28  C   UNL     1     -43.061  59.430 -53.826  1.00  0.00     0.002 A 
HETATM   29  C   UNL     1     -44.431  59.370 -53.576  1.00  0.00     0.000 A 
HETATM   30  C   UNL     1     -44.977  58.240 -52.974  1.00  0.00     0.002 A 
HETATM   31  C   UNL     1     -44.155  57.162 -52.637  1.00  0.00     0.030 A 
ENDBRANCH   1  26
TORSDOF 5
ENDMDL
MODEL 3
REMARK VINA RESULT:      -7.8      3.423      5.849
REMARK  5 active torsions:
REMARK  status: ('A' for Active; 'I' for Inactive)
REMARK    1  A    between atoms: C_4  and  N_5 
REMARK    2  A    between atoms: C_6  and  C_8 
REMARK    3  A    between atoms: C_6  and  O_7 
REMARK       I    between atoms: C_8  and  N_9 
REMARK    4  A    between atoms: N_9  and  C_10 
REMARK    5  A    between atoms: C_10  and  C_11 
ROOT
HETATM    1  N   UNL     1     -43.199  56.194 -53.102  1.00  0.00    -0.254 N 
HETATM    2  C   UNL     1     -44.102  57.046 -53.897  1.00  0.00     0.256 C 
HETATM    3  C   UNL     1     -44.731  58.158 -53.077  1.00  0.00     0.035 A 
HETATM    4  C   UNL     1     -44.868  57.953 -51.706  1.00  0.00     0.048 A 
HETATM    5  N   UNL     1     -44.349  56.795 -51.145  1.00  0.00    -0.308 N 
HETATM    6  C   UNL     1     -43.522  55.913 -51.781  1.00  0.00     0.330 C 
HETATM    7  O   UNL     1     -43.067  54.977 -51.122  1.00  0.00    -0.246 OA
HETATM    8  C   UNL     1     -45.274  59.329 -53.634  1.00  0.00     0.034 A 
HETATM    9  C   UNL     1     -45.903  60.273 -52.817  1.00  0.00     0.011 A 
HETATM   10 BR   UNL     1     -46.600  61.856 -53.580  1.00  0.00    -0.051 Br
HETATM   11  C   UNL     1     -46.027  60.054 -51.448  1.00  0.00     0.021 A 
HETATM   12  C   UNL     1     -45.516  58.884 -50.890  1.00  0.00     0.031 A 
HETATM   13  H   UNL     1     -44.478  56.605 -50.159  1.00  0.00     0.170 HD
ENDROOT
BRANCH   2  14
HETATM   14  C   UNL     1     -43.442  57.631 -55.218  1.00  0.00     0.279 C 
HETATM   15  N   UNL     1     -43.986  57.116 -56.382  1.00  0.00    -0.352 N 
HETATM   16  H   UNL     1     -44.901  56.683 -56.301  1.00  0.00     0.162 HD
HETATM   17  O   UNL     1     -42.504  58.427 -55.227  1.00  0.00    -0.268 OA
BRANCH  15  18
HETATM   18  C   UNL     1     -43.532  57.525 -57.686  1.00  0.00     0.168 C 
BRANCH  18  19
HETATM   19  C   UNL     1     -44.136  56.595 -58.687  1.00  0.00     0.000 A 
HETATM   20  S   UNL     1     -45.575  57.020 -59.513  1.00  0.00    -0.105 SA
HETATM   21  C   UNL     1     -45.591  55.545 -60.377  1.00  0.00     0.050 A 
HETATM   22  C   UNL     1     -44.525  54.740 -60.045  1.00  0.00     0.008 A 
HETATM   23  C   UNL     1     -43.685  55.345 -59.066  1.00  0.00     0.017 A 
ENDBRANCH  18  19
ENDBRANCH  15  18
ENDBRANCH   2  14
BRANCH   2  24
HETATM   24  O   UNL     1     -45.201  56.204 -54.295  1.00  0.00    -0.359 OA
HETATM   25  H   UNL     1     -45.421  56.515 -55.188  1.00  0.00     0.213 HD
ENDBRANCH   2  24
BRANCH   1  26
HETATM   26  C   UNL     1     -42.291  55.324 -53.785  1.00  0.00     0.042 A 
HETATM   27  C   UNL     1     -42.689  54.051 -54.209  1.00  0.00     0.030 A 
HETATM   28  C   UNL     1     -41.792  53.216 -54.880  1.00  0.00     0.002 A 
HETATM   29  C   UNL     1     -40.485  53.638 -55.117  1.00  0.00     0.000 A 
HETATM   30  C   UNL     1     -40.071  54.890 -54.670  1.00  0.00     0.002 A 
HETATM   31  C   UNL     1     -40.968  55.726 -54.001  1.00  0.00     0.030 A 
ENDBRANCH   1  26
TORSDOF 5
ENDMDL
MODEL 4
REMARK VINA RESULT:      -7.3      3.479      6.778
REMARK  5 active torsions:
REMARK  status: ('A' for Active; 'I' for Inactive)
REMARK    1  A    between atoms: C_4  and  N_5 
REMARK    2  A    between atoms: C_6  and  C_8 
REMARK    3  A    between atoms: C_6  and  O_7 
REMARK       I    between atoms: C_8  and  N_9 
REMARK    4  A    between atoms: N_9  and  C_10 
REMARK    5  A    between atoms: C_10  and  C_11 
ROOT
HETATM    1  N   UNL     1     -42.902  56.815 -55.210  1.00  0.00    -0.254 N 
HETATM    2  C   UNL     1     -43.089  56.011 -53.988  1.00  0.00     0.256 C 
HETATM    3  C   UNL     1     -42.035  54.931 -53.831  1.00  0.00     0.035 A 
HETATM    4  C   UNL     1     -41.422  54.452 -54.986  1.00  0.00     0.048 A 
HETATM    5  N   UNL     1     -41.734  55.038 -56.205  1.00  0.00    -0.308 N 
HETATM    6  C   UNL     1     -42.442  56.196 -56.364  1.00  0.00     0.330 C 
HETATM    7  O   UNL     1     -42.559  56.643 -57.505  1.00  0.00    -0.246 OA
HETATM    8  C   UNL     1     -41.720  54.317 -52.606  1.00  0.00     0.034 A 
HETATM    9  C   UNL     1     -40.788  53.277 -52.557  1.00  0.00     0.011 A 
HETATM   10 BR   UNL     1     -40.355  52.484 -50.896  1.00  0.00    -0.051 Br
HETATM   11  C   UNL     1     -40.182  52.814 -53.721  1.00  0.00     0.021 A 
HETATM   12  C   UNL     1     -40.507  53.396 -54.944  1.00  0.00     0.031 A 
HETATM   13  H   UNL     1     -41.335  54.676 -57.062  1.00  0.00     0.170 HD
ENDROOT
BRANCH   2  14
HETATM   14  C   UNL     1     -43.208  56.872 -52.659  1.00  0.00     0.279 C 
HETATM   15  N   UNL     1     -44.511  57.041 -52.224  1.00  0.00    -0.352 N 
HETATM   16  H   UNL     1     -45.197  56.384 -52.585  1.00  0.00     0.162 HD
HETATM   17  O   UNL     1     -42.252  57.392 -52.085  1.00  0.00    -0.268 OA
BRANCH  15  18
HETATM   18  C   UNL     1     -44.832  57.782 -51.032  1.00  0.00     0.168 C 
BRANCH  18  19
HETATM   19  C   UNL     1     -45.024  59.210 -51.426  1.00  0.00     0.000 A 
HETATM   20  S   UNL     1     -43.819  60.378 -51.082  1.00  0.00    -0.105 SA
HETATM   21  C   UNL     1     -44.745  61.634 -51.783  1.00  0.00     0.050 A 
HETATM   22  C   UNL     1     -45.950  61.179 -52.267  1.00  0.00     0.008 A 
HETATM   23  C   UNL     1     -46.113  59.779 -52.058  1.00  0.00     0.017 A 
ENDBRANCH  18  19
ENDBRANCH  15  18
ENDBRANCH   2  14
BRANCH   2  24
HETATM   24  O   UNL     1     -44.331  55.302 -54.161  1.00  0.00    -0.359 OA
HETATM   25  H   UNL     1     -45.005  55.940 -53.873  1.00  0.00     0.213 HD
ENDBRANCH   2  24
BRANCH   1  26
HETATM   26  C   UNL     1     -43.600  58.058 -55.331  1.00  0.00     0.042 A 
HETATM   27  C   UNL     1     -44.943  58.100 -55.724  1.00  0.00     0.030 A 
HETATM   28  C   UNL     1     -45.612  59.322 -55.832  1.00  0.00     0.002 A 
HETATM   29  C   UNL     1     -44.940  60.513 -55.567  1.00  0.00     0.000 A 
HETATM   30  C   UNL     1     -43.595  60.484 -55.207  1.00  0.00     0.002 A 
HETATM   31  C   UNL     1     -42.927  59.263 -55.097  1.00  0.00     0.030 A 
ENDBRANCH   1  26
TORSDOF 5
ENDMDL
MODEL 5
REMARK VINA RESULT:      -7.2     15.316     17.716
REMARK  5 active torsions:
REMARK  status: ('A' for Active; 'I' for Inactive)
REMARK    1  A    between atoms: C_4  and  N_5 
REMARK    2  A    between atoms: C_6  and  C_8 
REMARK    3  A    between atoms: C_6  and  O_7 
REMARK       I    between atoms: C_8  and  N_9 
REMARK    4  A    between atoms: N_9  and  C_10 
REMARK    5  A    between atoms: C_10  and  C_11 
ROOT
HETATM    1  N   UNL     1     -35.215  40.743 -53.411  1.00  0.00    -0.254 N 
HETATM    2  C   UNL     1     -35.927  39.593 -53.997  1.00  0.00     0.256 C 
HETATM    3  C   UNL     1     -36.649  39.945 -55.285  1.00  0.00     0.035 A 
HETATM    4  C   UNL     1     -37.037  41.270 -55.467  1.00  0.00     0.048 A 
HETATM    5  N   UNL     1     -36.673  42.214 -54.517  1.00  0.00    -0.308 N 
HETATM    6  C   UNL     1     -35.781  42.008 -53.503  1.00  0.00     0.330 C 
HETATM    7  O   UNL     1     -35.488  42.971 -52.794  1.00  0.00    -0.246 OA
HETATM    8  C   UNL     1     -37.037  38.998 -56.248  1.00  0.00     0.034 A 
HETATM    9  C   UNL     1     -37.765  39.394 -57.374  1.00  0.00     0.011 A 
HETATM   10 BR   UNL     1     -38.252  38.110 -58.674  1.00  0.00    -0.051 Br
HETATM   11  C   UNL     1     -38.141  40.724 -57.542  1.00  0.00     0.021 A 
HETATM   12  C   UNL     1     -37.784  41.665 -56.580  1.00  0.00     0.031 A 
HETATM   13  H   UNL     1     -36.984  43.173 -54.607  1.00  0.00     0.170 HD
ENDROOT
BRANCH   2  14
HETATM   14  C   UNL     1     -35.019  38.306 -54.200  1.00  0.00     0.279 C 
HETATM   15  N   UNL     1     -34.054  38.459 -55.181  1.00  0.00    -0.352 N 
HETATM   16  H   UNL     1     -33.821  39.413 -55.442  1.00  0.00     0.162 HD
HETATM   17  O   UNL     1     -35.175  37.248 -53.592  1.00  0.00    -0.268 OA
BRANCH  15  18
HETATM   18  C   UNL     1     -33.124  37.410 -55.511  1.00  0.00     0.168 C 
BRANCH  18  19
HETATM   19  C   UNL     1     -31.828  38.054 -55.881  1.00  0.00     0.000 A 
HETATM   20  S   UNL     1     -30.362  37.173 -55.797  1.00  0.00    -0.105 SA
HETATM   21  C   UNL     1     -29.447  38.519 -56.321  1.00  0.00     0.050 A 
HETATM   22  C   UNL     1     -30.238  39.622 -56.553  1.00  0.00     0.008 A 
HETATM   23  C   UNL     1     -31.613  39.355 -56.296  1.00  0.00     0.017 A 
ENDBRANCH  18  19
ENDBRANCH  15  18
ENDBRANCH   2  14
BRANCH   2  24
HETATM   24  O   UNL     1     -36.969  39.248 -53.064  1.00  0.00    -0.359 OA
HETATM   25  H   UNL     1     -36.613  39.527 -52.204  1.00  0.00     0.213 HD
ENDBRANCH   2  24
BRANCH   1  26
HETATM   26  C   UNL     1     -34.234  40.504 -52.397  1.00  0.00     0.042 A 
HETATM   27  C   UNL     1     -34.609  40.225 -51.077  1.00  0.00     0.030 A 
HETATM   28  C   UNL     1     -33.640  39.987 -50.100  1.00  0.00     0.002 A 
HETATM   29  C   UNL     1     -32.286  40.046 -50.428  1.00  0.00     0.000 A 
HETATM   30  C   UNL     1     -31.903  40.355 -51.731  1.00  0.00     0.002 A 
HETATM   31  C   UNL     1     -32.872  40.590 -52.708  1.00  0.00     0.030 A 
ENDBRANCH   1  26
TORSDOF 5
ENDMDL
MODEL 6
REMARK VINA RESULT:      -7.0      3.373      5.889
REMARK  5 active torsions:
REMARK  status: ('A' for Active; 'I' for Inactive)
REMARK    1  A    between atoms: C_4  and  N_5 
REMARK    2  A    between atoms: C_6  and  C_8 
REMARK    3  A    between atoms: C_6  and  O_7 
REMARK       I    between atoms: C_8  and  N_9 
REMARK    4  A    between atoms: N_9  and  C_10 
REMARK    5  A    between atoms: C_10  and  C_11 
ROOT
HETATM    1  N   UNL     1     -43.812  58.428 -52.183  1.00  0.00    -0.254 N 
HETATM    2  C   UNL     1     -42.487  57.965 -52.631  1.00  0.00     0.256 C 
HETATM    3  C   UNL     1     -42.417  56.457 -52.794  1.00  0.00     0.035 A 
HETATM    4  C   UNL     1     -43.290  55.683 -52.034  1.00  0.00     0.048 A 
HETATM    5  N   UNL     1     -44.234  56.319 -51.239  1.00  0.00    -0.308 N 
HETATM    6  C   UNL     1     -44.532  57.652 -51.284  1.00  0.00     0.330 C 
HETATM    7  O   UNL     1     -45.460  58.054 -50.582  1.00  0.00    -0.246 OA
HETATM    8  C   UNL     1     -41.457  55.799 -53.583  1.00  0.00     0.034 A 
HETATM    9  C   UNL     1     -41.414  54.403 -53.622  1.00  0.00     0.011 A 
HETATM   10 BR   UNL     1     -40.135  53.535 -54.713  1.00  0.00    -0.051 Br
HETATM   11  C   UNL     1     -42.297  53.645 -52.859  1.00  0.00     0.021 A 
HETATM   12  C   UNL     1     -43.234  54.287 -52.053  1.00  0.00     0.031 A 
HETATM   13  H   UNL     1     -44.848  55.777 -50.645  1.00  0.00     0.170 HD
ENDROOT
BRANCH   2  14
HETATM   14  C   UNL     1     -41.956  58.692 -53.939  1.00  0.00     0.279 C 
HETATM   15  N   UNL     1     -42.658  58.355 -55.084  1.00  0.00    -0.352 N 
HETATM   16  H   UNL     1     -43.580  57.951 -54.946  1.00  0.00     0.162 HD
HETATM   17  O   UNL     1     -40.983  59.446 -53.964  1.00  0.00    -0.268 OA
BRANCH  15  18
HETATM   18  C   UNL     1     -42.338  58.914 -56.372  1.00  0.00     0.168 C 
BRANCH  18  19
HETATM   19  C   UNL     1     -42.498  57.831 -57.387  1.00  0.00     0.000 A 
HETATM   20  S   UNL     1     -42.117  58.116 -59.033  1.00  0.00    -0.105 SA
HETATM   21  C   UNL     1     -42.553  56.524 -59.477  1.00  0.00     0.050 A 
HETATM   22  C   UNL     1     -42.985  55.786 -58.398  1.00  0.00     0.008 A 
HETATM   23  C   UNL     1     -42.956  56.542 -57.191  1.00  0.00     0.017 A 
ENDBRANCH  18  19
ENDBRANCH  15  18
ENDBRANCH   2  14
BRANCH   2  24
HETATM   24  O   UNL     1     -41.571  58.270 -51.561  1.00  0.00    -0.359 OA
HETATM   25  H   UNL     1     -40.698  58.233 -51.984  1.00  0.00     0.213 HD
ENDBRANCH   2  24
BRANCH   1  26
HETATM   26  C   UNL     1     -44.133  59.817 -52.299  1.00  0.00     0.042 A 
HETATM   27  C   UNL     1     -45.063  60.270 -53.242  1.00  0.00     0.030 A 
HETATM   28  C   UNL     1     -45.370  61.629 -53.339  1.00  0.00     0.002 A 
HETATM   29  C   UNL     1     -44.735  62.551 -52.508  1.00  0.00     0.000 A 
HETATM   30  C   UNL     1     -43.784  62.114 -51.589  1.00  0.00     0.002 A 
HETATM   31  C   UNL     1     -43.480  60.755 -51.491  1.00  0.00     0.030 A 
ENDBRANCH   1  26
TORSDOF 5
ENDMDL
MODEL 7
REMARK VINA RESULT:      -7.0      3.165      6.535
REMARK  5 active torsions:
REMARK  status: ('A' for Active; 'I' for Inactive)
REMARK    1  A    between atoms: C_4  and  N_5 
REMARK    2  A    between atoms: C_6  and  C_8 
REMARK    3  A    between atoms: C_6  and  O_7 
REMARK       I    between atoms: C_8  and  N_9 
REMARK    4  A    between atoms: N_9  and  C_10 
REMARK    5  A    between atoms: C_10  and  C_11 
ROOT
HETATM    1  N   UNL     1     -42.447  57.949 -52.361  1.00  0.00    -0.254 N 
HETATM    2  C   UNL     1     -41.721  56.856 -53.033  1.00  0.00     0.256 C 
HETATM    3  C   UNL     1     -41.225  55.799 -52.063  1.00  0.00     0.035 A 
HETATM    4  C   UNL     1     -40.993  56.188 -50.746  1.00  0.00     0.048 A 
HETATM    5  N   UNL     1     -41.306  57.484 -50.363  1.00  0.00    -0.308 N 
HETATM    6  C   UNL     1     -42.023  58.375 -51.111  1.00  0.00     0.330 C 
HETATM    7  O   UNL     1     -42.301  59.460 -50.597  1.00  0.00    -0.246 OA
HETATM    8  C   UNL     1     -40.889  54.487 -52.440  1.00  0.00     0.034 A 
HETATM    9  C   UNL     1     -40.369  53.594 -51.499  1.00  0.00     0.011 A 
HETATM   10 BR   UNL     1     -39.952  51.824 -52.018  1.00  0.00    -0.051 Br
HETATM   11  C   UNL     1     -40.148  53.998 -50.185  1.00  0.00     0.021 A 
HETATM   12  C   UNL     1     -40.452  55.304 -49.808  1.00  0.00     0.031 A 
HETATM   13  H   UNL     1     -41.104  57.801 -49.423  1.00  0.00     0.170 HD
ENDROOT
BRANCH   2  14
HETATM   14  C   UNL     1     -42.522  56.184 -54.228  1.00  0.00     0.279 C 
HETATM   15  N   UNL     1     -41.978  56.444 -55.474  1.00  0.00    -0.352 N 
HETATM   16  H   UNL     1     -41.010  56.750 -55.489  1.00  0.00     0.162 HD
HETATM   17  O   UNL     1     -43.558  55.536 -54.086  1.00  0.00    -0.268 OA
BRANCH  15  18
HETATM   18  C   UNL     1     -42.552  55.918 -56.686  1.00  0.00     0.168 C 
BRANCH  18  19
HETATM   19  C   UNL     1     -43.196  57.053 -57.411  1.00  0.00     0.000 A 
HETATM   20  S   UNL     1     -42.513  57.662 -58.859  1.00  0.00    -0.105 SA
HETATM   21  C   UNL     1     -43.739  58.844 -59.016  1.00  0.00     0.050 A 
HETATM   22  C   UNL     1     -44.651  58.783 -57.987  1.00  0.00     0.008 A 
HETATM   23  C   UNL     1     -44.337  57.750 -57.058  1.00  0.00     0.017 A 
ENDBRANCH  18  19
ENDBRANCH  15  18
ENDBRANCH   2  14
BRANCH   2  24
HETATM   24  O   UNL     1     -40.528  57.447 -53.586  1.00  0.00    -0.359 OA
HETATM   25  H   UNL     1     -40.227  56.795 -54.239  1.00  0.00     0.213 HD
ENDBRANCH   2  24
BRANCH   1  26
HETATM   26  C   UNL     1     -43.248  58.833 -53.152  1.00  0.00     0.042 A 
HETATM   27  C   UNL     1     -42.660  59.773 -54.006  1.00  0.00     0.030 A 
HETATM   28  C   UNL     1     -43.455  60.625 -54.776  1.00  0.00     0.002 A 
HETATM   29  C   UNL     1     -44.844  60.559 -54.685  1.00  0.00     0.000 A 
HETATM   30  C   UNL     1     -45.438  59.650 -53.813  1.00  0.00     0.002 A 
HETATM   31  C   UNL     1     -44.643  58.796 -53.046  1.00  0.00     0.030 A 
ENDBRANCH   1  26
TORSDOF 5
ENDMDL
MODEL 8
REMARK VINA RESULT:      -6.9      3.778      6.172
REMARK  5 active torsions:
REMARK  status: ('A' for Active; 'I' for Inactive)
REMARK    1  A    between atoms: C_4  and  N_5 
REMARK    2  A    between atoms: C_6  and  C_8 
REMARK    3  A    between atoms: C_6  and  O_7 
REMARK       I    between atoms: C_8  and  N_9 
REMARK    4  A    between atoms: N_9  and  C_10 
REMARK    5  A    between atoms: C_10  and  C_11 
ROOT
HETATM    1  N   UNL     1     -42.611  57.618 -52.806  1.00  0.00    -0.254 N 
HETATM    2  C   UNL     1     -43.157  58.825 -53.451  1.00  0.00     0.256 C 
HETATM    3  C   UNL     1     -43.145  60.035 -52.535  1.00  0.00     0.035 A 
HETATM    4  C   UNL     1     -43.181  59.807 -51.161  1.00  0.00     0.048 A 
HETATM    5  N   UNL     1     -43.138  58.500 -50.695  1.00  0.00    -0.308 N 
HETATM    6  C   UNL     1     -42.853  57.402 -51.457  1.00  0.00     0.330 C 
HETATM    7  O   UNL     1     -42.760  56.316 -50.882  1.00  0.00    -0.246 OA
HETATM    8  C   UNL     1     -43.204  61.364 -52.991  1.00  0.00     0.034 A 
HETATM    9  C   UNL     1     -43.262  62.421 -52.080  1.00  0.00     0.011 A 
HETATM   10 BR   UNL     1     -43.310  64.202 -52.713  1.00  0.00    -0.051 Br
HETATM   11  C   UNL     1     -43.293  62.175 -50.710  1.00  0.00     0.021 A 
HETATM   12  C   UNL     1     -43.263  60.861 -50.248  1.00  0.00     0.031 A 
HETATM   13  H   UNL     1     -43.209  58.310 -49.704  1.00  0.00     0.170 HD
ENDROOT
BRANCH   2  14
HETATM   14  C   UNL     1     -42.485  59.175 -54.846  1.00  0.00     0.279 C 
HETATM   15  N   UNL     1     -43.327  58.986 -55.929  1.00  0.00    -0.352 N 
HETATM   16  H   UNL     1     -44.322  58.950 -55.727  1.00  0.00     0.162 HD
HETATM   17  O   UNL     1     -41.315  59.530 -54.979  1.00  0.00    -0.268 OA
BRANCH  15  18
HETATM   18  C   UNL     1     -42.910  59.256 -57.280  1.00  0.00     0.168 C 
BRANCH  18  19
HETATM   19  C   UNL     1     -42.909  57.959 -58.021  1.00  0.00     0.000 A 
HETATM   20  S   UNL     1     -42.153  57.831 -59.552  1.00  0.00    -0.105 SA
HETATM   21  C   UNL     1     -42.581  56.181 -59.697  1.00  0.00     0.050 A 
HETATM   22  C   UNL     1     -43.289  55.733 -58.605  1.00  0.00     0.008 A 
HETATM   23  C   UNL     1     -43.482  56.760 -57.638  1.00  0.00     0.017 A 
ENDBRANCH  18  19
ENDBRANCH  15  18
ENDBRANCH   2  14
BRANCH   2  24
HETATM   24  O   UNL     1     -44.552  58.553 -53.695  1.00  0.00    -0.359 OA
HETATM   25  H   UNL     1     -44.538  57.890 -54.404  1.00  0.00     0.213 HD
ENDBRANCH   2  24
BRANCH   1  26
HETATM   26  C   UNL     1     -42.254  56.500 -53.626  1.00  0.00     0.042 A 
HETATM   27  C   UNL     1     -40.920  56.250 -53.970  1.00  0.00     0.030 A 
HETATM   28  C   UNL     1     -40.588  55.151 -54.766  1.00  0.00     0.002 A 
HETATM   29  C   UNL     1     -41.587  54.304 -55.242  1.00  0.00     0.000 A 
HETATM   30  C   UNL     1     -42.919  54.564 -54.933  1.00  0.00     0.002 A 
HETATM   31  C   UNL     1     -43.251  55.660 -54.135  1.00  0.00     0.030 A 
ENDBRANCH   1  26
TORSDOF 5
ENDMDL
MODEL 9
REMARK VINA RESULT:      -6.7      3.240      6.071
REMARK  5 active torsions:
REMARK  status: ('A' for Active; 'I' for Inactive)
REMARK    1  A    between atoms: C_4  and  N_5 
REMARK    2  A    between atoms: C_6  and  C_8 
REMARK    3  A    between atoms: C_6  and  O_7 
REMARK       I    between atoms: C_8  and  N_9 
REMARK    4  A    between atoms: N_9  and  C_10 
REMARK    5  A    between atoms: C_10  and  C_11 
ROOT
HETATM    1  N   UNL     1     -43.282  55.947 -52.888  1.00  0.00    -0.254 N 
HETATM    2  C   UNL     1     -44.022  56.805 -53.830  1.00  0.00     0.256 C 
HETATM    3  C   UNL     1     -44.627  58.025 -53.160  1.00  0.00     0.035 A 
HETATM    4  C   UNL     1     -44.915  57.940 -51.800  1.00  0.00     0.048 A 
HETATM    5  N   UNL     1     -44.559  56.791 -51.108  1.00  0.00    -0.308 N 
HETATM    6  C   UNL     1     -43.756  55.797 -51.592  1.00  0.00     0.330 C 
HETATM    7  O   UNL     1     -43.454  54.882 -50.826  1.00  0.00    -0.246 OA
HETATM    8  C   UNL     1     -45.006  59.190 -53.850  1.00  0.00     0.034 A 
HETATM    9  C   UNL     1     -45.624  60.243 -53.171  1.00  0.00     0.011 A 
HETATM   10 BR   UNL     1     -46.100  61.814 -54.110  1.00  0.00    -0.051 Br
HETATM   11  C   UNL     1     -45.901  60.142 -51.810  1.00  0.00     0.021 A 
HETATM   12  C   UNL     1     -45.554  58.982 -51.122  1.00  0.00     0.031 A 
HETATM   13  H   UNL     1     -44.800  56.689 -50.130  1.00  0.00     0.170 HD
ENDROOT
BRANCH   2  14
HETATM   14  C   UNL     1     -43.188  57.229 -55.113  1.00  0.00     0.279 C 
HETATM   15  N   UNL     1     -43.730  56.771 -56.302  1.00  0.00    -0.352 N 
HETATM   16  H   UNL     1     -44.708  56.498 -56.277  1.00  0.00     0.162 HD
HETATM   17  O   UNL     1     -42.131  57.858 -55.072  1.00  0.00    -0.268 OA
BRANCH  15  18
HETATM   18  C   UNL     1     -43.127  57.057 -57.578  1.00  0.00     0.168 C 
BRANCH  18  19
HETATM   19  C   UNL     1     -43.714  58.336 -58.079  1.00  0.00     0.000 A 
HETATM   20  S   UNL     1     -42.718  59.523 -58.809  1.00  0.00    -0.105 SA
HETATM   21  C   UNL     1     -44.044  60.574 -59.059  1.00  0.00     0.050 A 
HETATM   22  C   UNL     1     -45.223  60.037 -58.595  1.00  0.00     0.008 A 
HETATM   23  C   UNL     1     -45.033  58.745 -58.026  1.00  0.00     0.017 A 
ENDBRANCH  18  19
ENDBRANCH  15  18
ENDBRANCH   2  14
BRANCH   2  24
HETATM   24  O   UNL     1     -45.149  56.027 -54.281  1.00  0.00    -0.359 OA
HETATM   25  H   UNL     1     -45.792  56.696 -54.570  1.00  0.00     0.213 HD
ENDBRANCH   2  24
BRANCH   1  26
HETATM   26  C   UNL     1     -42.393  54.955 -53.412  1.00  0.00     0.042 A 
HETATM   27  C   UNL     1     -41.020  54.998 -53.144  1.00  0.00     0.030 A 
HETATM   28  C   UNL     1     -40.166  54.019 -53.658  1.00  0.00     0.002 A 
HETATM   29  C   UNL     1     -40.674  52.999 -54.460  1.00  0.00     0.000 A 
HETATM   30  C   UNL     1     -42.034  52.966 -54.759  1.00  0.00     0.002 A 
HETATM   31  C   UNL     1     -42.887  53.943 -54.244  1.00  0.00     0.030 A 
ENDBRANCH   1  26
TORSDOF 5
ENDMDL
MODEL 10
REMARK VINA RESULT:      -6.6      3.726      6.365
REMARK  5 active torsions:
REMARK  status: ('A' for Active; 'I' for Inactive)
REMARK    1  A    between atoms: C_4  and  N_5 
REMARK    2  A    between atoms: C_6  and  C_8 
REMARK    3  A    between atoms: C_6  and  O_7 
REMARK       I    between atoms: C_8  and  N_9 
REMARK    4  A    between atoms: N_9  and  C_10 
REMARK    5  A    between atoms: C_10  and  C_11 
ROOT
HETATM    1  N   UNL     1     -42.065  56.831 -52.485  1.00  0.00    -0.254 N 
HETATM    2  C   UNL     1     -43.389  57.357 -52.864  1.00  0.00     0.256 C 
HETATM    3  C   UNL     1     -43.629  58.765 -52.351  1.00  0.00     0.035 A 
HETATM    4  C   UNL     1     -42.934  59.166 -51.213  1.00  0.00     0.048 A 
HETATM    5  N   UNL     1     -41.999  58.303 -50.658  1.00  0.00    -0.308 N 
HETATM    6  C   UNL     1     -41.536  57.160 -51.245  1.00  0.00     0.330 C 
HETATM    7  O   UNL     1     -40.636  56.546 -50.670  1.00  0.00    -0.246 OA
HETATM    8  C   UNL     1     -44.583  59.643 -52.893  1.00  0.00     0.034 A 
HETATM    9  C   UNL     1     -44.794  60.898 -52.317  1.00  0.00     0.011 A 
HETATM   10 BR   UNL     1     -46.061  62.078 -53.079  1.00  0.00    -0.051 Br
HETATM   11  C   UNL     1     -44.087  61.285 -51.182  1.00  0.00     0.021 A 
HETATM   12  C   UNL     1     -43.159  60.411 -50.620  1.00  0.00     0.031 A 
HETATM   13  H   UNL     1     -41.515  58.556 -49.805  1.00  0.00     0.170 HD
ENDROOT
BRANCH   2  14
HETATM   14  C   UNL     1     -43.700  57.268 -54.419  1.00  0.00     0.279 C 
HETATM   15  N   UNL     1     -42.829  58.009 -55.200  1.00  0.00    -0.352 N 
HETATM   16  H   UNL     1     -41.944  58.266 -54.771  1.00  0.00     0.162 HD
HETATM   17  O   UNL     1     -44.649  56.650 -54.900  1.00  0.00    -0.268 OA
BRANCH  15  18
HETATM   18  C   UNL     1     -42.936  58.053 -56.635  1.00  0.00     0.168 C 
BRANCH  18  19
HETATM   19  C   UNL     1     -42.537  59.424 -57.076  1.00  0.00     0.000 A 
HETATM   20  S   UNL     1     -43.178  60.809 -56.299  1.00  0.00    -0.105 SA
HETATM   21  C   UNL     1     -42.305  61.866 -57.322  1.00  0.00     0.050 A 
HETATM   22  C   UNL     1     -41.542  61.182 -58.241  1.00  0.00     0.008 A 
HETATM   23  C   UNL     1     -41.678  59.771 -58.101  1.00  0.00     0.017 A 
ENDBRANCH  18  19
ENDBRANCH  15  18
ENDBRANCH   2  14
BRANCH   2  24
HETATM   24  O   UNL     1     -44.358  56.537 -52.179  1.00  0.00    -0.359 OA
HETATM   25  H   UNL     1     -44.302  55.682 -52.635  1.00  0.00     0.213 HD
ENDBRANCH   2  24
BRANCH   1  26
HETATM   26  C   UNL     1     -41.566  55.670 -53.157  1.00  0.00     0.042 A 
HETATM   27  C   UNL     1     -40.623  55.779 -54.187  1.00  0.00     0.030 A 
HETATM   28  C   UNL     1     -40.141  54.636 -54.829  1.00  0.00     0.002 A 
HETATM   29  C   UNL     1     -40.612  53.376 -54.463  1.00  0.00     0.000 A 
HETATM   30  C   UNL     1     -41.574  53.260 -53.463  1.00  0.00     0.002 A 
HETATM   31  C   UNL     1     -42.054  54.403 -52.819  1.00  0.00     0.030 A 
ENDBRANCH   1  26
TORSDOF 5
ENDMDL
