MODEL 1
REMARK VINA RESULT:      -8.7      0.000      0.000
REMARK  7 active torsions:
REMARK  status: ('A' for Active; 'I' for Inactive)
REMARK    1  A    between atoms: C_2  and  N_3 
REMARK    2  A    between atoms: C_2  and  C_26 
REMARK       I    between atoms: N_3  and  C_4 
REMARK    3  A    between atoms: C_4  and  C_5 
REMARK    4  A    between atoms: C_8  and  C_9 
REMARK       I    between atoms: C_9  and  N_10 
REMARK    5  A    between atoms: N_10  and  C_11 
REMARK    6  A    between atoms: N_20  and  C_21 
REMARK    7  A    between atoms: C_29  and  O_30 
ROOT
HETATM    1  C   UNL     1     -43.578  55.971 -51.489  1.00  0.00     0.098 A 
HETATM    2  C   UNL     1     -43.390  56.185 -52.958  1.00  0.00     0.206 A 
HETATM    3  O   UNL     1     -42.791  55.356 -53.646  1.00  0.00    -0.286 OA
HETATM    4  C   UNL     1     -43.926  57.441 -53.567  1.00  0.00     0.098 A 
HETATM    5  C   UNL     1     -44.647  58.245 -52.766  1.00  0.00     0.112 A 
HETATM    6  N   UNL     1     -44.918  57.965 -51.443  1.00  0.00    -0.360 N 
HETATM    7  C   UNL     1     -44.326  56.877 -50.836  1.00  0.00     0.112 A 
ENDROOT
BRANCH   1   8
HETATM    8  C   UNL     1     -42.974  54.854 -50.711  1.00  0.00     0.257 C 
HETATM    9  N   UNL     1     -41.620  54.704 -50.857  1.00  0.00    -0.348 N 
HETATM   10  H   UNL     1     -41.123  55.357 -51.458  1.00  0.00     0.163 HD
HETATM   11  O   UNL     1     -43.653  54.137 -49.980  1.00  0.00    -0.267 OA
BRANCH   9  12
HETATM   12  C   UNL     1     -40.841  53.768 -50.065  1.00  0.00     0.114 C 
HETATM   13  C   UNL     1     -39.618  54.455 -49.453  1.00  0.00     0.037 C 
BRANCH  12  14
HETATM   14  C   UNL     1     -40.433  52.569 -50.901  1.00  0.00    -0.036 A 
HETATM   15  C   UNL     1     -40.347  52.687 -52.295  1.00  0.00     0.012 A 
HETATM   16  C   UNL     1     -39.979  51.591 -53.081  1.00  0.00     0.037 A 
HETATM   17  C   UNL     1     -39.682  50.360 -52.494  1.00  0.00     0.068 A 
HETATM   18  C   UNL     1     -39.770  50.229 -51.109  1.00  0.00     0.037 A 
HETATM   19  C   UNL     1     -40.145  51.323 -50.320  1.00  0.00     0.012 A 
BRANCH  17  20
HETATM   20  O   UNL     1     -39.330  49.375 -53.375  1.00  0.00    -0.356 OA
HETATM   21  C   UNL     1     -39.553  49.638 -54.755  1.00  0.00     0.210 C 
ENDBRANCH  17  20
ENDBRANCH  12  14
ENDBRANCH   9  12
ENDBRANCH   1   8
BRANCH   4  22
HETATM   22  C   UNL     1     -43.700  57.860 -54.978  1.00  0.00     0.257 C 
HETATM   23  N   UNL     1     -43.968  56.897 -55.920  1.00  0.00    -0.352 N 
HETATM   24  H   UNL     1     -44.194  55.963 -55.580  1.00  0.00     0.163 HD
HETATM   25  O   UNL     1     -43.298  58.988 -55.248  1.00  0.00    -0.267 OA
BRANCH  23  26
HETATM   26  C   UNL     1     -43.699  57.023 -57.352  1.00  0.00     0.084 C 
HETATM   27  C   UNL     1     -43.216  55.704 -57.966  1.00  0.00     0.025 C 
HETATM   28  C   UNL     1     -42.831  55.784 -59.444  1.00  0.00     0.002 C 
HETATM   29  C   UNL     1     -44.038  55.928 -60.364  1.00  0.00     0.000 C 
HETATM   30  C   UNL     1     -44.504  57.360 -60.602  1.00  0.00     0.000 C 
HETATM   31  C   UNL     1     -44.496  58.305 -59.406  1.00  0.00     0.002 C 
HETATM   32  C   UNL     1     -44.890  57.677 -58.071  1.00  0.00     0.025 C 
ENDBRANCH  23  26
ENDBRANCH   4  22
BRANCH   6  33
HETATM   33  C   UNL     1     -45.640  58.950 -50.627  1.00  0.00     0.089 A 
HETATM   34  C   UNL     1     -45.018  60.272 -50.256  1.00  0.00     0.028 A 
HETATM   35  C   UNL     1     -46.169  60.233 -51.214  1.00  0.00     0.028 A 
ENDBRANCH   6  33
TORSDOF 7
ENDMDL
MODEL 2
REMARK VINA RESULT:      -8.6      1.599      2.025
REMARK  7 active torsions:
REMARK  status: ('A' for Active; 'I' for Inactive)
REMARK    1  A    between atoms: C_2  and  N_3 
REMARK    2  A    between atoms: C_2  and  C_26 
REMARK       I    between atoms: N_3  and  C_4 
REMARK    3  A    between atoms: C_4  and  C_5 
REMARK    4  A    between atoms: C_8  and  C_9 
REMARK       I    between atoms: C_9  and  N_10 
REMARK    5  A    between atoms: N_10  and  C_11 
REMARK    6  A    between atoms: N_20  and  C_21 
REMARK    7  A    between atoms: C_29  and  O_30 
ROOT
HETATM    1  C   UNL     1     -44.404  57.564 -52.525  1.00  0.00     0.098 A 
HETATM    2  C   UNL     1     -44.363  57.374 -54.008  1.00  0.00     0.206 A 
HETATM    3  O   UNL     1     -44.048  56.287 -54.498  1.00  0.00    -0.286 OA
HETATM    4  C   UNL     1     -44.689  58.541 -54.884  1.00  0.00     0.098 A 
HETATM    5  C   UNL     1     -45.113  59.660 -54.272  1.00  0.00     0.112 A 
HETATM    6  N   UNL     1     -45.267  59.775 -52.905  1.00  0.00    -0.360 N 
HETATM    7  C   UNL     1     -44.850  58.751 -52.079  1.00  0.00     0.112 A 
ENDROOT
BRANCH   1   8
HETATM    8  C   UNL     1     -43.960  56.552 -51.527  1.00  0.00     0.257 C 
HETATM    9  N   UNL     1     -42.776  55.926 -51.816  1.00  0.00    -0.348 N 
HETATM   10  H   UNL     1     -42.279  56.197 -52.662  1.00  0.00     0.163 HD
HETATM   11  O   UNL     1     -44.612  56.318 -50.513  1.00  0.00    -0.267 OA
BRANCH   9  12
HETATM   12  C   UNL     1     -42.116  55.023 -50.889  1.00  0.00     0.114 C 
HETATM   13  C   UNL     1     -41.209  55.793 -49.927  1.00  0.00     0.037 C 
BRANCH  12  14
HETATM   14  C   UNL     1     -41.335  53.960 -51.642  1.00  0.00    -0.036 A 
HETATM   15  C   UNL     1     -41.522  53.802 -53.021  1.00  0.00     0.012 A 
HETATM   16  C   UNL     1     -40.816  52.825 -53.728  1.00  0.00     0.037 A 
HETATM   17  C   UNL     1     -39.906  51.991 -53.077  1.00  0.00     0.068 A 
HETATM   18  C   UNL     1     -39.716  52.135 -51.703  1.00  0.00     0.037 A 
HETATM   19  C   UNL     1     -40.427  53.108 -50.992  1.00  0.00     0.012 A 
BRANCH  17  20
HETATM   20  O   UNL     1     -39.279  51.084 -53.887  1.00  0.00    -0.356 OA
HETATM   21  C   UNL     1     -40.036  49.948 -54.284  1.00  0.00     0.210 C 
ENDBRANCH  17  20
ENDBRANCH  12  14
ENDBRANCH   9  12
ENDBRANCH   1   8
BRANCH   4  22
HETATM   22  C   UNL     1     -44.559  58.548 -56.368  1.00  0.00     0.257 C 
HETATM   23  N   UNL     1     -45.436  57.724 -57.031  1.00  0.00    -0.352 N 
HETATM   24  H   UNL     1     -46.019  57.112 -56.463  1.00  0.00     0.163 HD
HETATM   25  O   UNL     1     -43.718  59.244 -56.928  1.00  0.00    -0.267 OA
BRANCH  23  26
HETATM   26  C   UNL     1     -45.417  57.459 -58.470  1.00  0.00     0.084 C 
HETATM   27  C   UNL     1     -44.343  56.435 -58.854  1.00  0.00     0.025 C 
HETATM   28  C   UNL     1     -44.207  56.176 -60.355  1.00  0.00     0.002 C 
HETATM   29  C   UNL     1     -45.371  55.373 -60.925  1.00  0.00     0.000 C 
HETATM   30  C   UNL     1     -46.573  56.200 -61.368  1.00  0.00     0.000 C 
HETATM   31  C   UNL     1     -46.980  57.372 -60.481  1.00  0.00     0.002 C 
HETATM   32  C   UNL     1     -46.832  57.140 -58.980  1.00  0.00     0.025 C 
ENDBRANCH  23  26
ENDBRANCH   4  22
BRANCH   6  33
HETATM   33  C   UNL     1     -45.651  61.068 -52.325  1.00  0.00     0.089 A 
HETATM   34  C   UNL     1     -47.098  61.438 -52.117  1.00  0.00     0.028 A 
HETATM   35  C   UNL     1     -46.218  61.177 -50.933  1.00  0.00     0.028 A 
ENDBRANCH   6  33
TORSDOF 7
ENDMDL
MODEL 3
REMARK VINA RESULT:      -8.5      2.677      8.429
REMARK  7 active torsions:
REMARK  status: ('A' for Active; 'I' for Inactive)
REMARK    1  A    between atoms: C_2  and  N_3 
REMARK    2  A    between atoms: C_2  and  C_26 
REMARK       I    between atoms: N_3  and  C_4 
REMARK    3  A    between atoms: C_4  and  C_5 
REMARK    4  A    between atoms: C_8  and  C_9 
REMARK       I    between atoms: C_9  and  N_10 
REMARK    5  A    between atoms: N_10  and  C_11 
REMARK    6  A    between atoms: N_20  and  C_21 
REMARK    7  A    between atoms: C_29  and  O_30 
ROOT
HETATM    1  C   UNL     1     -41.816  58.523 -54.627  1.00  0.00     0.098 A 
HETATM    2  C   UNL     1     -41.865  57.040 -54.430  1.00  0.00     0.206 A 
HETATM    3  O   UNL     1     -42.158  56.288 -55.363  1.00  0.00    -0.286 OA
HETATM    4  C   UNL     1     -41.574  56.494 -53.070  1.00  0.00     0.098 A 
HETATM    5  C   UNL     1     -41.173  57.373 -52.135  1.00  0.00     0.112 A 
HETATM    6  N   UNL     1     -41.009  58.723 -52.372  1.00  0.00    -0.360 N 
HETATM    7  C   UNL     1     -41.395  59.258 -53.584  1.00  0.00     0.112 A 
ENDROOT
BRANCH   1   8
HETATM    8  C   UNL     1     -42.227  59.227 -55.873  1.00  0.00     0.257 C 
HETATM    9  N   UNL     1     -43.442  58.852 -56.384  1.00  0.00    -0.348 N 
HETATM   10  H   UNL     1     -43.980  58.148 -55.885  1.00  0.00     0.163 HD
HETATM   11  O   UNL     1     -41.523  60.093 -56.386  1.00  0.00    -0.267 OA
BRANCH   9  12
HETATM   12  C   UNL     1     -44.070  59.532 -57.503  1.00  0.00     0.114 C 
HETATM   13  C   UNL     1     -44.895  60.729 -57.024  1.00  0.00     0.037 C 
BRANCH  12  14
HETATM   14  C   UNL     1     -44.924  58.567 -58.305  1.00  0.00    -0.036 A 
HETATM   15  C   UNL     1     -46.253  58.892 -58.602  1.00  0.00     0.012 A 
HETATM   16  C   UNL     1     -47.056  58.011 -59.334  1.00  0.00     0.037 A 
HETATM   17  C   UNL     1     -46.547  56.794 -59.790  1.00  0.00     0.068 A 
HETATM   18  C   UNL     1     -45.227  56.457 -59.495  1.00  0.00     0.037 A 
HETATM   19  C   UNL     1     -44.424  57.334 -58.757  1.00  0.00     0.012 A 
BRANCH  17  20
HETATM   20  O   UNL     1     -47.435  56.032 -60.498  1.00  0.00    -0.356 OA
HETATM   21  C   UNL     1     -47.958  56.598 -61.692  1.00  0.00     0.210 C 
ENDBRANCH  17  20
ENDBRANCH  12  14
ENDBRANCH   9  12
ENDBRANCH   1   8
BRANCH   4  22
HETATM   22  C   UNL     1     -41.717  55.062 -52.684  1.00  0.00     0.257 C 
HETATM   23  N   UNL     1     -40.714  54.238 -53.133  1.00  0.00    -0.352 N 
HETATM   24  H   UNL     1     -40.025  54.644 -53.765  1.00  0.00     0.163 HD
HETATM   25  O   UNL     1     -42.673  54.676 -52.019  1.00  0.00    -0.267 OA
BRANCH  23  26
HETATM   26  C   UNL     1     -40.698  52.782 -52.998  1.00  0.00     0.084 C 
HETATM   27  C   UNL     1     -40.573  52.078 -54.355  1.00  0.00     0.025 C 
HETATM   28  C   UNL     1     -40.641  50.551 -54.298  1.00  0.00     0.002 C 
HETATM   29  C   UNL     1     -39.383  49.926 -53.704  1.00  0.00     0.000 C 
HETATM   30  C   UNL     1     -39.379  49.794 -52.185  1.00  0.00     0.000 C 
HETATM   31  C   UNL     1     -39.955  50.956 -51.382  1.00  0.00     0.002 C 
HETATM   32  C   UNL     1     -39.668  52.346 -51.944  1.00  0.00     0.025 C 
ENDBRANCH  23  26
ENDBRANCH   4  22
BRANCH   6  33
HETATM   33  C   UNL     1     -40.652  59.615 -51.263  1.00  0.00     0.089 A 
HETATM   34  C   UNL     1     -41.708  60.269 -50.408  1.00  0.00     0.028 A 
HETATM   35  C   UNL     1     -40.830  59.205 -49.824  1.00  0.00     0.028 A 
ENDBRANCH   6  33
TORSDOF 7
ENDMDL
MODEL 4
REMARK VINA RESULT:      -8.1      2.696      8.767
REMARK  7 active torsions:
REMARK  status: ('A' for Active; 'I' for Inactive)
REMARK    1  A    between atoms: C_2  and  N_3 
REMARK    2  A    between atoms: C_2  and  C_26 
REMARK       I    between atoms: N_3  and  C_4 
REMARK    3  A    between atoms: C_4  and  C_5 
REMARK    4  A    between atoms: C_8  and  C_9 
REMARK       I    between atoms: C_9  and  N_10 
REMARK    5  A    between atoms: N_10  and  C_11 
REMARK    6  A    between atoms: N_20  and  C_21 
REMARK    7  A    between atoms: C_29  and  O_30 
ROOT
HETATM    1  C   UNL     1     -43.909  57.270 -55.379  1.00  0.00     0.098 A 
HETATM    2  C   UNL     1     -43.064  56.092 -55.011  1.00  0.00     0.206 A 
HETATM    3  O   UNL     1     -42.445  55.464 -55.873  1.00  0.00    -0.286 OA
HETATM    4  C   UNL     1     -43.006  55.681 -53.575  1.00  0.00     0.098 A 
HETATM    5  C   UNL     1     -43.632  56.474 -52.690  1.00  0.00     0.112 A 
HETATM    6  N   UNL     1     -44.300  57.631 -53.036  1.00  0.00    -0.360 N 
HETATM    7  C   UNL     1     -44.469  57.954 -54.366  1.00  0.00     0.112 A 
ENDROOT
BRANCH   1   8
HETATM    8  C   UNL     1     -44.190  57.709 -56.775  1.00  0.00     0.257 C 
HETATM    9  N   UNL     1     -43.109  57.714 -57.616  1.00  0.00    -0.348 N 
HETATM   10  H   UNL     1     -42.210  57.410 -57.250  1.00  0.00     0.163 HD
HETATM   11  O   UNL     1     -45.321  58.025 -57.135  1.00  0.00    -0.267 OA
BRANCH   9  12
HETATM   12  C   UNL     1     -43.221  57.968 -59.041  1.00  0.00     0.114 C 
HETATM   13  C   UNL     1     -42.683  56.787 -59.852  1.00  0.00     0.037 C 
BRANCH  12  14
HETATM   14  C   UNL     1     -42.508  59.256 -59.413  1.00  0.00    -0.036 A 
HETATM   15  C   UNL     1     -42.010  60.094 -58.407  1.00  0.00     0.012 A 
HETATM   16  C   UNL     1     -41.356  61.286 -58.732  1.00  0.00     0.037 A 
HETATM   17  C   UNL     1     -41.179  61.662 -60.064  1.00  0.00     0.068 A 
HETATM   18  C   UNL     1     -41.675  60.839 -61.074  1.00  0.00     0.037 A 
HETATM   19  C   UNL     1     -42.336  59.648 -60.751  1.00  0.00     0.012 A 
BRANCH  17  20
HETATM   20  O   UNL     1     -40.518  62.847 -60.242  1.00  0.00    -0.356 OA
HETATM   21  C   UNL     1     -39.794  63.002 -61.456  1.00  0.00     0.210 C 
ENDBRANCH  17  20
ENDBRANCH  12  14
ENDBRANCH   9  12
ENDBRANCH   1   8
BRANCH   4  22
HETATM   22  C   UNL     1     -42.324  54.455 -53.073  1.00  0.00     0.257 C 
HETATM   23  N   UNL     1     -41.085  54.216 -53.615  1.00  0.00    -0.352 N 
HETATM   24  H   UNL     1     -40.784  54.826 -54.375  1.00  0.00     0.163 HD
HETATM   25  O   UNL     1     -42.858  53.728 -52.241  1.00  0.00    -0.267 OA
BRANCH  23  26
HETATM   26  C   UNL     1     -40.281  53.017 -53.383  1.00  0.00     0.084 C 
HETATM   27  C   UNL     1     -40.045  52.761 -51.890  1.00  0.00     0.025 C 
HETATM   28  C   UNL     1     -39.135  51.572 -51.576  1.00  0.00     0.002 C 
HETATM   29  C   UNL     1     -39.806  50.228 -51.840  1.00  0.00     0.000 C 
HETATM   30  C   UNL     1     -39.677  49.708 -53.268  1.00  0.00     0.000 C 
HETATM   31  C   UNL     1     -39.817  50.724 -54.396  1.00  0.00     0.002 C 
HETATM   32  C   UNL     1     -40.852  51.822 -54.165  1.00  0.00     0.025 C 
ENDBRANCH  23  26
ENDBRANCH   4  22
BRANCH   6  33
HETATM   33  C   UNL     1     -45.029  58.383 -52.006  1.00  0.00     0.089 A 
HETATM   34  C   UNL     1     -44.408  59.568 -51.312  1.00  0.00     0.028 A 
HETATM   35  C   UNL     1     -45.550  59.774 -52.259  1.00  0.00     0.028 A 
ENDBRANCH   6  33
TORSDOF 7
ENDMDL
MODEL 5
REMARK VINA RESULT:      -8.0      3.803      6.323
REMARK  7 active torsions:
REMARK  status: ('A' for Active; 'I' for Inactive)
REMARK    1  A    between atoms: C_2  and  N_3 
REMARK    2  A    between atoms: C_2  and  C_26 
REMARK       I    between atoms: N_3  and  C_4 
REMARK    3  A    between atoms: C_4  and  C_5 
REMARK    4  A    between atoms: C_8  and  C_9 
REMARK       I    between atoms: C_9  and  N_10 
REMARK    5  A    between atoms: N_10  and  C_11 
REMARK    6  A    between atoms: N_20  and  C_21 
REMARK    7  A    between atoms: C_29  and  O_30 
ROOT
HETATM    1  C   UNL     1     -43.119  57.134 -57.004  1.00  0.00     0.098 A 
HETATM    2  C   UNL     1     -42.745  58.508 -57.462  1.00  0.00     0.206 A 
HETATM    3  O   UNL     1     -42.314  59.344 -56.666  1.00  0.00    -0.286 OA
HETATM    4  C   UNL     1     -42.928  58.849 -58.906  1.00  0.00     0.098 A 
HETATM    5  C   UNL     1     -43.313  57.853 -59.722  1.00  0.00     0.112 A 
HETATM    6  N   UNL     1     -43.530  56.557 -59.300  1.00  0.00    -0.360 N 
HETATM    7  C   UNL     1     -43.488  56.257 -57.954  1.00  0.00     0.112 A 
ENDROOT
BRANCH   1   8
HETATM    8  C   UNL     1     -43.139  56.690 -55.582  1.00  0.00     0.257 C 
HETATM    9  N   UNL     1     -41.918  56.368 -55.053  1.00  0.00    -0.348 N 
HETATM   10  H   UNL     1     -41.094  56.464 -55.642  1.00  0.00     0.163 HD
HETATM   11  O   UNL     1     -44.184  56.640 -54.938  1.00  0.00    -0.267 OA
BRANCH   9  12
HETATM   12  C   UNL     1     -41.725  56.060 -53.646  1.00  0.00     0.114 C 
HETATM   13  C   UNL     1     -40.846  57.114 -52.971  1.00  0.00     0.037 C 
BRANCH  12  14
HETATM   14  C   UNL     1     -41.138  54.670 -53.478  1.00  0.00    -0.036 A 
HETATM   15  C   UNL     1     -40.896  53.873 -54.605  1.00  0.00     0.012 A 
HETATM   16  C   UNL     1     -40.362  52.589 -54.467  1.00  0.00     0.037 A 
HETATM   17  C   UNL     1     -40.050  52.077 -53.207  1.00  0.00     0.068 A 
HETATM   18  C   UNL     1     -40.292  52.858 -52.078  1.00  0.00     0.037 A 
HETATM   19  C   UNL     1     -40.834  54.142 -52.212  1.00  0.00     0.012 A 
BRANCH  17  20
HETATM   20  O   UNL     1     -39.528  50.812 -53.215  1.00  0.00    -0.356 OA
HETATM   21  C   UNL     1     -39.624  50.087 -54.434  1.00  0.00     0.210 C 
ENDBRANCH  17  20
ENDBRANCH  12  14
ENDBRANCH   9  12
ENDBRANCH   1   8
BRANCH   4  22
HETATM   22  C   UNL     1     -42.733  60.208 -59.486  1.00  0.00     0.257 C 
HETATM   23  N   UNL     1     -41.449  60.689 -59.416  1.00  0.00    -0.352 N 
HETATM   24  H   UNL     1     -40.772  60.135 -58.892  1.00  0.00     0.163 HD
HETATM   25  O   UNL     1     -43.670  60.829 -59.978  1.00  0.00    -0.267 OA
BRANCH  23  26
HETATM   26  C   UNL     1     -41.034  62.040 -59.794  1.00  0.00     0.084 C 
HETATM   27  C   UNL     1     -39.920  62.576 -58.887  1.00  0.00     0.025 C 
HETATM   28  C   UNL     1     -39.500  64.020 -59.168  1.00  0.00     0.002 C 
HETATM   29  C   UNL     1     -38.703  64.162 -60.461  1.00  0.00     0.000 C 
HETATM   30  C   UNL     1     -39.541  64.360 -61.720  1.00  0.00     0.000 C 
HETATM   31  C   UNL     1     -40.819  63.538 -61.845  1.00  0.00     0.002 C 
HETATM   32  C   UNL     1     -40.738  62.114 -61.300  1.00  0.00     0.025 C 
ENDBRANCH  23  26
ENDBRANCH   4  22
BRANCH   6  33
HETATM   33  C   UNL     1     -44.035  55.560 -60.252  1.00  0.00     0.089 A 
HETATM   34  C   UNL     1     -44.723  54.303 -59.784  1.00  0.00     0.028 A 
HETATM   35  C   UNL     1     -45.510  55.364 -60.490  1.00  0.00     0.028 A 
ENDBRANCH   6  33
TORSDOF 7
ENDMDL
MODEL 6
REMARK VINA RESULT:      -7.8      1.956      2.295
REMARK  7 active torsions:
REMARK  status: ('A' for Active; 'I' for Inactive)
REMARK    1  A    between atoms: C_2  and  N_3 
REMARK    2  A    between atoms: C_2  and  C_26 
REMARK       I    between atoms: N_3  and  C_4 
REMARK    3  A    between atoms: C_4  and  C_5 
REMARK    4  A    between atoms: C_8  and  C_9 
REMARK       I    between atoms: C_9  and  N_10 
REMARK    5  A    between atoms: N_10  and  C_11 
REMARK    6  A    between atoms: N_20  and  C_21 
REMARK    7  A    between atoms: C_29  and  O_30 
ROOT
HETATM    1  C   UNL     1     -41.919  57.927 -51.736  1.00  0.00     0.098 A 
HETATM    2  C   UNL     1     -41.961  57.926 -53.231  1.00  0.00     0.206 A 
HETATM    3  O   UNL     1     -41.746  56.893 -53.869  1.00  0.00    -0.286 OA
HETATM    4  C   UNL     1     -42.248  59.213 -53.935  1.00  0.00     0.098 A 
HETATM    5  C   UNL     1     -42.564  60.269 -53.165  1.00  0.00     0.112 A 
HETATM    6  N   UNL     1     -42.645  60.217 -51.789  1.00  0.00    -0.360 N 
HETATM    7  C   UNL     1     -42.261  59.072 -51.121  1.00  0.00     0.112 A 
ENDROOT
BRANCH   1   8
HETATM    8  C   UNL     1     -41.500  56.768 -50.899  1.00  0.00     0.257 C 
HETATM    9  N   UNL     1     -42.351  55.695 -50.916  1.00  0.00    -0.348 N 
HETATM   10  H   UNL     1     -43.185  55.748 -51.497  1.00  0.00     0.163 HD
HETATM   11  O   UNL     1     -40.452  56.783 -50.257  1.00  0.00    -0.267 OA
BRANCH   9  12
HETATM   12  C   UNL     1     -42.033  54.427 -50.282  1.00  0.00     0.114 C 
HETATM   13  C   UNL     1     -41.238  54.645 -48.993  1.00  0.00     0.037 C 
BRANCH  12  14
HETATM   14  C   UNL     1     -41.280  53.524 -51.242  1.00  0.00    -0.036 A 
HETATM   15  C   UNL     1     -40.397  52.557 -50.743  1.00  0.00     0.012 A 
HETATM   16  C   UNL     1     -39.690  51.721 -51.613  1.00  0.00     0.037 A 
HETATM   17  C   UNL     1     -39.856  51.826 -52.994  1.00  0.00     0.068 A 
HETATM   18  C   UNL     1     -40.727  52.788 -53.503  1.00  0.00     0.037 A 
HETATM   19  C   UNL     1     -41.430  53.631 -52.634  1.00  0.00     0.012 A 
BRANCH  17  20
HETATM   20  O   UNL     1     -39.111  50.945 -53.729  1.00  0.00    -0.356 OA
HETATM   21  C   UNL     1     -39.821  49.931 -54.428  1.00  0.00     0.210 C 
ENDBRANCH  17  20
ENDBRANCH  12  14
ENDBRANCH   9  12
ENDBRANCH   1   8
BRANCH   4  22
HETATM   22  C   UNL     1     -42.188  59.403 -55.411  1.00  0.00     0.257 C 
HETATM   23  N   UNL     1     -42.763  58.397 -56.149  1.00  0.00    -0.352 N 
HETATM   24  H   UNL     1     -43.083  57.572 -55.642  1.00  0.00     0.163 HD
HETATM   25  O   UNL     1     -41.653  60.392 -55.903  1.00  0.00    -0.267 OA
BRANCH  23  26
HETATM   26  C   UNL     1     -42.715  58.289 -57.607  1.00  0.00     0.084 C 
HETATM   27  C   UNL     1     -42.890  56.843 -58.084  1.00  0.00     0.025 C 
HETATM   28  C   UNL     1     -42.761  56.643 -59.595  1.00  0.00     0.002 C 
HETATM   29  C   UNL     1     -43.957  57.187 -60.369  1.00  0.00     0.000 C 
HETATM   30  C   UNL     1     -43.867  58.662 -60.747  1.00  0.00     0.000 C 
HETATM   31  C   UNL     1     -43.292  59.616 -59.705  1.00  0.00     0.002 C 
HETATM   32  C   UNL     1     -43.664  59.308 -58.257  1.00  0.00     0.025 C 
ENDBRANCH  23  26
ENDBRANCH   4  22
BRANCH   6  33
HETATM   33  C   UNL     1     -42.911  61.446 -51.031  1.00  0.00     0.089 A 
HETATM   34  C   UNL     1     -44.298  62.029 -50.939  1.00  0.00     0.028 A 
HETATM   35  C   UNL     1     -43.661  61.427 -49.724  1.00  0.00     0.028 A 
ENDBRANCH   6  33
TORSDOF 7
ENDMDL
MODEL 7
REMARK VINA RESULT:      -7.7      1.956      2.416
REMARK  7 active torsions:
REMARK  status: ('A' for Active; 'I' for Inactive)
REMARK    1  A    between atoms: C_2  and  N_3 
REMARK    2  A    between atoms: C_2  and  C_26 
REMARK       I    between atoms: N_3  and  C_4 
REMARK    3  A    between atoms: C_4  and  C_5 
REMARK    4  A    between atoms: C_8  and  C_9 
REMARK       I    between atoms: C_9  and  N_10 
REMARK    5  A    between atoms: N_10  and  C_11 
REMARK    6  A    between atoms: N_20  and  C_21 
REMARK    7  A    between atoms: C_29  and  O_30 
ROOT
HETATM    1  C   UNL     1     -43.699  57.451 -52.193  1.00  0.00     0.098 A 
HETATM    2  C   UNL     1     -43.598  57.535 -53.683  1.00  0.00     0.206 A 
HETATM    3  O   UNL     1     -43.284  56.548 -54.352  1.00  0.00    -0.286 OA
HETATM    4  C   UNL     1     -43.863  58.851 -54.340  1.00  0.00     0.098 A 
HETATM    5  C   UNL     1     -44.290  59.850 -53.549  1.00  0.00     0.112 A 
HETATM    6  N   UNL     1     -44.501  59.717 -52.192  1.00  0.00    -0.360 N 
HETATM    7  C   UNL     1     -44.140  58.548 -51.553  1.00  0.00     0.112 A 
ENDROOT
BRANCH   1   8
HETATM    8  C   UNL     1     -43.318  56.261 -51.383  1.00  0.00     0.257 C 
HETATM    9  N   UNL     1     -42.034  55.818 -51.560  1.00  0.00    -0.348 N 
HETATM   10  H   UNL     1     -41.432  56.326 -52.204  1.00  0.00     0.163 HD
HETATM   11  O   UNL     1     -44.107  55.734 -50.602  1.00  0.00    -0.267 OA
BRANCH   9  12
HETATM   12  C   UNL     1     -41.444  54.768 -50.749  1.00  0.00     0.114 C 
HETATM   13  C   UNL     1     -40.400  55.340 -49.788  1.00  0.00     0.037 C 
BRANCH  12  14
HETATM   14  C   UNL     1     -40.841  53.687 -51.629  1.00  0.00    -0.036 A 
HETATM   15  C   UNL     1     -40.132  52.629 -51.048  1.00  0.00     0.012 A 
HETATM   16  C   UNL     1     -39.565  51.629 -51.844  1.00  0.00     0.037 A 
HETATM   17  C   UNL     1     -39.700  51.661 -53.232  1.00  0.00     0.068 A 
HETATM   18  C   UNL     1     -40.399  52.713 -53.823  1.00  0.00     0.037 A 
HETATM   19  C   UNL     1     -40.961  53.719 -53.028  1.00  0.00     0.012 A 
BRANCH  17  20
HETATM   20  O   UNL     1     -39.104  50.620 -53.890  1.00  0.00    -0.356 OA
HETATM   21  C   UNL     1     -39.953  49.769 -54.649  1.00  0.00     0.210 C 
ENDBRANCH  17  20
ENDBRANCH  12  14
ENDBRANCH   9  12
ENDBRANCH   1   8
BRANCH   4  22
HETATM   22  C   UNL     1     -43.669  59.127 -55.792  1.00  0.00     0.257 C 
HETATM   23  N   UNL     1     -42.386  58.954 -56.249  1.00  0.00    -0.352 N 
HETATM   24  H   UNL     1     -41.667  58.756 -55.554  1.00  0.00     0.163 HD
HETATM   25  O   UNL     1     -44.605  59.487 -56.500  1.00  0.00    -0.267 OA
BRANCH  23  26
HETATM   26  C   UNL     1     -41.920  59.286 -57.595  1.00  0.00     0.084 C 
HETATM   27  C   UNL     1     -42.477  58.325 -58.652  1.00  0.00     0.025 C 
HETATM   28  C   UNL     1     -41.959  58.559 -60.072  1.00  0.00     0.002 C 
HETATM   29  C   UNL     1     -42.537  59.816 -60.713  1.00  0.00     0.000 C 
HETATM   30  C   UNL     1     -41.770  61.102 -60.424  1.00  0.00     0.000 C 
HETATM   31  C   UNL     1     -41.238  61.295 -59.008  1.00  0.00     0.002 C 
HETATM   32  C   UNL     1     -42.142  60.778 -57.892  1.00  0.00     0.025 C 
ENDBRANCH  23  26
ENDBRANCH   4  22
BRANCH   6  33
HETATM   33  C   UNL     1     -44.883  60.891 -51.398  1.00  0.00     0.089 A 
HETATM   34  C   UNL     1     -46.330  61.234 -51.147  1.00  0.00     0.028 A 
HETATM   35  C   UNL     1     -45.469  60.760 -50.016  1.00  0.00     0.028 A 
ENDBRANCH   6  33
TORSDOF 7
ENDMDL
MODEL 8
REMARK VINA RESULT:      -7.6      2.415      8.547
REMARK  7 active torsions:
REMARK  status: ('A' for Active; 'I' for Inactive)
REMARK    1  A    between atoms: C_2  and  N_3 
REMARK    2  A    between atoms: C_2  and  C_26 
REMARK       I    between atoms: N_3  and  C_4 
REMARK    3  A    between atoms: C_4  and  C_5 
REMARK    4  A    between atoms: C_8  and  C_9 
REMARK       I    between atoms: C_9  and  N_10 
REMARK    5  A    between atoms: N_10  and  C_11 
REMARK    6  A    between atoms: N_20  and  C_21 
REMARK    7  A    between atoms: C_29  and  O_30 
ROOT
HETATM    1  C   UNL     1     -43.055  55.980 -54.375  1.00  0.00     0.098 A 
HETATM    2  C   UNL     1     -43.978  56.923 -53.669  1.00  0.00     0.206 A 
HETATM    3  O   UNL     1     -44.857  57.527 -54.287  1.00  0.00    -0.286 OA
HETATM    4  C   UNL     1     -43.791  57.134 -52.201  1.00  0.00     0.098 A 
HETATM    5  C   UNL     1     -42.873  56.368 -51.588  1.00  0.00     0.112 A 
HETATM    6  N   UNL     1     -42.119  55.410 -52.236  1.00  0.00    -0.360 N 
HETATM    7  C   UNL     1     -42.190  55.293 -53.608  1.00  0.00     0.112 A 
ENDROOT
BRANCH   1   8
HETATM    8  C   UNL     1     -43.013  55.779 -55.850  1.00  0.00     0.257 C 
HETATM    9  N   UNL     1     -43.054  56.927 -56.597  1.00  0.00    -0.348 N 
HETATM   10  H   UNL     1     -43.093  57.820 -56.112  1.00  0.00     0.163 HD
HETATM   11  O   UNL     1     -42.929  54.659 -56.345  1.00  0.00    -0.267 OA
BRANCH   9  12
HETATM   12  C   UNL     1     -42.873  56.934 -58.039  1.00  0.00     0.114 C 
HETATM   13  C   UNL     1     -42.183  58.221 -58.496  1.00  0.00     0.037 C 
BRANCH  12  14
HETATM   14  C   UNL     1     -44.203  56.747 -58.746  1.00  0.00    -0.036 A 
HETATM   15  C   UNL     1     -44.392  55.653 -59.600  1.00  0.00     0.012 A 
HETATM   16  C   UNL     1     -45.608  55.470 -60.264  1.00  0.00     0.037 A 
HETATM   17  C   UNL     1     -46.661  56.368 -60.085  1.00  0.00     0.068 A 
HETATM   18  C   UNL     1     -46.483  57.463 -59.242  1.00  0.00     0.037 A 
HETATM   19  C   UNL     1     -45.264  57.654 -58.581  1.00  0.00     0.012 A 
BRANCH  17  20
HETATM   20  O   UNL     1     -47.796  56.067 -60.787  1.00  0.00    -0.356 OA
HETATM   21  C   UNL     1     -48.077  56.871 -61.926  1.00  0.00     0.210 C 
ENDBRANCH  17  20
ENDBRANCH  12  14
ENDBRANCH   9  12
ENDBRANCH   1   8
BRANCH   4  22
HETATM   22  C   UNL     1     -44.535  58.138 -51.389  1.00  0.00     0.257 C 
HETATM   23  N   UNL     1     -44.161  59.443 -51.595  1.00  0.00    -0.352 N 
HETATM   24  H   UNL     1     -43.354  59.607 -52.196  1.00  0.00     0.163 HD
HETATM   25  O   UNL     1     -45.408  57.794 -50.598  1.00  0.00    -0.267 OA
BRANCH  23  26
HETATM   26  C   UNL     1     -44.647  60.589 -50.828  1.00  0.00     0.084 C 
HETATM   27  C   UNL     1     -43.506  61.513 -50.387  1.00  0.00     0.025 C 
HETATM   28  C   UNL     1     -43.932  62.686 -49.502  1.00  0.00     0.002 C 
HETATM   29  C   UNL     1     -44.688  63.763 -50.272  1.00  0.00     0.000 C 
HETATM   30  C   UNL     1     -46.194  63.545 -50.382  1.00  0.00     0.000 C 
HETATM   31  C   UNL     1     -46.676  62.120 -50.636  1.00  0.00     0.002 C 
HETATM   32  C   UNL     1     -45.799  61.288 -51.568  1.00  0.00     0.025 C 
ENDBRANCH  23  26
ENDBRANCH   4  22
BRANCH   6  33
HETATM   33  C   UNL     1     -41.078  54.685 -51.496  1.00  0.00     0.089 A 
HETATM   34  C   UNL     1     -41.350  53.342 -50.868  1.00  0.00     0.028 A 
HETATM   35  C   UNL     1     -40.433  53.440 -52.048  1.00  0.00     0.028 A 
ENDBRANCH   6  33
TORSDOF 7
ENDMDL
MODEL 9
REMARK VINA RESULT:      -7.5      2.279      8.820
REMARK  7 active torsions:
REMARK  status: ('A' for Active; 'I' for Inactive)
REMARK    1  A    between atoms: C_2  and  N_3 
REMARK    2  A    between atoms: C_2  and  C_26 
REMARK       I    between atoms: N_3  and  C_4 
REMARK    3  A    between atoms: C_4  and  C_5 
REMARK    4  A    between atoms: C_8  and  C_9 
REMARK       I    between atoms: C_9  and  N_10 
REMARK    5  A    between atoms: N_10  and  C_11 
REMARK    6  A    between atoms: N_20  and  C_21 
REMARK    7  A    between atoms: C_29  and  O_30 
ROOT
HETATM    1  C   UNL     1     -43.905  57.469 -55.548  1.00  0.00     0.098 A 
HETATM    2  C   UNL     1     -43.480  56.443 -54.546  1.00  0.00     0.206 A 
HETATM    3  O   UNL     1     -43.680  56.613 -53.342  1.00  0.00    -0.286 OA
HETATM    4  C   UNL     1     -42.784  55.215 -55.039  1.00  0.00     0.098 A 
HETATM    5  C   UNL     1     -42.690  55.063 -56.372  1.00  0.00     0.112 A 
HETATM    6  N   UNL     1     -43.204  55.962 -57.283  1.00  0.00    -0.360 N 
HETATM    7  C   UNL     1     -43.735  57.157 -56.844  1.00  0.00     0.112 A 
ENDROOT
BRANCH   1   8
HETATM    8  C   UNL     1     -44.468  58.805 -55.206  1.00  0.00     0.257 C 
HETATM    9  N   UNL     1     -43.934  59.397 -54.092  1.00  0.00    -0.348 N 
HETATM   10  H   UNL     1     -43.196  58.909 -53.591  1.00  0.00     0.163 HD
HETATM   11  O   UNL     1     -45.337  59.333 -55.894  1.00  0.00    -0.267 OA
BRANCH   9  12
HETATM   12  C   UNL     1     -44.252  60.758 -53.694  1.00  0.00     0.114 C 
HETATM   13  C   UNL     1     -43.177  61.734 -54.176  1.00  0.00     0.037 C 
BRANCH  12  14
HETATM   14  C   UNL     1     -44.435  60.846 -52.190  1.00  0.00    -0.036 A 
HETATM   15  C   UNL     1     -43.339  61.142 -51.369  1.00  0.00     0.012 A 
HETATM   16  C   UNL     1     -43.488  61.221 -49.982  1.00  0.00     0.037 A 
HETATM   17  C   UNL     1     -44.732  61.014 -49.385  1.00  0.00     0.068 A 
HETATM   18  C   UNL     1     -45.829  60.713 -50.191  1.00  0.00     0.037 A 
HETATM   19  C   UNL     1     -45.681  60.626 -51.580  1.00  0.00     0.012 A 
BRANCH  17  20
HETATM   20  O   UNL     1     -44.740  61.127 -48.022  1.00  0.00    -0.356 OA
HETATM   21  C   UNL     1     -46.000  61.359 -47.404  1.00  0.00     0.210 C 
ENDBRANCH  17  20
ENDBRANCH  12  14
ENDBRANCH   9  12
ENDBRANCH   1   8
BRANCH   4  22
HETATM   22  C   UNL     1     -42.180  54.174 -54.161  1.00  0.00     0.257 C 
HETATM   23  N   UNL     1     -40.885  53.836 -54.468  1.00  0.00    -0.352 N 
HETATM   24  H   UNL     1     -40.486  54.239 -55.315  1.00  0.00     0.163 HD
HETATM   25  O   UNL     1     -42.819  53.669 -53.243  1.00  0.00    -0.267 OA
BRANCH  23  26
HETATM   26  C   UNL     1     -40.126  52.754 -53.841  1.00  0.00     0.084 C 
HETATM   27  C   UNL     1     -40.060  52.905 -52.316  1.00  0.00     0.025 C 
HETATM   28  C   UNL     1     -39.205  51.857 -51.602  1.00  0.00     0.002 C 
HETATM   29  C   UNL     1     -39.859  50.479 -51.574  1.00  0.00     0.000 C 
HETATM   30  C   UNL     1     -39.577  49.604 -52.791  1.00  0.00     0.000 C 
HETATM   31  C   UNL     1     -39.578  50.285 -54.156  1.00  0.00     0.002 C 
HETATM   32  C   UNL     1     -40.620  51.386 -54.338  1.00  0.00     0.025 C 
ENDBRANCH  23  26
ENDBRANCH   4  22
BRANCH   6  33
HETATM   33  C   UNL     1     -42.973  55.752 -58.718  1.00  0.00     0.089 A 
HETATM   34  C   UNL     1     -43.986  55.047 -59.583  1.00  0.00     0.028 A 
HETATM   35  C   UNL     1     -43.742  56.514 -59.767  1.00  0.00     0.028 A 
ENDBRANCH   6  33
TORSDOF 7
ENDMDL
MODEL 10
REMARK VINA RESULT:      -7.4      2.255      8.160
REMARK  7 active torsions:
REMARK  status: ('A' for Active; 'I' for Inactive)
REMARK    1  A    between atoms: C_2  and  N_3 
REMARK    2  A    between atoms: C_2  and  C_26 
REMARK       I    between atoms: N_3  and  C_4 
REMARK    3  A    between atoms: C_4  and  C_5 
REMARK    4  A    between atoms: C_8  and  C_9 
REMARK       I    between atoms: C_9  and  N_10 
REMARK    5  A    between atoms: N_10  and  C_11 
REMARK    6  A    between atoms: N_20  and  C_21 
REMARK    7  A    between atoms: C_29  and  O_30 
ROOT
HETATM    1  C   UNL     1     -44.930  58.916 -53.673  1.00  0.00     0.098 A 
HETATM    2  C   UNL     1     -44.213  57.612 -53.520  1.00  0.00     0.206 A 
HETATM    3  O   UNL     1     -43.816  56.988 -54.507  1.00  0.00    -0.286 OA
HETATM    4  C   UNL     1     -44.011  57.070 -52.141  1.00  0.00     0.098 A 
HETATM    5  C   UNL     1     -44.389  57.855 -51.118  1.00  0.00     0.112 A 
HETATM    6  N   UNL     1     -44.932  59.113 -51.278  1.00  0.00    -0.360 N 
HETATM    7  C   UNL     1     -45.240  59.572 -52.542  1.00  0.00     0.112 A 
ENDROOT
BRANCH   1   8
HETATM    8  C   UNL     1     -45.342  59.509 -54.975  1.00  0.00     0.257 C 
HETATM    9  N   UNL     1     -45.620  58.606 -55.967  1.00  0.00    -0.348 N 
HETATM   10  H   UNL     1     -45.546  57.614 -55.754  1.00  0.00     0.163 HD
HETATM   11  O   UNL     1     -45.437  60.724 -55.128  1.00  0.00    -0.267 OA
BRANCH   9  12
HETATM   12  C   UNL     1     -46.177  58.994 -57.252  1.00  0.00     0.114 C 
HETATM   13  C   UNL     1     -47.256  58.006 -57.700  1.00  0.00     0.037 C 
BRANCH  12  14
HETATM   14  C   UNL     1     -45.082  59.117 -58.295  1.00  0.00    -0.036 A 
HETATM   15  C   UNL     1     -43.738  59.050 -57.908  1.00  0.00     0.012 A 
HETATM   16  C   UNL     1     -42.716  59.168 -58.855  1.00  0.00     0.037 A 
HETATM   17  C   UNL     1     -43.015  59.347 -60.207  1.00  0.00     0.068 A 
HETATM   18  C   UNL     1     -44.349  59.422 -60.603  1.00  0.00     0.037 A 
HETATM   19  C   UNL     1     -45.373  59.312 -59.656  1.00  0.00     0.012 A 
BRANCH  17  20
HETATM   20  O   UNL     1     -41.923  59.441 -61.026  1.00  0.00    -0.356 OA
HETATM   21  C   UNL     1     -41.792  60.636 -61.786  1.00  0.00     0.210 C 
ENDBRANCH  17  20
ENDBRANCH  12  14
ENDBRANCH   9  12
ENDBRANCH   1   8
BRANCH   4  22
HETATM   22  C   UNL     1     -43.442  55.727 -51.834  1.00  0.00     0.257 C 
HETATM   23  N   UNL     1     -42.486  55.287 -52.716  1.00  0.00    -0.352 N 
HETATM   24  H   UNL     1     -42.322  55.854 -53.547  1.00  0.00     0.163 HD
HETATM   25  O   UNL     1     -43.824  55.083 -50.862  1.00  0.00    -0.267 OA
BRANCH  23  26
HETATM   26  C   UNL     1     -41.879  53.956 -52.704  1.00  0.00     0.084 C 
HETATM   27  C   UNL     1     -41.616  53.430 -54.121  1.00  0.00     0.025 C 
HETATM   28  C   UNL     1     -41.064  52.005 -54.186  1.00  0.00     0.002 C 
HETATM   29  C   UNL     1     -39.611  51.912 -53.734  1.00  0.00     0.000 C 
HETATM   30  C   UNL     1     -39.410  51.718 -52.235  1.00  0.00     0.000 C 
HETATM   31  C   UNL     1     -40.320  52.509 -51.301  1.00  0.00     0.002 C 
HETATM   32  C   UNL     1     -40.665  53.922 -51.763  1.00  0.00     0.025 C 
ENDBRANCH  23  26
ENDBRANCH   4  22
BRANCH   6  33
HETATM   33  C   UNL     1     -45.396  59.858 -50.100  1.00  0.00     0.089 A 
HETATM   34  C   UNL     1     -44.609  61.017 -49.543  1.00  0.00     0.028 A 
HETATM   35  C   UNL     1     -45.929  61.263 -50.208  1.00  0.00     0.028 A 
ENDBRANCH   6  33
TORSDOF 7
ENDMDL
