MODEL 1
REMARK VINA RESULT:      -8.1      0.000      0.000
REMARK  6 active torsions:
REMARK  status: ('A' for Active; 'I' for Inactive)
REMARK    1  A    between atoms: C_3  and  O_4 
REMARK    2  A    between atoms: C_6  and  C_7 
REMARK    3  A    between atoms: C_7  and  C_8 
REMARK    4  A    between atoms: C_8  and  N_9 
REMARK       I    between atoms: N_9  and  C_10 
REMARK    5  A    between atoms: C_10  and  C_11 
REMARK    6  A    between atoms: C_13  and  C_14 
ROOT
HETATM    1  N   UNL     1     -42.997  56.512 -52.905  1.00  0.00    -0.357 N 
HETATM    2  C   UNL     1     -42.058  55.705 -52.291  1.00  0.00     0.251 C 
HETATM    3  O   UNL     1     -41.798  55.765 -51.095  1.00  0.00    -0.268 OA
HETATM    4  H   UNL     1     -42.945  56.619 -53.909  1.00  0.00     0.162 HD
ENDROOT
BRANCH   2   5
HETATM    5  C   UNL     1     -41.319  54.747 -53.163  1.00  0.00     0.032 A 
HETATM    6  C   UNL     1     -40.968  53.500 -52.622  1.00  0.00     0.029 A 
HETATM    7  C   UNL     1     -40.291  52.546 -53.394  1.00  0.00    -0.023 A 
HETATM    8  C   UNL     1     -39.976  52.858 -54.723  1.00  0.00     0.012 A 
HETATM    9  C   UNL     1     -40.334  54.093 -55.272  1.00  0.00     0.002 A 
HETATM   10  C   UNL     1     -41.009  55.035 -54.496  1.00  0.00     0.017 A 
BRANCH   7  11
HETATM   11  C   UNL     1     -39.934  51.247 -52.843  1.00  0.00    -0.002 A 
HETATM   12  C   UNL     1     -39.789  50.092 -53.587  1.00  0.00     0.153 A 
HETATM   13  O   UNL     1     -39.454  49.041 -52.792  1.00  0.00    -0.334 OA
HETATM   14  C   UNL     1     -39.380  49.517 -51.524  1.00  0.00     0.142 A 
HETATM   15  C   UNL     1     -39.671  50.861 -51.498  1.00  0.00     0.038 A 
ENDBRANCH   7  11
ENDBRANCH   2   5
BRANCH   1  16
HETATM   16  C   UNL     1     -43.655  57.563 -52.149  1.00  0.00     0.127 C 
BRANCH  16  17
HETATM   17  C   UNL     1     -43.070  58.941 -52.454  1.00  0.00     0.058 C 
BRANCH  17  18
HETATM   18  C   UNL     1     -41.714  59.120 -51.820  1.00  0.00    -0.054 A 
HETATM   19  C   UNL     1     -40.555  59.080 -52.608  1.00  0.00     0.043 A 
HETATM   20  C   UNL     1     -39.308  59.285 -52.025  1.00  0.00     0.066 A 
HETATM   21  C   UNL     1     -39.189  59.535 -50.661  1.00  0.00     0.036 A 
HETATM   22  C   UNL     1     -40.339  59.579 -49.872  1.00  0.00     0.003 A 
HETATM   23  C   UNL     1     -41.595  59.375 -50.448  1.00  0.00     0.007 A 
BRANCH  20  24
HETATM   24  O   UNL     1     -38.214  59.239 -52.836  1.00  0.00    -0.361 OA
HETATM   25  H   UNL     1     -38.373  59.814 -53.603  1.00  0.00     0.217 HD
ENDBRANCH  20  24
ENDBRANCH  17  18
ENDBRANCH  16  17
ENDBRANCH   1  16
TORSDOF 6
ENDMDL
MODEL 2
REMARK VINA RESULT:      -8.1      4.720      6.848
REMARK  6 active torsions:
REMARK  status: ('A' for Active; 'I' for Inactive)
REMARK    1  A    between atoms: C_3  and  O_4 
REMARK    2  A    between atoms: C_6  and  C_7 
REMARK    3  A    between atoms: C_7  and  C_8 
REMARK    4  A    between atoms: C_8  and  N_9 
REMARK       I    between atoms: N_9  and  C_10 
REMARK    5  A    between atoms: C_10  and  C_11 
REMARK    6  A    between atoms: C_13  and  C_14 
ROOT
HETATM    1  N   UNL     1     -41.948  55.566 -55.710  1.00  0.00    -0.357 N 
HETATM    2  C   UNL     1     -42.376  54.346 -55.221  1.00  0.00     0.251 C 
HETATM    3  O   UNL     1     -43.434  53.824 -55.551  1.00  0.00    -0.268 OA
HETATM    4  H   UNL     1     -41.242  56.064 -55.186  1.00  0.00     0.162 HD
ENDROOT
BRANCH   2   5
HETATM    5  C   UNL     1     -41.499  53.676 -54.220  1.00  0.00     0.032 A 
HETATM    6  C   UNL     1     -41.523  54.154 -52.900  1.00  0.00     0.029 A 
HETATM    7  C   UNL     1     -40.738  53.555 -51.904  1.00  0.00    -0.023 A 
HETATM    8  C   UNL     1     -39.931  52.463 -52.251  1.00  0.00     0.012 A 
HETATM    9  C   UNL     1     -39.911  51.976 -53.561  1.00  0.00     0.002 A 
HETATM   10  C   UNL     1     -40.698  52.577 -54.544  1.00  0.00     0.017 A 
BRANCH   7  11
HETATM   11  C   UNL     1     -40.766  54.036 -50.531  1.00  0.00    -0.002 A 
HETATM   12  C   UNL     1     -41.186  55.295 -50.148  1.00  0.00     0.153 A 
HETATM   13  O   UNL     1     -41.095  55.449 -48.801  1.00  0.00    -0.334 OA
HETATM   14  C   UNL     1     -40.614  54.281 -48.305  1.00  0.00     0.142 A 
HETATM   15  C   UNL     1     -40.390  53.384 -49.323  1.00  0.00     0.038 A 
ENDBRANCH   7  11
ENDBRANCH   2   5
BRANCH   1  16
HETATM   16  C   UNL     1     -42.814  56.343 -56.581  1.00  0.00     0.127 C 
BRANCH  16  17
HETATM   17  C   UNL     1     -42.449  56.168 -58.055  1.00  0.00     0.058 C 
BRANCH  17  18
HETATM   18  C   UNL     1     -43.673  56.189 -58.934  1.00  0.00    -0.054 A 
HETATM   19  C   UNL     1     -43.757  55.343 -60.049  1.00  0.00     0.043 A 
HETATM   20  C   UNL     1     -44.906  55.338 -60.836  1.00  0.00     0.066 A 
HETATM   21  C   UNL     1     -45.984  56.163 -60.532  1.00  0.00     0.036 A 
HETATM   22  C   UNL     1     -45.908  57.006 -59.423  1.00  0.00     0.003 A 
HETATM   23  C   UNL     1     -44.761  57.018 -58.627  1.00  0.00     0.007 A 
BRANCH  20  24
HETATM   24  O   UNL     1     -44.936  54.494 -61.906  1.00  0.00    -0.361 OA
HETATM   25  H   UNL     1     -45.138  53.599 -61.587  1.00  0.00     0.217 HD
ENDBRANCH  20  24
ENDBRANCH  17  18
ENDBRANCH  16  17
ENDBRANCH   1  16
TORSDOF 6
ENDMDL
MODEL 3
REMARK VINA RESULT:      -8.0      1.749      2.580
REMARK  6 active torsions:
REMARK  status: ('A' for Active; 'I' for Inactive)
REMARK    1  A    between atoms: C_3  and  O_4 
REMARK    2  A    between atoms: C_6  and  C_7 
REMARK    3  A    between atoms: C_7  and  C_8 
REMARK    4  A    between atoms: C_8  and  N_9 
REMARK       I    between atoms: N_9  and  C_10 
REMARK    5  A    between atoms: C_10  and  C_11 
REMARK    6  A    between atoms: C_13  and  C_14 
ROOT
HETATM    1  N   UNL     1     -41.592  56.561 -53.832  1.00  0.00    -0.357 N 
HETATM    2  C   UNL     1     -42.173  55.913 -52.758  1.00  0.00     0.251 C 
HETATM    3  O   UNL     1     -43.289  56.187 -52.331  1.00  0.00    -0.268 OA
HETATM    4  H   UNL     1     -40.589  56.500 -53.935  1.00  0.00     0.162 HD
ENDROOT
BRANCH   2   5
HETATM    5  C   UNL     1     -41.361  54.858 -52.088  1.00  0.00     0.032 A 
HETATM    6  C   UNL     1     -41.096  53.679 -52.802  1.00  0.00     0.029 A 
HETATM    7  C   UNL     1     -40.321  52.656 -52.239  1.00  0.00    -0.023 A 
HETATM    8  C   UNL     1     -39.808  52.835 -50.947  1.00  0.00     0.012 A 
HETATM    9  C   UNL     1     -40.058  54.011 -50.235  1.00  0.00     0.002 A 
HETATM   10  C   UNL     1     -40.829  55.025 -50.805  1.00  0.00     0.017 A 
BRANCH   7  11
HETATM   11  C   UNL     1     -40.032  51.435 -52.978  1.00  0.00    -0.002 A 
HETATM   12  C   UNL     1     -39.598  50.255 -52.406  1.00  0.00     0.153 A 
HETATM   13  O   UNL     1     -39.412  49.297 -53.352  1.00  0.00    -0.334 OA
HETATM   14  C   UNL     1     -39.728  49.858 -54.546  1.00  0.00     0.142 A 
HETATM   15  C   UNL     1     -40.108  51.168 -54.374  1.00  0.00     0.038 A 
ENDBRANCH   7  11
ENDBRANCH   2   5
BRANCH   1  16
HETATM   16  C   UNL     1     -42.265  57.694 -54.446  1.00  0.00     0.127 C 
BRANCH  16  17
HETATM   17  C   UNL     1     -41.490  58.995 -54.251  1.00  0.00     0.058 C 
BRANCH  17  18
HETATM   18  C   UNL     1     -41.186  59.246 -52.796  1.00  0.00    -0.054 A 
HETATM   19  C   UNL     1     -42.190  59.708 -51.933  1.00  0.00     0.043 A 
HETATM   20  C   UNL     1     -41.915  59.901 -50.583  1.00  0.00     0.066 A 
HETATM   21  C   UNL     1     -40.651  59.638 -50.066  1.00  0.00     0.036 A 
HETATM   22  C   UNL     1     -39.647  59.175 -50.918  1.00  0.00     0.003 A 
HETATM   23  C   UNL     1     -39.913  58.978 -52.274  1.00  0.00     0.007 A 
BRANCH  20  24
HETATM   24  O   UNL     1     -42.929  60.348 -49.787  1.00  0.00    -0.361 OA
HETATM   25  H   UNL     1     -43.039  61.301 -49.935  1.00  0.00     0.217 HD
ENDBRANCH  20  24
ENDBRANCH  17  18
ENDBRANCH  16  17
ENDBRANCH   1  16
TORSDOF 6
ENDMDL
MODEL 4
REMARK VINA RESULT:      -7.9      2.378      3.532
REMARK  6 active torsions:
REMARK  status: ('A' for Active; 'I' for Inactive)
REMARK    1  A    between atoms: C_3  and  O_4 
REMARK    2  A    between atoms: C_6  and  C_7 
REMARK    3  A    between atoms: C_7  and  C_8 
REMARK    4  A    between atoms: C_8  and  N_9 
REMARK       I    between atoms: N_9  and  C_10 
REMARK    5  A    between atoms: C_10  and  C_11 
REMARK    6  A    between atoms: C_13  and  C_14 
ROOT
HETATM    1  N   UNL     1     -41.440  55.568 -55.422  1.00  0.00    -0.357 N 
HETATM    2  C   UNL     1     -41.952  54.332 -55.076  1.00  0.00     0.251 C 
HETATM    3  O   UNL     1     -43.013  53.898 -55.508  1.00  0.00    -0.268 OA
HETATM    4  H   UNL     1     -40.742  55.977 -54.818  1.00  0.00     0.162 HD
ENDROOT
BRANCH   2   5
HETATM    5  C   UNL     1     -41.164  53.526 -54.100  1.00  0.00     0.032 A 
HETATM    6  C   UNL     1     -41.231  53.884 -52.744  1.00  0.00     0.029 A 
HETATM    7  C   UNL     1     -40.531  53.156 -51.773  1.00  0.00    -0.023 A 
HETATM    8  C   UNL     1     -39.766  52.055 -52.180  1.00  0.00     0.012 A 
HETATM    9  C   UNL     1     -39.705  51.685 -53.527  1.00  0.00     0.002 A 
HETATM   10  C   UNL     1     -40.406  52.415 -54.486  1.00  0.00     0.017 A 
BRANCH   7  11
HETATM   11  C   UNL     1     -40.605  53.513 -50.364  1.00  0.00    -0.002 A 
HETATM   12  C   UNL     1     -40.629  52.606 -49.323  1.00  0.00     0.153 A 
HETATM   13  O   UNL     1     -40.703  53.243 -48.125  1.00  0.00    -0.334 OA
HETATM   14  C   UNL     1     -40.726  54.573 -48.388  1.00  0.00     0.142 A 
HETATM   15  C   UNL     1     -40.674  54.794 -49.745  1.00  0.00     0.038 A 
ENDBRANCH   7  11
ENDBRANCH   2   5
BRANCH   1  16
HETATM   16  C   UNL     1     -42.218  56.467 -56.258  1.00  0.00     0.127 C 
BRANCH  16  17
HETATM   17  C   UNL     1     -43.015  57.473 -55.429  1.00  0.00     0.058 C 
BRANCH  17  18
HETATM   18  C   UNL     1     -42.415  57.661 -54.059  1.00  0.00    -0.054 A 
HETATM   19  C   UNL     1     -41.206  58.353 -53.905  1.00  0.00     0.043 A 
HETATM   20  C   UNL     1     -40.676  58.558 -52.635  1.00  0.00     0.066 A 
HETATM   21  C   UNL     1     -41.332  58.087 -51.502  1.00  0.00     0.036 A 
HETATM   22  C   UNL     1     -42.537  57.399 -51.647  1.00  0.00     0.003 A 
HETATM   23  C   UNL     1     -43.078  57.189 -52.917  1.00  0.00     0.007 A 
BRANCH  20  24
HETATM   24  O   UNL     1     -39.499  59.240 -52.542  1.00  0.00    -0.361 OA
HETATM   25  H   UNL     1     -38.952  58.820 -51.858  1.00  0.00     0.217 HD
ENDBRANCH  20  24
ENDBRANCH  17  18
ENDBRANCH  16  17
ENDBRANCH   1  16
TORSDOF 6
ENDMDL
MODEL 5
REMARK VINA RESULT:      -7.8      3.663      7.698
REMARK  6 active torsions:
REMARK  status: ('A' for Active; 'I' for Inactive)
REMARK    1  A    between atoms: C_3  and  O_4 
REMARK    2  A    between atoms: C_6  and  C_7 
REMARK    3  A    between atoms: C_7  and  C_8 
REMARK    4  A    between atoms: C_8  and  N_9 
REMARK       I    between atoms: N_9  and  C_10 
REMARK    5  A    between atoms: C_10  and  C_11 
REMARK    6  A    between atoms: C_13  and  C_14 
ROOT
HETATM    1  N   UNL     1     -42.508  54.790 -53.907  1.00  0.00    -0.357 N 
HETATM    2  C   UNL     1     -43.254  55.914 -53.605  1.00  0.00     0.251 C 
HETATM    3  O   UNL     1     -43.495  56.273 -52.459  1.00  0.00    -0.268 OA
HETATM    4  H   UNL     1     -42.601  54.395 -54.832  1.00  0.00     0.162 HD
ENDROOT
BRANCH   2   5
HETATM    5  C   UNL     1     -43.803  56.687 -54.756  1.00  0.00     0.032 A 
HETATM    6  C   UNL     1     -43.133  56.600 -55.987  1.00  0.00     0.029 A 
HETATM    7  C   UNL     1     -43.608  57.285 -57.114  1.00  0.00    -0.023 A 
HETATM    8  C   UNL     1     -44.773  58.055 -56.990  1.00  0.00     0.012 A 
HETATM    9  C   UNL     1     -45.451  58.136 -55.771  1.00  0.00     0.002 A 
HETATM   10  C   UNL     1     -44.971  57.449 -54.655  1.00  0.00     0.017 A 
BRANCH   7  11
HETATM   11  C   UNL     1     -42.927  57.191 -58.396  1.00  0.00    -0.002 A 
HETATM   12  C   UNL     1     -42.911  56.065 -59.196  1.00  0.00     0.153 A 
HETATM   13  O   UNL     1     -42.190  56.283 -60.327  1.00  0.00    -0.334 OA
HETATM   14  C   UNL     1     -41.737  57.560 -60.263  1.00  0.00     0.142 A 
HETATM   15  C   UNL     1     -42.153  58.159 -59.098  1.00  0.00     0.038 A 
ENDBRANCH   7  11
ENDBRANCH   2   5
BRANCH   1  16
HETATM   16  C   UNL     1     -42.059  53.910 -52.841  1.00  0.00     0.127 C 
BRANCH  16  17
HETATM   17  C   UNL     1     -40.548  53.686 -52.882  1.00  0.00     0.058 C 
BRANCH  17  18
HETATM   18  C   UNL     1     -40.202  52.223 -52.777  1.00  0.00    -0.054 A 
HETATM   19  C   UNL     1     -40.213  51.410 -53.919  1.00  0.00     0.043 A 
HETATM   20  C   UNL     1     -39.855  50.069 -53.825  1.00  0.00     0.066 A 
HETATM   21  C   UNL     1     -39.478  49.514 -52.606  1.00  0.00     0.036 A 
HETATM   22  C   UNL     1     -39.462  50.317 -51.465  1.00  0.00     0.003 A 
HETATM   23  C   UNL     1     -39.819  51.665 -51.550  1.00  0.00     0.007 A 
BRANCH  20  24
HETATM   24  O   UNL     1     -39.880  49.324 -54.967  1.00  0.00    -0.361 OA
HETATM   25  H   UNL     1     -39.381  49.796 -55.654  1.00  0.00     0.217 HD
ENDBRANCH  20  24
ENDBRANCH  17  18
ENDBRANCH  16  17
ENDBRANCH   1  16
TORSDOF 6
ENDMDL
MODEL 6
REMARK VINA RESULT:      -7.8      3.418      5.315
REMARK  6 active torsions:
REMARK  status: ('A' for Active; 'I' for Inactive)
REMARK    1  A    between atoms: C_3  and  O_4 
REMARK    2  A    between atoms: C_6  and  C_7 
REMARK    3  A    between atoms: C_7  and  C_8 
REMARK    4  A    between atoms: C_8  and  N_9 
REMARK       I    between atoms: N_9  and  C_10 
REMARK    5  A    between atoms: C_10  and  C_11 
REMARK    6  A    between atoms: C_13  and  C_14 
ROOT
HETATM    1  N   UNL     1     -42.622  55.645 -54.101  1.00  0.00    -0.357 N 
HETATM    2  C   UNL     1     -42.097  55.971 -52.865  1.00  0.00     0.251 C 
HETATM    3  O   UNL     1     -42.213  57.080 -52.357  1.00  0.00    -0.268 OA
HETATM    4  H   UNL     1     -42.243  54.839 -54.578  1.00  0.00     0.162 HD
ENDROOT
BRANCH   2   5
HETATM    5  C   UNL     1     -41.328  54.908 -52.157  1.00  0.00     0.032 A 
HETATM    6  C   UNL     1     -41.060  53.717 -52.851  1.00  0.00     0.029 A 
HETATM    7  C   UNL     1     -40.325  52.685 -52.251  1.00  0.00    -0.023 A 
HETATM    8  C   UNL     1     -39.855  52.868 -50.944  1.00  0.00     0.012 A 
HETATM    9  C   UNL     1     -40.108  54.056 -50.252  1.00  0.00     0.002 A 
HETATM   10  C   UNL     1     -40.839  55.078 -50.858  1.00  0.00     0.017 A 
BRANCH   7  11
HETATM   11  C   UNL     1     -40.032  51.453 -52.968  1.00  0.00    -0.002 A 
HETATM   12  C   UNL     1     -39.605  50.281 -52.374  1.00  0.00     0.153 A 
HETATM   13  O   UNL     1     -39.413  49.308 -53.303  1.00  0.00    -0.334 OA
HETATM   14  C   UNL     1     -39.719  49.850 -54.508  1.00  0.00     0.142 A 
HETATM   15  C   UNL     1     -40.098  51.164 -54.361  1.00  0.00     0.038 A 
ENDBRANCH   7  11
ENDBRANCH   2   5
BRANCH   1  16
HETATM   16  C   UNL     1     -43.262  56.667 -54.911  1.00  0.00     0.127 C 
BRANCH  16  17
HETATM   17  C   UNL     1     -42.282  57.328 -55.879  1.00  0.00     0.058 C 
BRANCH  17  18
HETATM   18  C   UNL     1     -42.588  56.967 -57.310  1.00  0.00    -0.054 A 
HETATM   19  C   UNL     1     -43.340  55.821 -57.604  1.00  0.00     0.043 A 
HETATM   20  C   UNL     1     -43.654  55.513 -58.924  1.00  0.00     0.066 A 
HETATM   21  C   UNL     1     -43.233  56.330 -59.968  1.00  0.00     0.036 A 
HETATM   22  C   UNL     1     -42.485  57.473 -59.683  1.00  0.00     0.003 A 
HETATM   23  C   UNL     1     -42.166  57.792 -58.361  1.00  0.00     0.007 A 
BRANCH  20  24
HETATM   24  O   UNL     1     -44.391  54.389 -59.155  1.00  0.00    -0.361 OA
HETATM   25  H   UNL     1     -44.705  54.409 -60.073  1.00  0.00     0.217 HD
ENDBRANCH  20  24
ENDBRANCH  17  18
ENDBRANCH  16  17
ENDBRANCH   1  16
TORSDOF 6
ENDMDL
MODEL 7
REMARK VINA RESULT:      -7.8      4.069      7.775
REMARK  6 active torsions:
REMARK  status: ('A' for Active; 'I' for Inactive)
REMARK    1  A    between atoms: C_3  and  O_4 
REMARK    2  A    between atoms: C_6  and  C_7 
REMARK    3  A    between atoms: C_7  and  C_8 
REMARK    4  A    between atoms: C_8  and  N_9 
REMARK       I    between atoms: N_9  and  C_10 
REMARK    5  A    between atoms: C_10  and  C_11 
REMARK    6  A    between atoms: C_13  and  C_14 
ROOT
HETATM    1  N   UNL     1     -42.089  54.707 -54.487  1.00  0.00    -0.357 N 
HETATM    2  C   UNL     1     -42.201  56.079 -54.367  1.00  0.00     0.251 C 
HETATM    3  O   UNL     1     -42.131  56.668 -53.295  1.00  0.00    -0.268 OA
HETATM    4  H   UNL     1     -42.448  54.274 -55.327  1.00  0.00     0.162 HD
ENDROOT
BRANCH   2   5
HETATM    5  C   UNL     1     -42.454  56.847 -55.620  1.00  0.00     0.032 A 
HETATM    6  C   UNL     1     -42.954  56.148 -56.730  1.00  0.00     0.029 A 
HETATM    7  C   UNL     1     -43.233  56.814 -57.932  1.00  0.00    -0.023 A 
HETATM    8  C   UNL     1     -43.009  58.195 -58.003  1.00  0.00     0.012 A 
HETATM    9  C   UNL     1     -42.522  58.898 -56.897  1.00  0.00     0.002 A 
HETATM   10  C   UNL     1     -42.250  58.228 -55.704  1.00  0.00     0.017 A 
BRANCH   7  11
HETATM   11  C   UNL     1     -43.764  56.099 -59.084  1.00  0.00    -0.002 A 
HETATM   12  C   UNL     1     -43.897  56.637 -60.349  1.00  0.00     0.153 A 
HETATM   13  O   UNL     1     -44.424  55.728 -61.210  1.00  0.00    -0.334 OA
HETATM   14  C   UNL     1     -44.633  54.591 -60.501  1.00  0.00     0.142 A 
HETATM   15  C   UNL     1     -44.251  54.766 -59.191  1.00  0.00     0.038 A 
ENDBRANCH   7  11
ENDBRANCH   2   5
BRANCH   1  16
HETATM   16  C   UNL     1     -41.982  53.880 -53.297  1.00  0.00     0.127 C 
BRANCH  16  17
HETATM   17  C   UNL     1     -40.527  53.639 -52.896  1.00  0.00     0.058 C 
BRANCH  17  18
HETATM   18  C   UNL     1     -40.161  52.179 -52.992  1.00  0.00    -0.054 A 
HETATM   19  C   UNL     1     -39.729  51.483 -51.854  1.00  0.00     0.043 A 
HETATM   20  C   UNL     1     -39.430  50.127 -51.938  1.00  0.00     0.066 A 
HETATM   21  C   UNL     1     -39.556  49.441 -53.142  1.00  0.00     0.036 A 
HETATM   22  C   UNL     1     -39.988  50.126 -54.277  1.00  0.00     0.003 A 
HETATM   23  C   UNL     1     -40.291  51.487 -54.203  1.00  0.00     0.007 A 
BRANCH  20  24
HETATM   24  O   UNL     1     -39.018  49.497 -50.801  1.00  0.00    -0.361 OA
HETATM   25  H   UNL     1     -39.692  48.847 -50.546  1.00  0.00     0.217 HD
ENDBRANCH  20  24
ENDBRANCH  17  18
ENDBRANCH  16  17
ENDBRANCH   1  16
TORSDOF 6
ENDMDL
MODEL 8
REMARK VINA RESULT:      -7.7      2.076      2.786
REMARK  6 active torsions:
REMARK  status: ('A' for Active; 'I' for Inactive)
REMARK    1  A    between atoms: C_3  and  O_4 
REMARK    2  A    between atoms: C_6  and  C_7 
REMARK    3  A    between atoms: C_7  and  C_8 
REMARK    4  A    between atoms: C_8  and  N_9 
REMARK       I    between atoms: N_9  and  C_10 
REMARK    5  A    between atoms: C_10  and  C_11 
REMARK    6  A    between atoms: C_13  and  C_14 
ROOT
HETATM    1  N   UNL     1     -43.271  55.682 -51.847  1.00  0.00    -0.357 N 
HETATM    2  C   UNL     1     -41.889  55.686 -51.855  1.00  0.00     0.251 C 
HETATM    3  O   UNL     1     -41.214  56.330 -51.062  1.00  0.00    -0.268 OA
HETATM    4  H   UNL     1     -43.748  55.385 -52.687  1.00  0.00     0.162 HD
ENDROOT
BRANCH   2   5
HETATM    5  C   UNL     1     -41.219  54.881 -52.916  1.00  0.00     0.032 A 
HETATM    6  C   UNL     1     -40.891  53.548 -52.623  1.00  0.00     0.029 A 
HETATM    7  C   UNL     1     -40.279  52.730 -53.583  1.00  0.00    -0.023 A 
HETATM    8  C   UNL     1     -40.005  53.268 -54.848  1.00  0.00     0.012 A 
HETATM    9  C   UNL     1     -40.340  54.591 -55.150  1.00  0.00     0.002 A 
HETATM   10  C   UNL     1     -40.951  55.396 -54.189  1.00  0.00     0.017 A 
BRANCH   7  11
HETATM   11  C   UNL     1     -39.947  51.343 -53.291  1.00  0.00    -0.002 A 
HETATM   12  C   UNL     1     -39.853  50.342 -54.237  1.00  0.00     0.153 A 
HETATM   13  O   UNL     1     -39.530  49.155 -53.659  1.00  0.00    -0.334 OA
HETATM   14  C   UNL     1     -39.413  49.387 -52.327  1.00  0.00     0.142 A 
HETATM   15  C   UNL     1     -39.664  50.710 -52.047  1.00  0.00     0.038 A 
ENDBRANCH   7  11
ENDBRANCH   2   5
BRANCH   1  16
HETATM   16  C   UNL     1     -43.993  56.550 -50.933  1.00  0.00     0.127 C 
BRANCH  16  17
HETATM   17  C   UNL     1     -44.721  57.676 -51.667  1.00  0.00     0.058 C 
BRANCH  17  18
HETATM   18  C   UNL     1     -44.156  57.892 -53.048  1.00  0.00    -0.054 A 
HETATM   19  C   UNL     1     -43.030  58.706 -53.232  1.00  0.00     0.043 A 
HETATM   20  C   UNL     1     -42.488  58.871 -54.503  1.00  0.00     0.066 A 
HETATM   21  C   UNL     1     -43.048  58.235 -55.606  1.00  0.00     0.036 A 
HETATM   22  C   UNL     1     -44.168  57.423 -55.431  1.00  0.00     0.003 A 
HETATM   23  C   UNL     1     -44.719  57.249 -54.159  1.00  0.00     0.007 A 
BRANCH  20  24
HETATM   24  O   UNL     1     -41.390  59.670 -54.625  1.00  0.00    -0.361 OA
HETATM   25  H   UNL     1     -41.539  60.480 -54.111  1.00  0.00     0.217 HD
ENDBRANCH  20  24
ENDBRANCH  17  18
ENDBRANCH  16  17
ENDBRANCH   1  16
TORSDOF 6
ENDMDL
MODEL 9
REMARK VINA RESULT:      -7.7      4.473      8.529
REMARK  6 active torsions:
REMARK  status: ('A' for Active; 'I' for Inactive)
REMARK    1  A    between atoms: C_3  and  O_4 
REMARK    2  A    between atoms: C_6  and  C_7 
REMARK    3  A    between atoms: C_7  and  C_8 
REMARK    4  A    between atoms: C_8  and  N_9 
REMARK       I    between atoms: N_9  and  C_10 
REMARK    5  A    between atoms: C_10  and  C_11 
REMARK    6  A    between atoms: C_13  and  C_14 
ROOT
HETATM    1  N   UNL     1     -41.448  55.500 -55.795  1.00  0.00    -0.357 N 
HETATM    2  C   UNL     1     -42.612  55.181 -56.468  1.00  0.00     0.251 C 
HETATM    3  O   UNL     1     -43.391  54.314 -56.091  1.00  0.00    -0.268 OA
HETATM    4  H   UNL     1     -40.726  55.991 -56.304  1.00  0.00     0.162 HD
ENDROOT
BRANCH   2   5
HETATM    5  C   UNL     1     -42.886  55.926 -57.731  1.00  0.00     0.032 A 
HETATM    6  C   UNL     1     -42.413  57.244 -57.834  1.00  0.00     0.029 A 
HETATM    7  C   UNL     1     -42.618  57.992 -59.001  1.00  0.00    -0.023 A 
HETATM    8  C   UNL     1     -43.301  57.396 -60.069  1.00  0.00     0.012 A 
HETATM    9  C   UNL     1     -43.765  56.081 -59.978  1.00  0.00     0.002 A 
HETATM   10  C   UNL     1     -43.554  55.343 -58.813  1.00  0.00     0.017 A 
BRANCH   7  11
HETATM   11  C   UNL     1     -42.120  59.354 -59.120  1.00  0.00    -0.002 A 
HETATM   12  C   UNL     1     -41.649  60.113 -58.067  1.00  0.00     0.153 A 
HETATM   13  O   UNL     1     -41.257  61.343 -58.491  1.00  0.00    -0.334 OA
HETATM   14  C   UNL     1     -41.473  61.383 -59.830  1.00  0.00     0.142 A 
HETATM   15  C   UNL     1     -42.007  60.193 -60.265  1.00  0.00     0.038 A 
ENDBRANCH   7  11
ENDBRANCH   2   5
BRANCH   1  16
HETATM   16  C   UNL     1     -41.044  54.722 -54.636  1.00  0.00     0.127 C 
BRANCH  16  17
HETATM   17  C   UNL     1     -40.254  53.475 -55.029  1.00  0.00     0.058 C 
BRANCH  17  18
HETATM   18  C   UNL     1     -40.083  52.536 -53.863  1.00  0.00    -0.054 A 
HETATM   19  C   UNL     1     -39.832  51.175 -54.082  1.00  0.00     0.043 A 
HETATM   20  C   UNL     1     -39.636  50.319 -53.002  1.00  0.00     0.066 A 
HETATM   21  C   UNL     1     -39.682  50.795 -51.696  1.00  0.00     0.036 A 
HETATM   22  C   UNL     1     -39.929  52.149 -51.470  1.00  0.00     0.003 A 
HETATM   23  C   UNL     1     -40.126  53.016 -52.546  1.00  0.00     0.007 A 
BRANCH  20  24
HETATM   24  O   UNL     1     -39.392  49.005 -53.272  1.00  0.00    -0.361 OA
HETATM   25  H   UNL     1     -38.578  48.741 -52.812  1.00  0.00     0.217 HD
ENDBRANCH  20  24
ENDBRANCH  17  18
ENDBRANCH  16  17
ENDBRANCH   1  16
TORSDOF 6
ENDMDL
MODEL 10
REMARK VINA RESULT:      -7.6      2.235      4.007
REMARK  6 active torsions:
REMARK  status: ('A' for Active; 'I' for Inactive)
REMARK    1  A    between atoms: C_3  and  O_4 
REMARK    2  A    between atoms: C_6  and  C_7 
REMARK    3  A    between atoms: C_7  and  C_8 
REMARK    4  A    between atoms: C_8  and  N_9 
REMARK       I    between atoms: N_9  and  C_10 
REMARK    5  A    between atoms: C_10  and  C_11 
REMARK    6  A    between atoms: C_13  and  C_14 
ROOT
HETATM    1  N   UNL     1     -42.744  57.059 -51.053  1.00  0.00    -0.357 N 
HETATM    2  C   UNL     1     -41.466  56.860 -50.565  1.00  0.00     0.251 C 
HETATM    3  O   UNL     1     -40.640  57.758 -50.458  1.00  0.00    -0.268 OA
HETATM    4  H   UNL     1     -43.253  56.254 -51.389  1.00  0.00     0.162 HD
ENDROOT
BRANCH   2   5
HETATM    5  C   UNL     1     -41.098  55.465 -50.192  1.00  0.00     0.032 A 
HETATM    6  C   UNL     1     -40.807  54.561 -51.226  1.00  0.00     0.029 A 
HETATM    7  C   UNL     1     -40.434  53.240 -50.943  1.00  0.00    -0.023 A 
HETATM    8  C   UNL     1     -40.349  52.838 -49.603  1.00  0.00     0.012 A 
HETATM    9  C   UNL     1     -40.625  53.736 -48.569  1.00  0.00     0.002 A 
HETATM   10  C   UNL     1     -40.994  55.050 -48.860  1.00  0.00     0.017 A 
BRANCH   7  11
HETATM   11  C   UNL     1     -40.120  52.301 -52.010  1.00  0.00    -0.002 A 
HETATM   12  C   UNL     1     -39.509  51.076 -51.823  1.00  0.00     0.153 A 
HETATM   13  O   UNL     1     -39.347  50.429 -53.006  1.00  0.00    -0.334 OA
HETATM   14  C   UNL     1     -39.856  51.237 -53.969  1.00  0.00     0.142 A 
HETATM   15  C   UNL     1     -40.337  52.400 -53.413  1.00  0.00     0.038 A 
ENDBRANCH   7  11
ENDBRANCH   2   5
BRANCH   1  16
HETATM   16  C   UNL     1     -43.129  58.363 -51.567  1.00  0.00     0.127 C 
BRANCH  16  17
HETATM   17  C   UNL     1     -42.784  58.519 -53.047  1.00  0.00     0.058 C 
BRANCH  17  18
HETATM   18  C   UNL     1     -42.745  57.187 -53.751  1.00  0.00    -0.054 A 
HETATM   19  C   UNL     1     -41.545  56.711 -54.298  1.00  0.00     0.043 A 
HETATM   20  C   UNL     1     -41.505  55.463 -54.913  1.00  0.00     0.066 A 
HETATM   21  C   UNL     1     -42.645  54.669 -54.992  1.00  0.00     0.036 A 
HETATM   22  C   UNL     1     -43.842  55.135 -54.448  1.00  0.00     0.003 A 
HETATM   23  C   UNL     1     -43.892  56.386 -53.828  1.00  0.00     0.007 A 
BRANCH  20  24
HETATM   24  O   UNL     1     -40.312  55.047 -55.425  1.00  0.00    -0.361 OA
HETATM   25  H   UNL     1     -39.708  55.807 -55.456  1.00  0.00     0.217 HD
ENDBRANCH  20  24
ENDBRANCH  17  18
ENDBRANCH  16  17
ENDBRANCH   1  16
TORSDOF 6
ENDMDL
