MODEL 1
REMARK VINA RESULT:      -8.0      0.000      0.000
REMARK  4 active torsions:
REMARK  status: ('A' for Active; 'I' for Inactive)
REMARK    1  A    between atoms: C_5  and  C_6 
REMARK    2  A    between atoms: C_6  and  N_7 
REMARK    3  A    between atoms: C_6  and  C_18 
REMARK    4  A    between atoms: N_7  and  C_8 
ROOT
HETATM    1  C   UNL     1     -42.485  55.234 -53.028  1.00  0.00     0.288 C 
ENDROOT
BRANCH   1   2
HETATM    2  C   UNL     1     -41.923  56.625 -52.770  1.00  0.00    -0.003 A 
HETATM    3  C   UNL     1     -42.535  57.446 -51.822  1.00  0.00     0.126 A 
HETATM    4  N   UNL     1     -42.142  58.706 -51.531  1.00  0.00    -0.272 NA
HETATM    5  C   UNL     1     -41.075  59.185 -52.200  1.00  0.00     0.116 A 
HETATM    6  C   UNL     1     -40.392  58.463 -53.162  1.00  0.00     0.020 A 
HETATM    7  C   UNL     1     -40.828  57.171 -53.453  1.00  0.00     0.012 A 
ENDBRANCH   1   2
BRANCH   1   8
HETATM    8  N   UNL     1     -43.455  55.215 -54.154  1.00  0.00     0.101 NA
HETATM    9  H   UNL     1     -44.372  55.398 -53.739  1.00  0.00     0.317 HD
BRANCH   8  10
HETATM   10  C   UNL     1     -43.254  56.108 -55.302  1.00  0.00     0.225 C 
HETATM   11  C   UNL     1     -43.081  55.369 -56.646  1.00  0.00     0.069 C 
HETATM   12  C   UNL     1     -43.046  56.360 -57.793  1.00  0.00     0.190 C 
HETATM   13  N   UNL     1     -44.330  57.140 -57.791  1.00  0.00    -0.067 N 
HETATM   14  C   UNL     1     -43.049  55.788 -59.196  1.00  0.00     0.035 C 
HETATM   15  H   UNL     1     -45.110  56.464 -57.792  1.00  0.00     0.280 HD
HETATM   16  C   UNL     1     -44.476  57.980 -56.567  1.00  0.00     0.237 C 
HETATM   17  C   UNL     1     -44.383  57.838 -59.125  1.00  0.00     0.235 C 
HETATM   18  C   UNL     1     -44.485  57.049 -55.356  1.00  0.00     0.063 C 
HETATM   19  C   UNL     1     -43.527  56.965 -60.043  1.00  0.00     0.030 C 
ENDBRANCH   8  10
ENDBRANCH   1   8
BRANCH   1  20
HETATM   20  C   UNL     1     -41.525  54.038 -53.008  1.00  0.00    -0.021 A 
HETATM   21  C   UNL     1     -40.813  53.638 -51.863  1.00  0.00     0.012 A 
HETATM   22  C   UNL     1     -39.970  52.521 -51.892  1.00  0.00     0.043 A 
HETATM   23  C   UNL     1     -39.857  51.774 -53.056  1.00  0.00     0.116 A 
HETATM   24  F   UNL     1     -39.046  50.710 -53.083  1.00  0.00    -0.206 F 
HETATM   25  C   UNL     1     -40.583  52.109 -54.188  1.00  0.00     0.043 A 
HETATM   26  C   UNL     1     -41.421  53.225 -54.159  1.00  0.00     0.012 A 
ENDBRANCH   1  20
TORSDOF 4
ENDMDL
MODEL 2
REMARK VINA RESULT:      -7.9      1.906      5.178
REMARK  4 active torsions:
REMARK  status: ('A' for Active; 'I' for Inactive)
REMARK    1  A    between atoms: C_5  and  C_6 
REMARK    2  A    between atoms: C_6  and  N_7 
REMARK    3  A    between atoms: C_6  and  C_18 
REMARK    4  A    between atoms: N_7  and  C_8 
ROOT
HETATM    1  C   UNL     1     -41.587  54.160 -53.234  1.00  0.00     0.288 C 
ENDROOT
BRANCH   1   2
HETATM    2  C   UNL     1     -42.053  54.748 -54.558  1.00  0.00    -0.003 A 
HETATM    3  C   UNL     1     -41.561  55.988 -54.968  1.00  0.00     0.126 A 
HETATM    4  N   UNL     1     -41.925  56.618 -56.106  1.00  0.00    -0.272 NA
HETATM    5  C   UNL     1     -42.813  55.987 -56.899  1.00  0.00     0.116 A 
HETATM    6  C   UNL     1     -43.367  54.757 -56.594  1.00  0.00     0.020 A 
HETATM    7  C   UNL     1     -42.985  54.136 -55.406  1.00  0.00     0.012 A 
ENDBRANCH   1   2
BRANCH   1   8
HETATM    8  N   UNL     1     -42.593  54.331 -52.153  1.00  0.00     0.101 NA
HETATM    9  H   UNL     1     -42.480  53.526 -51.533  1.00  0.00     0.317 HD
BRANCH   8  10
HETATM   10  C   UNL     1     -42.600  55.563 -51.355  1.00  0.00     0.225 C 
HETATM   11  C   UNL     1     -41.253  56.318 -51.360  1.00  0.00     0.069 C 
HETATM   12  C   UNL     1     -41.393  57.653 -50.656  1.00  0.00     0.190 C 
HETATM   13  N   UNL     1     -42.443  58.460 -51.366  1.00  0.00    -0.067 N 
HETATM   14  C   UNL     1     -40.205  58.592 -50.719  1.00  0.00     0.035 C 
HETATM   15  H   UNL     1     -42.193  58.493 -52.366  1.00  0.00     0.280 HD
HETATM   16  C   UNL     1     -43.794  57.836 -51.269  1.00  0.00     0.237 C 
HETATM   17  C   UNL     1     -42.289  59.868 -50.852  1.00  0.00     0.235 C 
HETATM   18  C   UNL     1     -43.725  56.461 -51.931  1.00  0.00     0.063 C 
HETATM   19  C   UNL     1     -40.828  59.951 -50.408  1.00  0.00     0.030 C 
ENDBRANCH   8  10
ENDBRANCH   1   8
BRANCH   1  20
HETATM   20  C   UNL     1     -40.899  52.790 -53.238  1.00  0.00    -0.021 A 
HETATM   21  C   UNL     1     -40.832  51.962 -54.374  1.00  0.00     0.012 A 
HETATM   22  C   UNL     1     -40.169  50.731 -54.330  1.00  0.00     0.043 A 
HETATM   23  C   UNL     1     -39.535  50.331 -53.162  1.00  0.00     0.116 A 
HETATM   24  F   UNL     1     -38.905  49.151 -53.122  1.00  0.00    -0.206 F 
HETATM   25  C   UNL     1     -39.536  51.145 -52.040  1.00  0.00     0.043 A 
HETATM   26  C   UNL     1     -40.201  52.370 -52.082  1.00  0.00     0.012 A 
ENDBRANCH   1  20
TORSDOF 4
ENDMDL
MODEL 3
REMARK VINA RESULT:      -7.6      1.643      2.235
REMARK  4 active torsions:
REMARK  status: ('A' for Active; 'I' for Inactive)
REMARK    1  A    between atoms: C_5  and  C_6 
REMARK    2  A    between atoms: C_6  and  N_7 
REMARK    3  A    between atoms: C_6  and  C_18 
REMARK    4  A    between atoms: N_7  and  C_8 
ROOT
HETATM    1  C   UNL     1     -42.687  56.470 -54.745  1.00  0.00     0.288 C 
ENDROOT
BRANCH   1   2
HETATM    2  C   UNL     1     -43.194  57.336 -53.601  1.00  0.00    -0.003 A 
HETATM    3  C   UNL     1     -42.305  58.177 -52.931  1.00  0.00     0.126 A 
HETATM    4  N   UNL     1     -42.637  58.966 -51.885  1.00  0.00    -0.272 NA
HETATM    5  C   UNL     1     -43.922  58.941 -51.482  1.00  0.00     0.116 A 
HETATM    6  C   UNL     1     -44.889  58.146 -52.069  1.00  0.00     0.020 A 
HETATM    7  C   UNL     1     -44.517  57.330 -53.136  1.00  0.00     0.012 A 
ENDBRANCH   1   2
BRANCH   1   8
HETATM    8  N   UNL     1     -42.114  57.277 -55.854  1.00  0.00     0.101 NA
HETATM    9  H   UNL     1     -41.156  56.943 -55.981  1.00  0.00     0.317 HD
BRANCH   8  10
HETATM   10  C   UNL     1     -42.795  57.309 -57.155  1.00  0.00     0.225 C 
HETATM   11  C   UNL     1     -43.012  55.915 -57.781  1.00  0.00     0.069 C 
HETATM   12  C   UNL     1     -43.863  56.023 -59.031  1.00  0.00     0.190 C 
HETATM   13  N   UNL     1     -45.183  56.637 -58.659  1.00  0.00    -0.067 N 
HETATM   14  C   UNL     1     -44.310  54.726 -59.673  1.00  0.00     0.035 C 
HETATM   15  H   UNL     1     -45.579  56.087 -57.882  1.00  0.00     0.280 HD
HETATM   16  C   UNL     1     -45.035  58.041 -58.177  1.00  0.00     0.237 C 
HETATM   17  C   UNL     1     -46.088  56.399 -59.840  1.00  0.00     0.235 C 
HETATM   18  C   UNL     1     -44.155  58.018 -56.929  1.00  0.00     0.063 C 
HETATM   19  C   UNL     1     -45.506  55.159 -60.519  1.00  0.00     0.030 C 
ENDBRANCH   8  10
ENDBRANCH   1   8
BRANCH   1  20
HETATM   20  C   UNL     1     -41.886  55.206 -54.412  1.00  0.00    -0.021 A 
HETATM   21  C   UNL     1     -42.251  54.304 -53.395  1.00  0.00     0.012 A 
HETATM   22  C   UNL     1     -41.498  53.151 -53.150  1.00  0.00     0.043 A 
HETATM   23  C   UNL     1     -40.393  52.868 -53.940  1.00  0.00     0.116 A 
HETATM   24  F   UNL     1     -39.672  51.767 -53.700  1.00  0.00    -0.206 F 
HETATM   25  C   UNL     1     -40.035  53.707 -54.984  1.00  0.00     0.043 A 
HETATM   26  C   UNL     1     -40.783  54.859 -55.226  1.00  0.00     0.012 A 
ENDBRANCH   1  20
TORSDOF 4
ENDMDL
MODEL 4
REMARK VINA RESULT:      -7.5      2.418      4.449
REMARK  4 active torsions:
REMARK  status: ('A' for Active; 'I' for Inactive)
REMARK    1  A    between atoms: C_5  and  C_6 
REMARK    2  A    between atoms: C_6  and  N_7 
REMARK    3  A    between atoms: C_6  and  C_18 
REMARK    4  A    between atoms: N_7  and  C_8 
ROOT
HETATM    1  C   UNL     1     -41.325  55.469 -54.084  1.00  0.00     0.288 C 
ENDROOT
BRANCH   1   2
HETATM    2  C   UNL     1     -40.753  54.149 -53.590  1.00  0.00    -0.003 A 
HETATM    3  C   UNL     1     -40.502  53.977 -52.228  1.00  0.00     0.126 A 
HETATM    4  N   UNL     1     -39.970  52.862 -51.681  1.00  0.00    -0.272 NA
HETATM    5  C   UNL     1     -39.681  51.847 -52.518  1.00  0.00     0.116 A 
HETATM    6  C   UNL     1     -39.885  51.904 -53.885  1.00  0.00     0.020 A 
HETATM    7  C   UNL     1     -40.421  53.073 -54.425  1.00  0.00     0.012 A 
ENDBRANCH   1   2
BRANCH   1   8
HETATM    8  N   UNL     1     -42.567  55.285 -54.880  1.00  0.00     0.101 NA
HETATM    9  H   UNL     1     -43.338  55.561 -54.267  1.00  0.00     0.317 HD
BRANCH   8  10
HETATM   10  C   UNL     1     -42.708  55.964 -56.174  1.00  0.00     0.225 C 
HETATM   11  C   UNL     1     -43.138  55.030 -57.326  1.00  0.00     0.069 C 
HETATM   12  C   UNL     1     -43.420  55.833 -58.580  1.00  0.00     0.190 C 
HETATM   13  N   UNL     1     -44.509  56.823 -58.279  1.00  0.00    -0.067 N 
HETATM   14  C   UNL     1     -44.015  55.086 -59.756  1.00  0.00     0.035 C 
HETATM   15  H   UNL     1     -45.306  56.304 -57.879  1.00  0.00     0.280 HD
HETATM   16  C   UNL     1     -44.088  57.834 -57.267  1.00  0.00     0.237 C 
HETATM   17  C   UNL     1     -44.977  57.333 -59.618  1.00  0.00     0.235 C 
HETATM   18  C   UNL     1     -43.751  57.093 -55.975  1.00  0.00     0.063 C 
HETATM   19  C   UNL     1     -44.635  56.204 -60.592  1.00  0.00     0.030 C 
ENDBRANCH   8  10
ENDBRANCH   1   8
BRANCH   1  20
HETATM   20  C   UNL     1     -41.370  56.659 -53.119  1.00  0.00    -0.021 A 
HETATM   21  C   UNL     1     -40.458  57.730 -53.168  1.00  0.00     0.012 A 
HETATM   22  C   UNL     1     -40.561  58.805 -52.278  1.00  0.00     0.043 A 
HETATM   23  C   UNL     1     -41.595  58.839 -51.354  1.00  0.00     0.116 A 
HETATM   24  F   UNL     1     -41.688  59.866 -50.502  1.00  0.00    -0.206 F 
HETATM   25  C   UNL     1     -42.542  57.827 -51.312  1.00  0.00     0.043 A 
HETATM   26  C   UNL     1     -42.437  56.753 -52.196  1.00  0.00     0.012 A 
ENDBRANCH   1  20
TORSDOF 4
ENDMDL
MODEL 5
REMARK VINA RESULT:      -7.5      1.341      1.822
REMARK  4 active torsions:
REMARK  status: ('A' for Active; 'I' for Inactive)
REMARK    1  A    between atoms: C_5  and  C_6 
REMARK    2  A    between atoms: C_6  and  N_7 
REMARK    3  A    between atoms: C_6  and  C_18 
REMARK    4  A    between atoms: N_7  and  C_8 
ROOT
HETATM    1  C   UNL     1     -41.882  55.686 -54.361  1.00  0.00     0.288 C 
ENDROOT
BRANCH   1   2
HETATM    2  C   UNL     1     -41.830  56.994 -53.586  1.00  0.00    -0.003 A 
HETATM    3  C   UNL     1     -42.976  57.450 -52.934  1.00  0.00     0.126 A 
HETATM    4  N   UNL     1     -43.055  58.608 -52.242  1.00  0.00    -0.272 NA
HETATM    5  C   UNL     1     -41.937  59.357 -52.172  1.00  0.00     0.116 A 
HETATM    6  C   UNL     1     -40.745  59.007 -52.780  1.00  0.00     0.020 A 
HETATM    7  C   UNL     1     -40.696  57.814 -53.500  1.00  0.00     0.012 A 
ENDBRANCH   1   2
BRANCH   1   8
HETATM    8  N   UNL     1     -41.659  55.881 -55.818  1.00  0.00     0.101 NA
HETATM    9  H   UNL     1     -41.492  54.949 -56.205  1.00  0.00     0.317 HD
BRANCH   8  10
HETATM   10  C   UNL     1     -42.677  56.568 -56.623  1.00  0.00     0.225 C 
HETATM   11  C   UNL     1     -42.226  57.943 -57.160  1.00  0.00     0.069 C 
HETATM   12  C   UNL     1     -43.264  58.506 -58.110  1.00  0.00     0.190 C 
HETATM   13  N   UNL     1     -43.446  57.539 -59.246  1.00  0.00    -0.067 N 
HETATM   14  C   UNL     1     -42.899  59.773 -58.856  1.00  0.00     0.035 C 
HETATM   15  H   UNL     1     -42.515  57.344 -59.647  1.00  0.00     0.280 HD
HETATM   16  C   UNL     1     -44.013  56.236 -58.791  1.00  0.00     0.237 C 
HETATM   17  C   UNL     1     -44.204  58.295 -60.306  1.00  0.00     0.235 C 
HETATM   18  C   UNL     1     -43.032  55.619 -57.796  1.00  0.00     0.063 C 
HETATM   19  C   UNL     1     -43.864  59.762 -60.040  1.00  0.00     0.030 C 
ENDBRANCH   8  10
ENDBRANCH   1   8
BRANCH   1  20
HETATM   20  C   UNL     1     -41.174  54.457 -53.779  1.00  0.00    -0.021 A 
HETATM   21  C   UNL     1     -40.979  54.258 -52.399  1.00  0.00     0.012 A 
HETATM   22  C   UNL     1     -40.350  53.104 -51.920  1.00  0.00     0.043 A 
HETATM   23  C   UNL     1     -39.939  52.122 -52.810  1.00  0.00     0.116 A 
HETATM   24  F   UNL     1     -39.333  51.022 -52.348  1.00  0.00    -0.206 F 
HETATM   25  C   UNL     1     -40.161  52.261 -54.171  1.00  0.00     0.043 A 
HETATM   26  C   UNL     1     -40.786  53.413 -54.650  1.00  0.00     0.012 A 
ENDBRANCH   1  20
TORSDOF 4
ENDMDL
MODEL 6
REMARK VINA RESULT:      -7.4      1.456      2.206
REMARK  4 active torsions:
REMARK  status: ('A' for Active; 'I' for Inactive)
REMARK    1  A    between atoms: C_5  and  C_6 
REMARK    2  A    between atoms: C_6  and  N_7 
REMARK    3  A    between atoms: C_6  and  C_18 
REMARK    4  A    between atoms: N_7  and  C_8 
ROOT
HETATM    1  C   UNL     1     -41.742  56.397 -53.838  1.00  0.00     0.288 C 
ENDROOT
BRANCH   1   2
HETATM    2  C   UNL     1     -41.283  57.438 -52.828  1.00  0.00    -0.003 A 
HETATM    3  C   UNL     1     -40.235  58.298 -53.158  1.00  0.00     0.126 A 
HETATM    4  N   UNL     1     -39.726  59.238 -52.331  1.00  0.00    -0.272 NA
HETATM    5  C   UNL     1     -40.289  59.353 -51.113  1.00  0.00     0.116 A 
HETATM    6  C   UNL     1     -41.331  58.555 -50.677  1.00  0.00     0.020 A 
HETATM    7  C   UNL     1     -41.827  57.583 -51.544  1.00  0.00     0.012 A 
ENDBRANCH   1   2
BRANCH   1   8
HETATM    8  N   UNL     1     -41.757  56.926 -55.228  1.00  0.00     0.101 NA
HETATM    9  H   UNL     1     -41.603  56.119 -55.838  1.00  0.00     0.317 HD
BRANCH   8  10
HETATM   10  C   UNL     1     -42.922  57.681 -55.704  1.00  0.00     0.225 C 
HETATM   11  C   UNL     1     -43.232  57.473 -57.202  1.00  0.00     0.069 C 
HETATM   12  C   UNL     1     -44.537  58.150 -57.571  1.00  0.00     0.190 C 
HETATM   13  N   UNL     1     -45.635  57.566 -56.728  1.00  0.00    -0.067 N 
HETATM   14  C   UNL     1     -45.072  57.900 -58.967  1.00  0.00     0.035 C 
HETATM   15  H   UNL     1     -45.604  56.540 -56.836  1.00  0.00     0.280 HD
HETATM   16  C   UNL     1     -45.449  57.863 -55.278  1.00  0.00     0.237 C 
HETATM   17  C   UNL     1     -46.922  58.013 -57.369  1.00  0.00     0.235 C 
HETATM   18  C   UNL     1     -44.128  57.237 -54.836  1.00  0.00     0.063 C 
HETATM   19  C   UNL     1     -46.551  58.253 -58.833  1.00  0.00     0.030 C 
ENDBRANCH   8  10
ENDBRANCH   1   8
BRANCH   1  20
HETATM   20  C   UNL     1     -41.204  54.966 -53.718  1.00  0.00    -0.021 A 
HETATM   21  C   UNL     1     -40.691  54.239 -54.809  1.00  0.00     0.012 A 
HETATM   22  C   UNL     1     -40.188  52.945 -54.638  1.00  0.00     0.043 A 
HETATM   23  C   UNL     1     -40.159  52.377 -53.373  1.00  0.00     0.116 A 
HETATM   24  F   UNL     1     -39.682  51.137 -53.214  1.00  0.00    -0.206 F 
HETATM   25  C   UNL     1     -40.608  53.084 -52.268  1.00  0.00     0.043 A 
HETATM   26  C   UNL     1     -41.114  54.374 -52.438  1.00  0.00     0.012 A 
ENDBRANCH   1  20
TORSDOF 4
ENDMDL
MODEL 7
REMARK VINA RESULT:      -7.4      2.671      6.110
REMARK  4 active torsions:
REMARK  status: ('A' for Active; 'I' for Inactive)
REMARK    1  A    between atoms: C_5  and  C_6 
REMARK    2  A    between atoms: C_6  and  N_7 
REMARK    3  A    between atoms: C_6  and  C_18 
REMARK    4  A    between atoms: N_7  and  C_8 
ROOT
HETATM    1  C   UNL     1     -43.063  56.620 -54.760  1.00  0.00     0.288 C 
ENDROOT
BRANCH   1   2
HETATM    2  C   UNL     1     -42.747  57.861 -53.939  1.00  0.00    -0.003 A 
HETATM    3  C   UNL     1     -41.507  58.484 -54.086  1.00  0.00     0.126 A 
HETATM    4  N   UNL     1     -41.108  59.571 -53.390  1.00  0.00    -0.272 NA
HETATM    5  C   UNL     1     -41.984  60.090 -52.508  1.00  0.00     0.116 A 
HETATM    6  C   UNL     1     -43.239  59.557 -52.277  1.00  0.00     0.020 A 
HETATM    7  C   UNL     1     -43.620  58.425 -52.998  1.00  0.00     0.012 A 
ENDBRANCH   1   2
BRANCH   1   8
HETATM    8  N   UNL     1     -43.873  55.630 -54.002  1.00  0.00     0.101 NA
HETATM    9  H   UNL     1     -44.634  55.351 -54.626  1.00  0.00     0.317 HD
BRANCH   8  10
HETATM   10  C   UNL     1     -43.228  54.431 -53.454  1.00  0.00     0.225 C 
HETATM   11  C   UNL     1     -42.054  53.907 -54.310  1.00  0.00     0.069 C 
HETATM   12  C   UNL     1     -41.342  52.775 -53.594  1.00  0.00     0.190 C 
HETATM   13  N   UNL     1     -40.836  53.287 -52.276  1.00  0.00    -0.067 N 
HETATM   14  C   UNL     1     -40.064  52.261 -54.223  1.00  0.00     0.035 C 
HETATM   15  H   UNL     1     -40.279  54.136 -52.459  1.00  0.00     0.280 HD
HETATM   16  C   UNL     1     -41.946  53.678 -51.359  1.00  0.00     0.237 C 
HETATM   17  C   UNL     1     -39.861  52.249 -51.784  1.00  0.00     0.235 C 
HETATM   18  C   UNL     1     -42.737  54.799 -52.030  1.00  0.00     0.063 C 
HETATM   19  C   UNL     1     -39.369  51.560 -53.057  1.00  0.00     0.030 C 
ENDBRANCH   8  10
ENDBRANCH   1   8
BRANCH   1  20
HETATM   20  C   UNL     1     -43.493  56.793 -56.221  1.00  0.00    -0.021 A 
HETATM   21  C   UNL     1     -44.348  57.823 -56.659  1.00  0.00     0.012 A 
HETATM   22  C   UNL     1     -44.688  57.951 -58.010  1.00  0.00     0.043 A 
HETATM   23  C   UNL     1     -44.151  57.075 -58.942  1.00  0.00     0.116 A 
HETATM   24  F   UNL     1     -44.482  57.197 -60.233  1.00  0.00    -0.206 F 
HETATM   25  C   UNL     1     -43.265  56.082 -58.554  1.00  0.00     0.043 A 
HETATM   26  C   UNL     1     -42.929  55.951 -57.206  1.00  0.00     0.012 A 
ENDBRANCH   1  20
TORSDOF 4
ENDMDL
MODEL 8
REMARK VINA RESULT:      -7.4      2.577      4.785
REMARK  4 active torsions:
REMARK  status: ('A' for Active; 'I' for Inactive)
REMARK    1  A    between atoms: C_5  and  C_6 
REMARK    2  A    between atoms: C_6  and  N_7 
REMARK    3  A    between atoms: C_6  and  C_18 
REMARK    4  A    between atoms: N_7  and  C_8 
ROOT
HETATM    1  C   UNL     1     -41.562  55.889 -53.984  1.00  0.00     0.288 C 
ENDROOT
BRANCH   1   2
HETATM    2  C   UNL     1     -40.973  54.534 -53.621  1.00  0.00    -0.003 A 
HETATM    3  C   UNL     1     -40.546  53.678 -54.637  1.00  0.00     0.126 A 
HETATM    4  N   UNL     1     -40.036  52.443 -54.434  1.00  0.00    -0.272 NA
HETATM    5  C   UNL     1     -39.922  52.028 -53.157  1.00  0.00     0.116 A 
HETATM    6  C   UNL     1     -40.314  52.790 -52.071  1.00  0.00     0.020 A 
HETATM    7  C   UNL     1     -40.851  54.054 -52.309  1.00  0.00     0.012 A 
ENDBRANCH   1   2
BRANCH   1   8
HETATM    8  N   UNL     1     -42.952  55.783 -54.500  1.00  0.00     0.101 NA
HETATM    9  H   UNL     1     -43.548  56.231 -53.800  1.00  0.00     0.317 HD
BRANCH   8  10
HETATM   10  C   UNL     1     -43.276  56.316 -55.829  1.00  0.00     0.225 C 
HETATM   11  C   UNL     1     -42.470  57.577 -56.209  1.00  0.00     0.069 C 
HETATM   12  C   UNL     1     -42.741  57.962 -57.650  1.00  0.00     0.190 C 
HETATM   13  N   UNL     1     -42.352  56.811 -58.534  1.00  0.00    -0.067 N 
HETATM   14  C   UNL     1     -41.901  59.080 -58.233  1.00  0.00     0.035 C 
HETATM   15  H   UNL     1     -41.380  56.551 -58.304  1.00  0.00     0.280 HD
HETATM   16  C   UNL     1     -43.200  55.607 -58.297  1.00  0.00     0.237 C 
HETATM   17  C   UNL     1     -42.312  57.368 -59.933  1.00  0.00     0.235 C 
HETATM   18  C   UNL     1     -43.007  55.176 -56.845  1.00  0.00     0.063 C 
HETATM   19  C   UNL     1     -42.037  58.860 -59.738  1.00  0.00     0.030 C 
ENDBRANCH   8  10
ENDBRANCH   1   8
BRANCH   1  20
HETATM   20  C   UNL     1     -41.337  57.069 -53.030  1.00  0.00    -0.021 A 
HETATM   21  C   UNL     1     -40.298  58.005 -53.190  1.00  0.00     0.012 A 
HETATM   22  C   UNL     1     -40.154  59.079 -52.305  1.00  0.00     0.043 A 
HETATM   23  C   UNL     1     -41.065  59.249 -51.273  1.00  0.00     0.116 A 
HETATM   24  F   UNL     1     -40.921  60.274 -50.425  1.00  0.00    -0.206 F 
HETATM   25  C   UNL     1     -42.130  58.376 -51.117  1.00  0.00     0.043 A 
HETATM   26  C   UNL     1     -42.272  57.302 -51.997  1.00  0.00     0.012 A 
ENDBRANCH   1  20
TORSDOF 4
ENDMDL
MODEL 9
REMARK VINA RESULT:      -7.3      3.452      6.982
REMARK  4 active torsions:
REMARK  status: ('A' for Active; 'I' for Inactive)
REMARK    1  A    between atoms: C_5  and  C_6 
REMARK    2  A    between atoms: C_6  and  N_7 
REMARK    3  A    between atoms: C_6  and  C_18 
REMARK    4  A    between atoms: N_7  and  C_8 
ROOT
HETATM    1  C   UNL     1     -43.371  57.462 -57.709  1.00  0.00     0.288 C 
ENDROOT
BRANCH   1   2
HETATM    2  C   UNL     1     -42.634  58.776 -57.926  1.00  0.00    -0.003 A 
HETATM    3  C   UNL     1     -42.111  59.458 -56.827  1.00  0.00     0.126 A 
HETATM    4  N   UNL     1     -41.466  60.643 -56.896  1.00  0.00    -0.272 NA
HETATM    5  C   UNL     1     -41.309  61.185 -58.120  1.00  0.00     0.116 A 
HETATM    6  C   UNL     1     -41.786  60.600 -59.279  1.00  0.00     0.020 A 
HETATM    7  C   UNL     1     -42.462  59.385 -59.176  1.00  0.00     0.012 A 
ENDBRANCH   1   2
BRANCH   1   8
HETATM    8  N   UNL     1     -43.737  57.247 -56.285  1.00  0.00     0.101 NA
HETATM    9  H   UNL     1     -44.744  57.417 -56.224  1.00  0.00     0.317 HD
BRANCH   8  10
HETATM   10  C   UNL     1     -43.420  55.968 -55.639  1.00  0.00     0.225 C 
HETATM   11  C   UNL     1     -41.976  55.483 -55.889  1.00  0.00     0.069 C 
HETATM   12  C   UNL     1     -41.680  54.250 -55.058  1.00  0.00     0.190 C 
HETATM   13  N   UNL     1     -41.868  54.596 -53.608  1.00  0.00    -0.067 N 
HETATM   14  C   UNL     1     -40.251  53.746 -55.059  1.00  0.00     0.035 C 
HETATM   15  H   UNL     1     -41.298  55.432 -53.406  1.00  0.00     0.280 HD
HETATM   16  C   UNL     1     -43.284  54.939 -53.290  1.00  0.00     0.237 C 
HETATM   17  C   UNL     1     -41.235  53.467 -52.836  1.00  0.00     0.235 C 
HETATM   18  C   UNL     1     -43.670  56.160 -54.121  1.00  0.00     0.063 C 
HETATM   19  C   UNL     1     -40.189  52.894 -53.793  1.00  0.00     0.030 C 
ENDBRANCH   8  10
ENDBRANCH   1   8
BRANCH   1  20
HETATM   20  C   UNL     1     -44.465  57.059 -58.705  1.00  0.00    -0.021 A 
HETATM   21  C   UNL     1     -44.307  56.030 -59.653  1.00  0.00     0.012 A 
HETATM   22  C   UNL     1     -45.348  55.685 -60.521  1.00  0.00     0.043 A 
HETATM   23  C   UNL     1     -46.568  56.339 -60.430  1.00  0.00     0.116 A 
HETATM   24  F   UNL     1     -47.560  56.010 -61.265  1.00  0.00    -0.206 F 
HETATM   25  C   UNL     1     -46.776  57.321 -59.474  1.00  0.00     0.043 A 
HETATM   26  C   UNL     1     -45.736  57.669 -58.610  1.00  0.00     0.012 A 
ENDBRANCH   1  20
TORSDOF 4
ENDMDL
MODEL 10
REMARK VINA RESULT:      -7.1      3.619      7.908
REMARK  4 active torsions:
REMARK  status: ('A' for Active; 'I' for Inactive)
REMARK    1  A    between atoms: C_5  and  C_6 
REMARK    2  A    between atoms: C_6  and  N_7 
REMARK    3  A    between atoms: C_6  and  C_18 
REMARK    4  A    between atoms: N_7  and  C_8 
ROOT
HETATM    1  C   UNL     1     -43.014  57.549 -58.046  1.00  0.00     0.288 C 
ENDROOT
BRANCH   1   2
HETATM    2  C   UNL     1     -43.978  56.752 -58.913  1.00  0.00    -0.003 A 
HETATM    3  C   UNL     1     -45.304  57.173 -59.029  1.00  0.00     0.126 A 
HETATM    4  N   UNL     1     -46.252  56.531 -59.746  1.00  0.00    -0.272 NA
HETATM    5  C   UNL     1     -45.874  55.416 -60.402  1.00  0.00     0.116 A 
HETATM    6  C   UNL     1     -44.590  54.905 -60.359  1.00  0.00     0.020 A 
HETATM    7  C   UNL     1     -43.635  55.580 -59.599  1.00  0.00     0.012 A 
ENDBRANCH   1   2
BRANCH   1   8
HETATM    8  N   UNL     1     -42.039  56.679 -57.338  1.00  0.00     0.101 NA
HETATM    9  H   UNL     1     -41.175  57.222 -57.268  1.00  0.00     0.317 HD
BRANCH   8  10
HETATM   10  C   UNL     1     -42.379  56.132 -56.018  1.00  0.00     0.225 C 
HETATM   11  C   UNL     1     -41.610  54.843 -55.659  1.00  0.00     0.069 C 
HETATM   12  C   UNL     1     -41.893  54.441 -54.224  1.00  0.00     0.190 C 
HETATM   13  N   UNL     1     -41.472  55.566 -53.321  1.00  0.00    -0.067 N 
HETATM   14  C   UNL     1     -41.085  53.290 -53.660  1.00  0.00     0.035 C 
HETATM   15  H   UNL     1     -40.493  55.802 -53.546  1.00  0.00     0.280 HD
HETATM   16  C   UNL     1     -42.285  56.797 -53.539  1.00  0.00     0.237 C 
HETATM   17  C   UNL     1     -41.449  54.984 -51.931  1.00  0.00     0.235 C 
HETATM   18  C   UNL     1     -42.079  57.248 -54.983  1.00  0.00     0.063 C 
HETATM   19  C   UNL     1     -41.217  53.489 -52.152  1.00  0.00     0.030 C 
ENDBRANCH   8  10
ENDBRANCH   1   8
BRANCH   1  20
HETATM   20  C   UNL     1     -42.407  58.837 -58.614  1.00  0.00    -0.021 A 
HETATM   21  C   UNL     1     -42.418  59.160 -59.983  1.00  0.00     0.012 A 
HETATM   22  C   UNL     1     -41.872  60.363 -60.444  1.00  0.00     0.043 A 
HETATM   23  C   UNL     1     -41.341  61.271 -59.540  1.00  0.00     0.116 A 
HETATM   24  F   UNL     1     -40.816  62.418 -59.984  1.00  0.00    -0.206 F 
HETATM   25  C   UNL     1     -41.360  61.009 -58.179  1.00  0.00     0.043 A 
HETATM   26  C   UNL     1     -41.901  59.808 -57.719  1.00  0.00     0.012 A 
ENDBRANCH   1  20
TORSDOF 4
ENDMDL
