MODEL 1
REMARK VINA RESULT:      -9.0      0.000      0.000
REMARK  5 active torsions:
REMARK  status: ('A' for Active; 'I' for Inactive)
REMARK    1  A    between atoms: C_5  and  C_6 
REMARK    2  A    between atoms: C_11  and  C_12 
REMARK       I    between atoms: C_12  and  N_13 
REMARK    3  A    between atoms: N_13  and  C_14 
REMARK    4  A    between atoms: C_16  and  O_17 
REMARK    5  A    between atoms: C_23  and  C_24 
ROOT
HETATM    1  C   UNL     1     -43.487  54.858 -53.962  1.00  0.00     0.118 C 
HETATM    2  N   UNL     1     -43.562  54.937 -55.416  1.00  0.00    -0.366 N 
HETATM    3  C   UNL     1     -43.099  56.003 -56.101  1.00  0.00     0.123 A 
HETATM    4  N   UNL     1     -42.698  57.148 -55.472  1.00  0.00    -0.240 N 
HETATM    5  N   UNL     1     -42.331  58.133 -56.315  1.00  0.00    -0.165 NA
HETATM    6  C   UNL     1     -42.410  57.549 -57.534  1.00  0.00     0.148 A 
HETATM    7  C   UNL     1     -42.907  56.221 -57.438  1.00  0.00     0.089 A 
HETATM    8  C   UNL     1     -42.685  57.328 -54.033  1.00  0.00     0.221 C 
HETATM    9  C   UNL     1     -43.557  56.264 -53.338  1.00  0.00     0.066 C 
HETATM   10  H   UNL     1     -43.706  54.043 -55.886  1.00  0.00     0.161 HD
ENDROOT
BRANCH   6  11
HETATM   11  C   UNL     1     -42.012  58.248 -58.770  1.00  0.00     0.276 C 
HETATM   12  N   UNL     1     -42.007  59.619 -58.608  1.00  0.00    -0.322 N 
HETATM   13  H   UNL     1     -42.315  59.921 -57.686  1.00  0.00     0.169 HD
HETATM   14  O   UNL     1     -41.731  57.629 -59.790  1.00  0.00    -0.266 OA
BRANCH  12  15
HETATM   15  C   UNL     1     -41.632  60.605 -59.539  1.00  0.00     0.037 A 
HETATM   16  C   UNL     1     -41.924  60.532 -60.903  1.00  0.00     0.066 A 
HETATM   17  C   UNL     1     -41.499  61.548 -61.758  1.00  0.00     0.067 A 
HETATM   18  C   UNL     1     -40.794  62.643 -61.276  1.00  0.00     0.036 A 
HETATM   19  C   UNL     1     -40.501  62.724 -59.917  1.00  0.00     0.005 A 
HETATM   20  C   UNL     1     -40.915  61.706 -59.054  1.00  0.00     0.029 A 
BRANCH  17  21
HETATM   21  O   UNL     1     -41.756  61.499 -63.098  1.00  0.00    -0.361 OA
HETATM   22  H   UNL     1     -42.622  61.911 -63.258  1.00  0.00     0.217 HD
ENDBRANCH  17  21
ENDBRANCH  12  15
ENDBRANCH   6  11
BRANCH   8  23
HETATM   23  C   UNL     1     -41.262  57.378 -53.523  1.00  0.00     0.409 C 
HETATM   24  F   UNL     1     -40.671  58.579 -53.662  1.00  0.00    -0.169 F 
HETATM   25  F   UNL     1     -41.187  57.042 -52.213  1.00  0.00    -0.169 F 
HETATM   26  F   UNL     1     -40.496  56.473 -54.185  1.00  0.00    -0.169 F 
ENDBRANCH   8  23
BRANCH   1  27
HETATM   27  C   UNL     1     -42.339  53.990 -53.478  1.00  0.00    -0.035 A 
HETATM   28  C   UNL     1     -41.559  53.201 -54.337  1.00  0.00     0.010 A 
HETATM   29  C   UNL     1     -40.529  52.395 -53.842  1.00  0.00     0.007 A 
HETATM   30  C   UNL     1     -40.260  52.347 -52.473  1.00  0.00    -0.062 A 
HETATM   31  C   UNL     1     -39.163  51.479 -51.933  1.00  0.00     0.048 C 
HETATM   32  C   UNL     1     -41.031  53.125 -51.606  1.00  0.00     0.007 A 
HETATM   33  C   UNL     1     -42.056  53.937 -52.102  1.00  0.00     0.010 A 
ENDBRANCH   1  27
TORSDOF 5
ENDMDL
MODEL 2
REMARK VINA RESULT:      -8.8      5.788      8.317
REMARK  5 active torsions:
REMARK  status: ('A' for Active; 'I' for Inactive)
REMARK    1  A    between atoms: C_5  and  C_6 
REMARK    2  A    between atoms: C_11  and  C_12 
REMARK       I    between atoms: C_12  and  N_13 
REMARK    3  A    between atoms: N_13  and  C_14 
REMARK    4  A    between atoms: C_16  and  O_17 
REMARK    5  A    between atoms: C_23  and  C_24 
ROOT
HETATM    1  C   UNL     1     -40.929  57.296 -53.857  1.00  0.00     0.118 C 
HETATM    2  N   UNL     1     -41.166  57.878 -52.541  1.00  0.00    -0.366 N 
HETATM    3  C   UNL     1     -42.390  58.288 -52.148  1.00  0.00     0.123 A 
HETATM    4  N   UNL     1     -43.443  58.353 -53.016  1.00  0.00    -0.240 N 
HETATM    5  N   UNL     1     -44.570  58.849 -52.468  1.00  0.00    -0.165 NA
HETATM    6  C   UNL     1     -44.241  59.014 -51.165  1.00  0.00     0.148 A 
HETATM    7  C   UNL     1     -42.876  58.691 -50.934  1.00  0.00     0.089 A 
HETATM    8  C   UNL     1     -43.379  57.959 -54.410  1.00  0.00     0.221 C 
HETATM    9  C   UNL     1     -41.917  57.871 -54.889  1.00  0.00     0.066 C 
HETATM   10  H   UNL     1     -40.439  57.686 -51.851  1.00  0.00     0.161 HD
ENDROOT
BRANCH   6  11
HETATM   11  C   UNL     1     -45.216  59.469 -50.157  1.00  0.00     0.276 C 
HETATM   12  N   UNL     1     -44.707  60.478 -49.365  1.00  0.00    -0.322 N 
HETATM   13  H   UNL     1     -43.739  60.712 -49.577  1.00  0.00     0.169 HD
HETATM   14  O   UNL     1     -46.333  58.969 -50.080  1.00  0.00    -0.266 OA
BRANCH  12  15
HETATM   15  C   UNL     1     -45.355  61.194 -48.342  1.00  0.00     0.037 A 
HETATM   16  C   UNL     1     -46.483  61.990 -48.551  1.00  0.00     0.066 A 
HETATM   17  C   UNL     1     -47.053  62.679 -47.480  1.00  0.00     0.067 A 
HETATM   18  C   UNL     1     -46.521  62.582 -46.200  1.00  0.00     0.036 A 
HETATM   19  C   UNL     1     -45.398  61.788 -45.985  1.00  0.00     0.005 A 
HETATM   20  C   UNL     1     -44.815  61.101 -47.053  1.00  0.00     0.029 A 
BRANCH  17  21
HETATM   21  O   UNL     1     -48.146  63.477 -47.654  1.00  0.00    -0.361 OA
HETATM   22  H   UNL     1     -48.469  63.358 -48.563  1.00  0.00     0.217 HD
ENDBRANCH  17  21
ENDBRANCH  12  15
ENDBRANCH   6  11
BRANCH   8  23
HETATM   23  C   UNL     1     -44.174  56.692 -54.635  1.00  0.00     0.409 C 
HETATM   24  F   UNL     1     -45.482  56.899 -54.866  1.00  0.00    -0.169 F 
HETATM   25  F   UNL     1     -43.688  55.976 -55.678  1.00  0.00    -0.169 F 
HETATM   26  F   UNL     1     -44.079  55.882 -53.549  1.00  0.00    -0.169 F 
ENDBRANCH   8  23
BRANCH   1  27
HETATM   27  C   UNL     1     -40.834  55.781 -53.824  1.00  0.00    -0.035 A 
HETATM   28  C   UNL     1     -41.072  55.023 -52.667  1.00  0.00     0.010 A 
HETATM   29  C   UNL     1     -40.945  53.631 -52.676  1.00  0.00     0.007 A 
HETATM   30  C   UNL     1     -40.563  52.961 -53.840  1.00  0.00    -0.062 A 
HETATM   31  C   UNL     1     -40.415  51.468 -53.857  1.00  0.00     0.048 C 
HETATM   32  C   UNL     1     -40.319  53.703 -54.998  1.00  0.00     0.007 A 
HETATM   33  C   UNL     1     -40.454  55.096 -54.990  1.00  0.00     0.010 A 
ENDBRANCH   1  27
TORSDOF 5
ENDMDL
MODEL 3
REMARK VINA RESULT:      -8.6      5.256      7.591
REMARK  5 active torsions:
REMARK  status: ('A' for Active; 'I' for Inactive)
REMARK    1  A    between atoms: C_5  and  C_6 
REMARK    2  A    between atoms: C_11  and  C_12 
REMARK       I    between atoms: C_12  and  N_13 
REMARK    3  A    between atoms: N_13  and  C_14 
REMARK    4  A    between atoms: C_16  and  O_17 
REMARK    5  A    between atoms: C_23  and  C_24 
ROOT
HETATM    1  C   UNL     1     -40.609  55.690 -54.165  1.00  0.00     0.118 C 
HETATM    2  N   UNL     1     -40.799  56.621 -53.059  1.00  0.00    -0.366 N 
HETATM    3  C   UNL     1     -42.021  57.069 -52.700  1.00  0.00     0.123 A 
HETATM    4  N   UNL     1     -43.131  56.824 -53.459  1.00  0.00    -0.240 N 
HETATM    5  N   UNL     1     -44.251  57.405 -52.986  1.00  0.00    -0.165 NA
HETATM    6  C   UNL     1     -43.849  57.961 -51.819  1.00  0.00     0.148 A 
HETATM    7  C   UNL     1     -42.453  57.787 -51.619  1.00  0.00     0.089 A 
HETATM    8  C   UNL     1     -43.131  56.042 -54.679  1.00  0.00     0.221 C 
HETATM    9  C   UNL     1     -41.701  55.887 -55.233  1.00  0.00     0.066 C 
HETATM   10  H   UNL     1     -40.017  56.676 -52.407  1.00  0.00     0.161 HD
ENDROOT
BRANCH   6  11
HETATM   11  C   UNL     1     -44.785  58.645 -50.908  1.00  0.00     0.276 C 
HETATM   12  N   UNL     1     -44.344  59.907 -50.566  1.00  0.00    -0.322 N 
HETATM   13  H   UNL     1     -43.436  60.141 -50.961  1.00  0.00     0.169 HD
HETATM   14  O   UNL     1     -45.819  58.103 -50.532  1.00  0.00    -0.266 OA
BRANCH  12  15
HETATM   15  C   UNL     1     -44.989  60.870 -49.768  1.00  0.00     0.037 A 
HETATM   16  C   UNL     1     -44.660  61.116 -48.434  1.00  0.00     0.066 A 
HETATM   17  C   UNL     1     -45.364  62.079 -47.712  1.00  0.00     0.067 A 
HETATM   18  C   UNL     1     -46.389  62.809 -48.301  1.00  0.00     0.036 A 
HETATM   19  C   UNL     1     -46.721  62.571 -49.632  1.00  0.00     0.005 A 
HETATM   20  C   UNL     1     -46.027  61.601 -50.361  1.00  0.00     0.029 A 
BRANCH  17  21
HETATM   21  O   UNL     1     -45.076  62.333 -46.403  1.00  0.00    -0.361 OA
HETATM   22  H   UNL     1     -45.613  63.090 -46.114  1.00  0.00     0.217 HD
ENDBRANCH  17  21
ENDBRANCH  12  15
ENDBRANCH   6  11
BRANCH   8  23
HETATM   23  C   UNL     1     -43.847  54.727 -54.460  1.00  0.00     0.409 C 
HETATM   24  F   UNL     1     -45.188  54.818 -54.506  1.00  0.00    -0.169 F 
HETATM   25  F   UNL     1     -43.474  53.796 -55.371  1.00  0.00    -0.169 F 
HETATM   26  F   UNL     1     -43.519  54.213 -53.246  1.00  0.00    -0.169 F 
ENDBRANCH   8  23
BRANCH   1  27
HETATM   27  C   UNL     1     -40.405  54.259 -53.703  1.00  0.00    -0.035 A 
HETATM   28  C   UNL     1     -40.344  53.891 -52.349  1.00  0.00     0.010 A 
HETATM   29  C   UNL     1     -40.125  52.563 -51.970  1.00  0.00     0.007 A 
HETATM   30  C   UNL     1     -39.949  51.569 -52.934  1.00  0.00    -0.062 A 
HETATM   31  C   UNL     1     -39.705  50.144 -52.536  1.00  0.00     0.048 C 
HETATM   32  C   UNL     1     -40.004  51.922 -54.285  1.00  0.00     0.007 A 
HETATM   33  C   UNL     1     -40.230  53.249 -54.664  1.00  0.00     0.010 A 
ENDBRANCH   1  27
TORSDOF 5
ENDMDL
MODEL 4
REMARK VINA RESULT:      -8.6      3.290      8.853
REMARK  5 active torsions:
REMARK  status: ('A' for Active; 'I' for Inactive)
REMARK    1  A    between atoms: C_5  and  C_6 
REMARK    2  A    between atoms: C_11  and  C_12 
REMARK       I    between atoms: C_12  and  N_13 
REMARK    3  A    between atoms: N_13  and  C_14 
REMARK    4  A    between atoms: C_16  and  O_17 
REMARK    5  A    between atoms: C_23  and  C_24 
ROOT
HETATM    1  C   UNL     1     -43.916  60.013 -58.957  1.00  0.00     0.118 C 
HETATM    2  N   UNL     1     -44.071  59.586 -57.571  1.00  0.00    -0.366 N 
HETATM    3  C   UNL     1     -43.758  58.337 -57.166  1.00  0.00     0.123 A 
HETATM    4  N   UNL     1     -43.452  57.345 -58.055  1.00  0.00    -0.240 N 
HETATM    5  N   UNL     1     -43.234  56.146 -57.479  1.00  0.00    -0.165 NA
HETATM    6  C   UNL     1     -43.309  56.415 -56.155  1.00  0.00     0.148 A 
HETATM    7  C   UNL     1     -43.656  57.774 -55.924  1.00  0.00     0.089 A 
HETATM    8  C   UNL     1     -43.388  57.526 -59.492  1.00  0.00     0.221 C 
HETATM    9  C   UNL     1     -44.107  58.822 -59.915  1.00  0.00     0.066 C 
HETATM   10  H   UNL     1     -44.141  60.346 -56.894  1.00  0.00     0.161 HD
ENDROOT
BRANCH   6  11
HETATM   11  C   UNL     1     -43.049  55.391 -55.126  1.00  0.00     0.276 C 
HETATM   12  N   UNL     1     -41.721  55.014 -55.097  1.00  0.00    -0.322 N 
HETATM   13  H   UNL     1     -41.154  55.470 -55.809  1.00  0.00     0.169 HD
HETATM   14  O   UNL     1     -43.948  54.963 -54.412  1.00  0.00    -0.266 OA
BRANCH  12  15
HETATM   15  C   UNL     1     -41.091  54.111 -54.222  1.00  0.00     0.037 A 
HETATM   16  C   UNL     1     -40.585  52.872 -54.622  1.00  0.00     0.066 A 
HETATM   17  C   UNL     1     -39.989  52.031 -53.682  1.00  0.00     0.067 A 
HETATM   18  C   UNL     1     -39.880  52.408 -52.349  1.00  0.00     0.036 A 
HETATM   19  C   UNL     1     -40.379  53.643 -51.945  1.00  0.00     0.005 A 
HETATM   20  C   UNL     1     -40.987  54.489 -52.877  1.00  0.00     0.029 A 
BRANCH  17  21
HETATM   21  O   UNL     1     -39.499  50.808 -54.037  1.00  0.00    -0.361 OA
HETATM   22  H   UNL     1     -40.097  50.127 -53.687  1.00  0.00     0.217 HD
ENDBRANCH  17  21
ENDBRANCH  12  15
ENDBRANCH   6  11
BRANCH   8  23
HETATM   23  C   UNL     1     -41.956  57.439 -59.970  1.00  0.00     0.409 C 
HETATM   24  F   UNL     1     -41.558  56.194 -60.289  1.00  0.00    -0.169 F 
HETATM   25  F   UNL     1     -41.741  58.221 -61.055  1.00  0.00    -0.169 F 
HETATM   26  F   UNL     1     -41.114  57.896 -59.007  1.00  0.00    -0.169 F 
ENDBRANCH   8  23
BRANCH   1  27
HETATM   27  C   UNL     1     -42.660  60.834 -59.184  1.00  0.00    -0.035 A 
HETATM   28  C   UNL     1     -41.738  61.123 -58.166  1.00  0.00     0.010 A 
HETATM   29  C   UNL     1     -40.609  61.908 -58.415  1.00  0.00     0.007 A 
HETATM   30  C   UNL     1     -40.377  62.436 -59.687  1.00  0.00    -0.062 A 
HETATM   31  C   UNL     1     -39.173  63.287 -59.961  1.00  0.00     0.048 C 
HETATM   32  C   UNL     1     -41.289  62.159 -60.709  1.00  0.00     0.007 A 
HETATM   33  C   UNL     1     -42.415  61.368 -60.461  1.00  0.00     0.010 A 
ENDBRANCH   1  27
TORSDOF 5
ENDMDL
MODEL 5
REMARK VINA RESULT:      -8.4      1.560      1.863
REMARK  5 active torsions:
REMARK  status: ('A' for Active; 'I' for Inactive)
REMARK    1  A    between atoms: C_5  and  C_6 
REMARK    2  A    between atoms: C_11  and  C_12 
REMARK       I    between atoms: C_12  and  N_13 
REMARK    3  A    between atoms: N_13  and  C_14 
REMARK    4  A    between atoms: C_16  and  O_17 
REMARK    5  A    between atoms: C_23  and  C_24 
ROOT
HETATM    1  C   UNL     1     -43.630  55.164 -52.695  1.00  0.00     0.118 C 
HETATM    2  N   UNL     1     -44.159  55.635 -53.970  1.00  0.00    -0.366 N 
HETATM    3  C   UNL     1     -43.825  56.838 -54.484  1.00  0.00     0.123 A 
HETATM    4  N   UNL     1     -43.119  57.760 -53.764  1.00  0.00    -0.240 N 
HETATM    5  N   UNL     1     -42.934  58.929 -54.409  1.00  0.00    -0.165 NA
HETATM    6  C   UNL     1     -43.464  58.699 -55.634  1.00  0.00     0.148 A 
HETATM    7  C   UNL     1     -44.048  57.406 -55.708  1.00  0.00     0.089 A 
HETATM    8  C   UNL     1     -42.625  57.543 -52.418  1.00  0.00     0.221 C 
HETATM    9  C   UNL     1     -43.341  56.349 -51.756  1.00  0.00     0.066 C 
HETATM   10  H   UNL     1     -44.544  54.906 -54.570  1.00  0.00     0.161 HD
ENDROOT
BRANCH   6  11
HETATM   11  C   UNL     1     -43.408  59.698 -56.717  1.00  0.00     0.276 C 
HETATM   12  N   UNL     1     -42.192  59.684 -57.370  1.00  0.00    -0.322 N 
HETATM   13  H   UNL     1     -41.527  59.023 -56.976  1.00  0.00     0.169 HD
HETATM   14  O   UNL     1     -44.363  60.428 -56.960  1.00  0.00    -0.266 OA
BRANCH  12  15
HETATM   15  C   UNL     1     -41.791  60.449 -58.481  1.00  0.00     0.037 A 
HETATM   16  C   UNL     1     -42.038  60.079 -59.805  1.00  0.00     0.066 A 
HETATM   17  C   UNL     1     -41.590  60.890 -60.846  1.00  0.00     0.067 A 
HETATM   18  C   UNL     1     -40.904  62.071 -60.591  1.00  0.00     0.036 A 
HETATM   19  C   UNL     1     -40.656  62.447 -59.274  1.00  0.00     0.005 A 
HETATM   20  C   UNL     1     -41.094  61.636 -58.223  1.00  0.00     0.029 A 
BRANCH  17  21
HETATM   21  O   UNL     1     -41.803  60.550 -62.150  1.00  0.00    -0.361 OA
HETATM   22  H   UNL     1     -41.856  61.367 -62.674  1.00  0.00     0.217 HD
ENDBRANCH  17  21
ENDBRANCH  12  15
ENDBRANCH   6  11
BRANCH   8  23
HETATM   23  C   UNL     1     -41.117  57.424 -52.424  1.00  0.00     0.409 C 
HETATM   24  F   UNL     1     -40.473  58.604 -52.437  1.00  0.00    -0.169 F 
HETATM   25  F   UNL     1     -40.666  56.729 -51.352  1.00  0.00    -0.169 F 
HETATM   26  F   UNL     1     -40.708  56.730 -53.518  1.00  0.00    -0.169 F 
ENDBRANCH   8  23
BRANCH   1  27
HETATM   27  C   UNL     1     -42.492  54.173 -52.860  1.00  0.00    -0.035 A 
HETATM   28  C   UNL     1     -41.689  53.743 -51.792  1.00  0.00     0.010 A 
HETATM   29  C   UNL     1     -40.632  52.851 -51.996  1.00  0.00     0.007 A 
HETATM   30  C   UNL     1     -40.342  52.375 -53.276  1.00  0.00    -0.062 A 
HETATM   31  C   UNL     1     -39.204  51.424 -53.505  1.00  0.00     0.048 C 
HETATM   32  C   UNL     1     -41.131  52.797 -54.348  1.00  0.00     0.007 A 
HETATM   33  C   UNL     1     -42.193  53.684 -54.143  1.00  0.00     0.010 A 
ENDBRANCH   1  27
TORSDOF 5
ENDMDL
MODEL 6
REMARK VINA RESULT:      -8.1      3.928      8.953
REMARK  5 active torsions:
REMARK  status: ('A' for Active; 'I' for Inactive)
REMARK    1  A    between atoms: C_5  and  C_6 
REMARK    2  A    between atoms: C_11  and  C_12 
REMARK       I    between atoms: C_12  and  N_13 
REMARK    3  A    between atoms: N_13  and  C_14 
REMARK    4  A    between atoms: C_16  and  O_17 
REMARK    5  A    between atoms: C_23  and  C_24 
ROOT
HETATM    1  C   UNL     1     -43.229  58.154 -58.602  1.00  0.00     0.118 C 
HETATM    2  N   UNL     1     -42.545  56.934 -58.188  1.00  0.00    -0.366 N 
HETATM    3  C   UNL     1     -42.590  56.482 -56.917  1.00  0.00     0.123 A 
HETATM    4  N   UNL     1     -43.122  57.229 -55.904  1.00  0.00    -0.240 N 
HETATM    5  N   UNL     1     -43.021  56.651 -54.691  1.00  0.00    -0.165 NA
HETATM    6  C   UNL     1     -42.487  55.438 -54.964  1.00  0.00     0.148 A 
HETATM    7  C   UNL     1     -42.186  55.306 -56.347  1.00  0.00     0.089 A 
HETATM    8  C   UNL     1     -43.721  58.538 -56.081  1.00  0.00     0.221 C 
HETATM    9  C   UNL     1     -43.310  59.152 -57.433  1.00  0.00     0.066 C 
HETATM   10  H   UNL     1     -42.292  56.305 -58.951  1.00  0.00     0.161 HD
ENDROOT
BRANCH   6  11
HETATM   11  C   UNL     1     -42.273  54.418 -53.921  1.00  0.00     0.276 C 
HETATM   12  N   UNL     1     -41.144  53.660 -54.163  1.00  0.00    -0.322 N 
HETATM   13  H   UNL     1     -40.674  53.900 -55.034  1.00  0.00     0.169 HD
HETATM   14  O   UNL     1     -43.041  54.305 -52.972  1.00  0.00    -0.266 OA
BRANCH  12  15
HETATM   15  C   UNL     1     -40.593  52.640 -53.368  1.00  0.00     0.037 A 
HETATM   16  C   UNL     1     -40.230  51.385 -53.862  1.00  0.00     0.066 A 
HETATM   17  C   UNL     1     -39.704  50.425 -52.997  1.00  0.00     0.067 A 
HETATM   18  C   UNL     1     -39.525  50.698 -51.647  1.00  0.00     0.036 A 
HETATM   19  C   UNL     1     -39.882  51.948 -51.148  1.00  0.00     0.005 A 
HETATM   20  C   UNL     1     -40.418  52.913 -52.005  1.00  0.00     0.029 A 
BRANCH  17  21
HETATM   21  O   UNL     1     -39.354  49.185 -53.445  1.00  0.00    -0.361 OA
HETATM   22  H   UNL     1     -38.775  49.293 -54.219  1.00  0.00     0.217 HD
ENDBRANCH  17  21
ENDBRANCH  12  15
ENDBRANCH   6  11
BRANCH   8  23
HETATM   23  C   UNL     1     -45.218  58.463 -55.874  1.00  0.00     0.409 C 
HETATM   24  F   UNL     1     -45.776  57.321 -56.314  1.00  0.00    -0.169 F 
HETATM   25  F   UNL     1     -45.550  58.596 -54.567  1.00  0.00    -0.169 F 
HETATM   26  F   UNL     1     -45.831  59.487 -56.522  1.00  0.00    -0.169 F 
ENDBRANCH   8  23
BRANCH   1  27
HETATM   27  C   UNL     1     -44.541  57.881 -59.316  1.00  0.00    -0.035 A 
HETATM   28  C   UNL     1     -45.033  56.587 -59.548  1.00  0.00     0.010 A 
HETATM   29  C   UNL     1     -46.234  56.384 -60.235  1.00  0.00     0.007 A 
HETATM   30  C   UNL     1     -46.968  57.468 -60.719  1.00  0.00    -0.062 A 
HETATM   31  C   UNL     1     -48.252  57.259 -61.465  1.00  0.00     0.048 C 
HETATM   32  C   UNL     1     -46.487  58.761 -60.498  1.00  0.00     0.007 A 
HETATM   33  C   UNL     1     -45.290  58.965 -59.804  1.00  0.00     0.010 A 
ENDBRANCH   1  27
TORSDOF 5
ENDMDL
MODEL 7
REMARK VINA RESULT:      -8.0     17.061     20.259
REMARK  5 active torsions:
REMARK  status: ('A' for Active; 'I' for Inactive)
REMARK    1  A    between atoms: C_5  and  C_6 
REMARK    2  A    between atoms: C_11  and  C_12 
REMARK       I    between atoms: C_12  and  N_13 
REMARK    3  A    between atoms: N_13  and  C_14 
REMARK    4  A    between atoms: C_16  and  O_17 
REMARK    5  A    between atoms: C_23  and  C_24 
ROOT
HETATM    1  C   UNL     1     -35.587  41.901 -57.325  1.00  0.00     0.118 C 
HETATM    2  N   UNL     1     -34.303  41.450 -56.802  1.00  0.00    -0.366 N 
HETATM    3  C   UNL     1     -34.145  41.070 -55.517  1.00  0.00     0.123 A 
HETATM    4  N   UNL     1     -35.125  41.255 -54.584  1.00  0.00    -0.240 N 
HETATM    5  N   UNL     1     -34.770  40.880 -53.339  1.00  0.00    -0.165 NA
HETATM    6  C   UNL     1     -33.540  40.341 -53.512  1.00  0.00     0.148 A 
HETATM    7  C   UNL     1     -33.109  40.462 -54.861  1.00  0.00     0.089 A 
HETATM    8  C   UNL     1     -36.428  41.825 -54.868  1.00  0.00     0.221 C 
HETATM    9  C   UNL     1     -36.417  42.573 -56.216  1.00  0.00     0.066 C 
HETATM   10  H   UNL     1     -33.629  41.163 -57.512  1.00  0.00     0.161 HD
ENDROOT
BRANCH   6  11
HETATM   11  C   UNL     1     -32.790  39.717 -52.406  1.00  0.00     0.276 C 
HETATM   12  N   UNL     1     -33.347  40.006 -51.177  1.00  0.00    -0.322 N 
HETATM   13  H   UNL     1     -34.150  40.629 -51.231  1.00  0.00     0.169 HD
HETATM   14  O   UNL     1     -31.796  39.031 -52.618  1.00  0.00    -0.266 OA
BRANCH  12  15
HETATM   15  C   UNL     1     -32.946  39.548 -49.909  1.00  0.00     0.037 A 
HETATM   16  C   UNL     1     -31.833  40.041 -49.224  1.00  0.00     0.066 A 
HETATM   17  C   UNL     1     -31.499  39.515 -47.976  1.00  0.00     0.067 A 
HETATM   18  C   UNL     1     -32.261  38.511 -47.393  1.00  0.00     0.036 A 
HETATM   19  C   UNL     1     -33.373  38.016 -48.069  1.00  0.00     0.005 A 
HETATM   20  C   UNL     1     -33.710  38.530 -49.325  1.00  0.00     0.029 A 
BRANCH  17  21
HETATM   21  O   UNL     1     -30.410  39.965 -47.288  1.00  0.00    -0.361 OA
HETATM   22  H   UNL     1     -30.007  40.690 -47.795  1.00  0.00     0.217 HD
ENDBRANCH  17  21
ENDBRANCH  12  15
ENDBRANCH   6  11
BRANCH   8  23
HETATM   23  C   UNL     1     -37.500  40.763 -54.767  1.00  0.00     0.409 C 
HETATM   24  F   UNL     1     -37.103  39.543 -55.168  1.00  0.00    -0.169 F 
HETATM   25  F   UNL     1     -37.965  40.640 -53.500  1.00  0.00    -0.169 F 
HETATM   26  F   UNL     1     -38.572  41.108 -55.526  1.00  0.00    -0.169 F 
ENDBRANCH   8  23
BRANCH   1  27
HETATM   27  C   UNL     1     -36.311  40.827 -58.117  1.00  0.00    -0.035 A 
HETATM   28  C   UNL     1     -35.761  39.562 -58.375  1.00  0.00     0.010 A 
HETATM   29  C   UNL     1     -36.453  38.614 -59.135  1.00  0.00     0.007 A 
HETATM   30  C   UNL     1     -37.709  38.911 -59.667  1.00  0.00    -0.062 A 
HETATM   31  C   UNL     1     -38.455  37.903 -60.490  1.00  0.00     0.048 C 
HETATM   32  C   UNL     1     -38.267  40.167 -59.421  1.00  0.00     0.007 A 
HETATM   33  C   UNL     1     -37.578  41.113 -58.655  1.00  0.00     0.010 A 
ENDBRANCH   1  27
TORSDOF 5
ENDMDL
MODEL 8
REMARK VINA RESULT:      -8.0     16.806     18.495
REMARK  5 active torsions:
REMARK  status: ('A' for Active; 'I' for Inactive)
REMARK    1  A    between atoms: C_5  and  C_6 
REMARK    2  A    between atoms: C_11  and  C_12 
REMARK       I    between atoms: C_12  and  N_13 
REMARK    3  A    between atoms: N_13  and  C_14 
REMARK    4  A    between atoms: C_16  and  O_17 
REMARK    5  A    between atoms: C_23  and  C_24 
ROOT
HETATM    1  C   UNL     1     -35.739  41.828 -52.751  1.00  0.00     0.118 C 
HETATM    2  N   UNL     1     -36.606  42.307 -53.822  1.00  0.00    -0.366 N 
HETATM    3  C   UNL     1     -36.515  41.836 -55.083  1.00  0.00     0.123 A 
HETATM    4  N   UNL     1     -35.492  41.020 -55.477  1.00  0.00    -0.240 N 
HETATM    5  N   UNL     1     -35.522  40.703 -56.787  1.00  0.00    -0.165 NA
HETATM    6  C   UNL     1     -36.675  41.266 -57.220  1.00  0.00     0.148 A 
HETATM    7  C   UNL     1     -37.312  42.000 -56.183  1.00  0.00     0.089 A 
HETATM    8  C   UNL     1     -34.440  40.545 -54.600  1.00  0.00     0.221 C 
HETATM    9  C   UNL     1     -34.374  41.393 -53.314  1.00  0.00     0.066 C 
HETATM   10  H   UNL     1     -37.453  42.780 -53.507  1.00  0.00     0.161 HD
ENDROOT
BRANCH   6  11
HETATM   11  C   UNL     1     -37.162  41.100 -58.602  1.00  0.00     0.276 C 
HETATM   12  N   UNL     1     -37.347  39.772 -58.929  1.00  0.00    -0.322 N 
HETATM   13  H   UNL     1     -37.082  39.130 -58.185  1.00  0.00     0.169 HD
HETATM   14  O   UNL     1     -37.360  42.068 -59.328  1.00  0.00    -0.266 OA
BRANCH  12  15
HETATM   15  C   UNL     1     -37.849  39.231 -60.126  1.00  0.00     0.037 A 
HETATM   16  C   UNL     1     -37.235  39.400 -61.369  1.00  0.00     0.066 A 
HETATM   17  C   UNL     1     -37.811  38.841 -62.509  1.00  0.00     0.067 A 
HETATM   18  C   UNL     1     -38.988  38.107 -62.431  1.00  0.00     0.036 A 
HETATM   19  C   UNL     1     -39.605  37.932 -61.196  1.00  0.00     0.005 A 
HETATM   20  C   UNL     1     -39.039  38.496 -60.048  1.00  0.00     0.029 A 
BRANCH  17  21
HETATM   21  O   UNL     1     -37.244  39.001 -63.740  1.00  0.00    -0.361 OA
HETATM   22  H   UNL     1     -37.946  38.939 -64.410  1.00  0.00     0.217 HD
ENDBRANCH  17  21
ENDBRANCH  12  15
ENDBRANCH   6  11
BRANCH   8  23
HETATM   23  C   UNL     1     -34.597  39.062 -54.346  1.00  0.00     0.409 C 
HETATM   24  F   UNL     1     -35.870  38.630 -54.386  1.00  0.00    -0.169 F 
HETATM   25  F   UNL     1     -33.892  38.325 -55.237  1.00  0.00    -0.169 F 
HETATM   26  F   UNL     1     -34.101  38.743 -53.122  1.00  0.00    -0.169 F 
ENDBRANCH   8  23
BRANCH   1  27
HETATM   27  C   UNL     1     -36.421  40.816 -51.848  1.00  0.00    -0.035 A 
HETATM   28  C   UNL     1     -37.671  40.247 -52.140  1.00  0.00     0.010 A 
HETATM   29  C   UNL     1     -38.275  39.340 -51.264  1.00  0.00     0.007 A 
HETATM   30  C   UNL     1     -37.650  38.987 -50.066  1.00  0.00    -0.062 A 
HETATM   31  C   UNL     1     -38.294  38.021 -49.117  1.00  0.00     0.048 C 
HETATM   32  C   UNL     1     -36.407  39.548 -49.762  1.00  0.00     0.007 A 
HETATM   33  C   UNL     1     -35.800  40.450 -50.642  1.00  0.00     0.010 A 
ENDBRANCH   1  27
TORSDOF 5
ENDMDL
MODEL 9
REMARK VINA RESULT:      -7.9     17.110     18.817
REMARK  5 active torsions:
REMARK  status: ('A' for Active; 'I' for Inactive)
REMARK    1  A    between atoms: C_5  and  C_6 
REMARK    2  A    between atoms: C_11  and  C_12 
REMARK       I    between atoms: C_12  and  N_13 
REMARK    3  A    between atoms: N_13  and  C_14 
REMARK    4  A    between atoms: C_16  and  O_17 
REMARK    5  A    between atoms: C_23  and  C_24 
ROOT
HETATM    1  C   UNL     1     -36.128  42.245 -54.294  1.00  0.00     0.118 C 
HETATM    2  N   UNL     1     -37.246  41.567 -54.939  1.00  0.00    -0.366 N 
HETATM    3  C   UNL     1     -37.092  40.849 -56.072  1.00  0.00     0.123 A 
HETATM    4  N   UNL     1     -35.924  40.862 -56.782  1.00  0.00    -0.240 N 
HETATM    5  N   UNL     1     -35.972  40.143 -57.921  1.00  0.00    -0.165 NA
HETATM    6  C   UNL     1     -37.198  39.569 -57.879  1.00  0.00     0.148 A 
HETATM    7  C   UNL     1     -37.933  40.006 -56.744  1.00  0.00     0.089 A 
HETATM    8  C   UNL     1     -34.736  41.593 -56.388  1.00  0.00     0.221 C 
HETATM    9  C   UNL     1     -35.075  42.666 -55.336  1.00  0.00     0.066 C 
HETATM   10  H   UNL     1     -38.061  41.423 -54.343  1.00  0.00     0.161 HD
ENDROOT
BRANCH   6  11
HETATM   11  C   UNL     1     -37.656  38.614 -58.905  1.00  0.00     0.276 C 
HETATM   12  N   UNL     1     -38.787  39.062 -59.559  1.00  0.00    -0.322 N 
HETATM   13  H   UNL     1     -39.138  39.948 -59.201  1.00  0.00     0.169 HD
HETATM   14  O   UNL     1     -37.061  37.562 -59.108  1.00  0.00    -0.266 OA
BRANCH  12  15
HETATM   15  C   UNL     1     -39.474  38.456 -60.626  1.00  0.00     0.037 A 
HETATM   16  C   UNL     1     -38.886  38.163 -61.858  1.00  0.00     0.066 A 
HETATM   17  C   UNL     1     -39.649  37.575 -62.867  1.00  0.00     0.067 A 
HETATM   18  C   UNL     1     -40.988  37.265 -62.666  1.00  0.00     0.036 A 
HETATM   19  C   UNL     1     -41.580  37.552 -61.440  1.00  0.00     0.005 A 
HETATM   20  C   UNL     1     -40.826  38.150 -60.425  1.00  0.00     0.029 A 
BRANCH  17  21
HETATM   21  O   UNL     1     -39.108  37.290 -64.087  1.00  0.00    -0.361 OA
HETATM   22  H   UNL     1     -38.139  37.306 -64.003  1.00  0.00     0.217 HD
ENDBRANCH  17  21
ENDBRANCH  12  15
ENDBRANCH   6  11
BRANCH   8  23
HETATM   23  C   UNL     1     -33.649  40.635 -55.954  1.00  0.00     0.409 C 
HETATM   24  F   UNL     1     -32.923  41.066 -54.907  1.00  0.00    -0.169 F 
HETATM   25  F   UNL     1     -34.153  39.422 -55.623  1.00  0.00    -0.169 F 
HETATM   26  F   UNL     1     -32.785  40.413 -56.979  1.00  0.00    -0.169 F 
ENDBRANCH   8  23
BRANCH   1  27
HETATM   27  C   UNL     1     -35.588  41.483 -53.097  1.00  0.00    -0.035 A 
HETATM   28  C   UNL     1     -35.776  40.104 -52.917  1.00  0.00     0.010 A 
HETATM   29  C   UNL     1     -35.285  39.448 -51.784  1.00  0.00     0.007 A 
HETATM   30  C   UNL     1     -34.602  40.158 -50.794  1.00  0.00    -0.062 A 
HETATM   31  C   UNL     1     -34.079  39.465 -49.571  1.00  0.00     0.048 C 
HETATM   32  C   UNL     1     -34.410  41.531 -50.959  1.00  0.00     0.007 A 
HETATM   33  C   UNL     1     -34.895  42.186 -52.096  1.00  0.00     0.010 A 
ENDBRANCH   1  27
TORSDOF 5
ENDMDL
MODEL 10
REMARK VINA RESULT:      -7.9      3.718      8.905
REMARK  5 active torsions:
REMARK  status: ('A' for Active; 'I' for Inactive)
REMARK    1  A    between atoms: C_5  and  C_6 
REMARK    2  A    between atoms: C_11  and  C_12 
REMARK       I    between atoms: C_12  and  N_13 
REMARK    3  A    between atoms: N_13  and  C_14 
REMARK    4  A    between atoms: C_16  and  O_17 
REMARK    5  A    between atoms: C_23  and  C_24 
ROOT
HETATM    1  C   UNL     1     -43.520  57.879 -59.749  1.00  0.00     0.118 C 
HETATM    2  N   UNL     1     -43.557  56.513 -59.239  1.00  0.00    -0.366 N 
HETATM    3  C   UNL     1     -43.094  56.193 -58.012  1.00  0.00     0.123 A 
HETATM    4  N   UNL     1     -42.399  57.086 -57.247  1.00  0.00    -0.240 N 
HETATM    5  N   UNL     1     -41.954  56.575 -56.082  1.00  0.00    -0.165 NA
HETATM    6  C   UNL     1     -42.478  55.326 -56.066  1.00  0.00     0.148 A 
HETATM    7  C   UNL     1     -43.181  55.047 -57.269  1.00  0.00     0.089 A 
HETATM    8  C   UNL     1     -42.124  58.456 -57.636  1.00  0.00     0.221 C 
HETATM    9  C   UNL     1     -42.327  58.648 -59.151  1.00  0.00     0.066 C 
HETATM   10  H   UNL     1     -44.204  55.892 -59.725  1.00  0.00     0.161 HD
ENDROOT
BRANCH   6  11
HETATM   11  C   UNL     1     -42.312  54.417 -54.918  1.00  0.00     0.276 C 
HETATM   12  N   UNL     1     -41.105  53.747 -54.959  1.00  0.00    -0.322 N 
HETATM   13  H   UNL     1     -40.552  53.959 -55.787  1.00  0.00     0.169 HD
HETATM   14  O   UNL     1     -43.180  54.310 -54.059  1.00  0.00    -0.266 OA
BRANCH  12  15
HETATM   15  C   UNL     1     -40.575  52.847 -54.017  1.00  0.00     0.037 A 
HETATM   16  C   UNL     1     -40.268  51.516 -54.306  1.00  0.00     0.066 A 
HETATM   17  C   UNL     1     -39.760  50.689 -53.305  1.00  0.00     0.067 A 
HETATM   18  C   UNL     1     -39.545  51.168 -52.019  1.00  0.00     0.036 A 
HETATM   19  C   UNL     1     -39.847  52.494 -51.724  1.00  0.00     0.005 A 
HETATM   20  C   UNL     1     -40.365  53.329 -52.718  1.00  0.00     0.029 A 
BRANCH  17  21
HETATM   21  O   UNL     1     -39.463  49.380 -53.552  1.00  0.00    -0.361 OA
HETATM   22  H   UNL     1     -39.891  48.836 -52.869  1.00  0.00     0.217 HD
ENDBRANCH  17  21
ENDBRANCH  12  15
ENDBRANCH   6  11
BRANCH   8  23
HETATM   23  C   UNL     1     -42.927  59.415 -56.785  1.00  0.00     0.409 C 
HETATM   24  F   UNL     1     -42.296  59.818 -55.668  1.00  0.00    -0.169 F 
HETATM   25  F   UNL     1     -43.273  60.528 -57.476  1.00  0.00    -0.169 F 
HETATM   26  F   UNL     1     -44.094  58.835 -56.402  1.00  0.00    -0.169 F 
ENDBRANCH   8  23
BRANCH   1  27
HETATM   27  C   UNL     1     -44.861  58.582 -59.650  1.00  0.00    -0.035 A 
HETATM   28  C   UNL     1     -45.105  59.850 -60.199  1.00  0.00     0.010 A 
HETATM   29  C   UNL     1     -46.349  60.472 -60.058  1.00  0.00     0.007 A 
HETATM   30  C   UNL     1     -47.379  59.847 -59.353  1.00  0.00    -0.062 A 
HETATM   31  C   UNL     1     -48.714  60.511 -59.189  1.00  0.00     0.048 C 
HETATM   32  C   UNL     1     -47.149  58.586 -58.798  1.00  0.00     0.007 A 
HETATM   33  C   UNL     1     -45.907  57.961 -58.945  1.00  0.00     0.010 A 
ENDBRANCH   1  27
TORSDOF 5
ENDMDL
