MODEL 1
REMARK VINA RESULT:      -8.5      0.000      0.000
REMARK  7 active torsions:
REMARK  status: ('A' for Active; 'I' for Inactive)
REMARK    1  A    between atoms: C_3  and  N_4 
REMARK       I    between atoms: N_4  and  C_5 
REMARK    2  A    between atoms: C_5  and  C_6 
REMARK    3  A    between atoms: C_7  and  C_8 
REMARK    4  A    between atoms: C_19  and  C_20 
REMARK    5  A    between atoms: C_20  and  C_21 
REMARK    6  A    between atoms: C_21  and  C_22 
REMARK    7  A    between atoms: C_22  and  O_23 
ROOT
HETATM    1  C   UNL     1     -42.241  56.348 -54.349  1.00  0.00     0.062 C 
HETATM    2  C   UNL     1     -42.654  56.861 -52.964  1.00  0.00     0.202 C 
HETATM    3  N   UNL     1     -43.852  57.706 -53.052  1.00  0.00    -0.083 N 
HETATM    4  C   UNL     1     -44.341  58.210 -54.226  1.00  0.00     0.726 A 
HETATM    5  N   UNL     1     -43.785  57.829 -55.390  1.00  0.00    -0.192 N 
HETATM    6  N   UNL     1     -44.535  58.182 -51.990  1.00  0.00    -0.140 NA
HETATM    7  C   UNL     1     -45.372  59.038 -52.595  1.00  0.00     0.166 A 
HETATM    8  N   UNL     1     -45.306  59.055 -53.970  1.00  0.00    -0.046 NA
HETATM    9  C   UNL     1     -42.767  56.888 -55.480  1.00  0.00     0.037 C 
HETATM   10  C   UNL     1     -42.298  56.589 -56.884  1.00  0.00     0.070 C 
HETATM   11  H   UNL     1     -44.153  58.221 -56.252  1.00  0.00     0.184 HD
ENDROOT
BRANCH   1  12
HETATM   12  C   UNL     1     -41.224  55.251 -54.329  1.00  0.00     0.256 C 
HETATM   13  N   UNL     1     -41.437  54.303 -53.355  1.00  0.00    -0.323 N 
HETATM   14  H   UNL     1     -42.030  54.588 -52.585  1.00  0.00     0.169 HD
HETATM   15  O   UNL     1     -40.231  55.327 -55.041  1.00  0.00    -0.267 OA
BRANCH  13  16
HETATM   16  C   UNL     1     -40.822  53.038 -53.208  1.00  0.00     0.041 A 
HETATM   17  C   UNL     1     -40.098  52.587 -52.088  1.00  0.00    -0.035 A 
HETATM   18  C   UNL     1     -39.813  53.400 -50.855  1.00  0.00     0.050 C 
HETATM   19  C   UNL     1     -39.551  51.286 -52.113  1.00  0.00     0.009 A 
HETATM   20  C   UNL     1     -39.660  50.470 -53.236  1.00  0.00     0.001 A 
HETATM   21  C   UNL     1     -40.325  50.938 -54.360  1.00  0.00     0.002 A 
HETATM   22  C   UNL     1     -40.894  52.211 -54.346  1.00  0.00     0.030 A 
ENDBRANCH  13  16
ENDBRANCH   1  12
BRANCH   2  23
HETATM   23  C   UNL     1     -41.552  57.651 -52.252  1.00  0.00    -0.028 A 
HETATM   24  C   UNL     1     -40.643  58.456 -52.964  1.00  0.00     0.011 A 
HETATM   25  C   UNL     1     -39.651  59.176 -52.293  1.00  0.00     0.024 A 
HETATM   26  C   UNL     1     -39.554  59.094 -50.906  1.00  0.00     0.034 A 
HETATM   27 CL   UNL     1     -38.330  59.978 -50.082  1.00  0.00    -0.084 Cl
HETATM   28  C   UNL     1     -40.445  58.305 -50.182  1.00  0.00     0.024 A 
HETATM   29  C   UNL     1     -41.440  57.588 -50.851  1.00  0.00     0.011 A 
ENDBRANCH   2  23
BRANCH   7  30
HETATM   30  C   UNL     1     -46.231  59.987 -51.846  1.00  0.00     0.085 C 
BRANCH  30  31
HETATM   31  C   UNL     1     -45.428  60.911 -50.928  1.00  0.00     0.034 C 
BRANCH  31  32
HETATM   32  C   UNL     1     -45.661  60.634 -49.446  1.00  0.00     0.164 C 
BRANCH  32  33
HETATM   33  O   UNL     1     -45.963  59.256 -49.253  1.00  0.00    -0.401 OA
HETATM   34  H   UNL     1     -45.280  58.883 -48.670  1.00  0.00     0.209 HD
ENDBRANCH  32  33
ENDBRANCH  31  32
ENDBRANCH  30  31
ENDBRANCH   7  30
TORSDOF 7
ENDMDL
MODEL 2
REMARK VINA RESULT:      -8.4      2.096      2.454
REMARK  7 active torsions:
REMARK  status: ('A' for Active; 'I' for Inactive)
REMARK    1  A    between atoms: C_3  and  N_4 
REMARK       I    between atoms: N_4  and  C_5 
REMARK    2  A    between atoms: C_5  and  C_6 
REMARK    3  A    between atoms: C_7  and  C_8 
REMARK    4  A    between atoms: C_19  and  C_20 
REMARK    5  A    between atoms: C_20  and  C_21 
REMARK    6  A    between atoms: C_21  and  C_22 
REMARK    7  A    between atoms: C_22  and  O_23 
ROOT
HETATM    1  C   UNL     1     -43.363  56.271 -54.672  1.00  0.00     0.062 C 
HETATM    2  C   UNL     1     -43.724  57.390 -53.687  1.00  0.00     0.202 C 
HETATM    3  N   UNL     1     -44.375  58.509 -54.379  1.00  0.00    -0.083 N 
HETATM    4  C   UNL     1     -44.379  58.664 -55.738  1.00  0.00     0.726 A 
HETATM    5  N   UNL     1     -43.871  57.690 -56.513  1.00  0.00    -0.192 N 
HETATM    6  N   UNL     1     -44.935  59.571 -53.762  1.00  0.00    -0.140 NA
HETATM    7  C   UNL     1     -45.179  60.369 -54.811  1.00  0.00     0.166 A 
HETATM    8  N   UNL     1     -44.885  59.831 -56.044  1.00  0.00    -0.046 NA
HETATM    9  C   UNL     1     -43.390  56.486 -56.014  1.00  0.00     0.037 C 
HETATM   10  C   UNL     1     -42.880  55.521 -57.058  1.00  0.00     0.070 C 
HETATM   11  H   UNL     1     -43.871  57.826 -57.520  1.00  0.00     0.184 HD
ENDROOT
BRANCH   1  12
HETATM   12  C   UNL     1     -42.972  54.977 -54.030  1.00  0.00     0.256 C 
HETATM   13  N   UNL     1     -41.624  54.710 -54.081  1.00  0.00    -0.323 N 
HETATM   14  H   UNL     1     -41.100  55.215 -54.785  1.00  0.00     0.169 HD
HETATM   15  O   UNL     1     -43.837  54.200 -53.648  1.00  0.00    -0.267 OA
BRANCH  13  16
HETATM   16  C   UNL     1     -40.897  53.716 -53.383  1.00  0.00     0.041 A 
HETATM   17  C   UNL     1     -40.571  53.728 -52.013  1.00  0.00    -0.035 A 
HETATM   18  C   UNL     1     -40.906  54.836 -51.052  1.00  0.00     0.050 C 
HETATM   19  C   UNL     1     -39.839  52.646 -51.481  1.00  0.00     0.009 A 
HETATM   20  C   UNL     1     -39.384  51.606 -52.288  1.00  0.00     0.001 A 
HETATM   21  C   UNL     1     -39.657  51.625 -53.648  1.00  0.00     0.002 A 
HETATM   22  C   UNL     1     -40.401  52.673 -54.188  1.00  0.00     0.030 A 
ENDBRANCH  13  16
ENDBRANCH   1  12
BRANCH   2  23
HETATM   23  C   UNL     1     -42.520  57.931 -52.910  1.00  0.00    -0.028 A 
HETATM   24  C   UNL     1     -42.550  58.076 -51.510  1.00  0.00     0.011 A 
HETATM   25  C   UNL     1     -41.436  58.562 -50.820  1.00  0.00     0.024 A 
HETATM   26  C   UNL     1     -40.285  58.912 -51.521  1.00  0.00     0.034 A 
HETATM   27 CL   UNL     1     -38.916  59.515 -50.671  1.00  0.00    -0.084 Cl
HETATM   28  C   UNL     1     -40.234  58.774 -52.907  1.00  0.00     0.024 A 
HETATM   29  C   UNL     1     -41.345  58.285 -53.598  1.00  0.00     0.011 A 
ENDBRANCH   2  23
BRANCH   7  30
HETATM   30  C   UNL     1     -45.628  61.776 -54.664  1.00  0.00     0.085 C 
BRANCH  30  31
HETATM   31  C   UNL     1     -44.713  62.593 -53.751  1.00  0.00     0.034 C 
BRANCH  31  32
HETATM   32  C   UNL     1     -43.294  62.735 -54.294  1.00  0.00     0.164 C 
BRANCH  32  33
HETATM   33  O   UNL     1     -42.472  61.693 -53.778  1.00  0.00    -0.401 OA
HETATM   34  H   UNL     1     -42.725  61.551 -52.850  1.00  0.00     0.209 HD
ENDBRANCH  32  33
ENDBRANCH  31  32
ENDBRANCH  30  31
ENDBRANCH   7  30
TORSDOF 7
ENDMDL
MODEL 3
REMARK VINA RESULT:      -8.4      1.831      2.050
REMARK  7 active torsions:
REMARK  status: ('A' for Active; 'I' for Inactive)
REMARK    1  A    between atoms: C_3  and  N_4 
REMARK       I    between atoms: N_4  and  C_5 
REMARK    2  A    between atoms: C_5  and  C_6 
REMARK    3  A    between atoms: C_7  and  C_8 
REMARK    4  A    between atoms: C_19  and  C_20 
REMARK    5  A    between atoms: C_20  and  C_21 
REMARK    6  A    between atoms: C_21  and  C_22 
REMARK    7  A    between atoms: C_22  and  O_23 
ROOT
HETATM    1  C   UNL     1     -43.296  56.401 -54.727  1.00  0.00     0.062 C 
HETATM    2  C   UNL     1     -43.612  57.518 -53.724  1.00  0.00     0.202 C 
HETATM    3  N   UNL     1     -44.229  58.668 -54.395  1.00  0.00    -0.083 N 
HETATM    4  C   UNL     1     -44.236  58.842 -55.752  1.00  0.00     0.726 A 
HETATM    5  N   UNL     1     -43.766  57.862 -56.545  1.00  0.00    -0.192 N 
HETATM    6  N   UNL     1     -44.748  59.740 -53.760  1.00  0.00    -0.140 NA
HETATM    7  C   UNL     1     -44.971  60.561 -54.797  1.00  0.00     0.166 A 
HETATM    8  N   UNL     1     -44.702  60.030 -56.039  1.00  0.00    -0.046 NA
HETATM    9  C   UNL     1     -43.324  56.635 -56.065  1.00  0.00     0.037 C 
HETATM   10  C   UNL     1     -42.854  55.668 -57.126  1.00  0.00     0.070 C 
HETATM   11  H   UNL     1     -43.768  58.012 -57.550  1.00  0.00     0.184 HD
ENDROOT
BRANCH   1  12
HETATM   12  C   UNL     1     -42.947  55.085 -54.105  1.00  0.00     0.256 C 
HETATM   13  N   UNL     1     -41.602  54.795 -54.124  1.00  0.00    -0.323 N 
HETATM   14  H   UNL     1     -41.050  55.307 -54.800  1.00  0.00     0.169 HD
HETATM   15  O   UNL     1     -43.836  54.315 -53.766  1.00  0.00    -0.267 OA
BRANCH  13  16
HETATM   16  C   UNL     1     -40.914  53.772 -53.430  1.00  0.00     0.041 A 
HETATM   17  C   UNL     1     -40.601  53.760 -52.057  1.00  0.00    -0.035 A 
HETATM   18  C   UNL     1     -40.911  54.867 -51.088  1.00  0.00     0.050 C 
HETATM   19  C   UNL     1     -39.907  52.650 -51.530  1.00  0.00     0.009 A 
HETATM   20  C   UNL     1     -39.476  51.605 -52.343  1.00  0.00     0.001 A 
HETATM   21  C   UNL     1     -39.735  51.646 -53.706  1.00  0.00     0.002 A 
HETATM   22  C   UNL     1     -40.442  52.722 -54.242  1.00  0.00     0.030 A 
ENDBRANCH  13  16
ENDBRANCH   1  12
BRANCH   2  23
HETATM   23  C   UNL     1     -42.386  58.006 -52.947  1.00  0.00    -0.028 A 
HETATM   24  C   UNL     1     -41.183  58.336 -53.600  1.00  0.00     0.011 A 
HETATM   25  C   UNL     1     -40.079  58.789 -52.873  1.00  0.00     0.024 A 
HETATM   26  C   UNL     1     -40.164  58.911 -51.488  1.00  0.00     0.034 A 
HETATM   27 CL   UNL     1     -38.803  59.464 -50.593  1.00  0.00    -0.084 Cl
HETATM   28  C   UNL     1     -41.346  58.591 -50.823  1.00  0.00     0.024 A 
HETATM   29  C   UNL     1     -42.452  58.142 -51.549  1.00  0.00     0.011 A 
ENDBRANCH   2  23
BRANCH   7  30
HETATM   30  C   UNL     1     -45.369  61.980 -54.628  1.00  0.00     0.085 C 
BRANCH  30  31
HETATM   31  C   UNL     1     -46.878  62.150 -54.443  1.00  0.00     0.034 C 
BRANCH  31  32
HETATM   32  C   UNL     1     -47.298  62.224 -52.978  1.00  0.00     0.164 C 
BRANCH  32  33
HETATM   33  O   UNL     1     -47.398  60.912 -52.436  1.00  0.00    -0.401 OA
HETATM   34  H   UNL     1     -47.966  60.960 -51.649  1.00  0.00     0.209 HD
ENDBRANCH  32  33
ENDBRANCH  31  32
ENDBRANCH  30  31
ENDBRANCH   7  30
TORSDOF 7
ENDMDL
MODEL 4
REMARK VINA RESULT:      -8.1      4.462      6.628
REMARK  7 active torsions:
REMARK  status: ('A' for Active; 'I' for Inactive)
REMARK    1  A    between atoms: C_3  and  N_4 
REMARK       I    between atoms: N_4  and  C_5 
REMARK    2  A    between atoms: C_5  and  C_6 
REMARK    3  A    between atoms: C_7  and  C_8 
REMARK    4  A    between atoms: C_19  and  C_20 
REMARK    5  A    between atoms: C_20  and  C_21 
REMARK    6  A    between atoms: C_21  and  C_22 
REMARK    7  A    between atoms: C_22  and  O_23 
ROOT
HETATM    1  C   UNL     1     -42.514  57.682 -55.556  1.00  0.00     0.062 C 
HETATM    2  C   UNL     1     -42.181  57.850 -57.044  1.00  0.00     0.202 C 
HETATM    3  N   UNL     1     -41.918  59.258 -57.368  1.00  0.00    -0.083 N 
HETATM    4  C   UNL     1     -42.225  60.299 -56.536  1.00  0.00     0.726 A 
HETATM    5  N   UNL     1     -42.683  60.042 -55.298  1.00  0.00    -0.192 N 
HETATM    6  N   UNL     1     -41.460  59.698 -58.558  1.00  0.00    -0.140 NA
HETATM    7  C   UNL     1     -41.598  61.023 -58.404  1.00  0.00     0.166 A 
HETATM    8  N   UNL     1     -42.031  61.431 -57.163  1.00  0.00    -0.046 NA
HETATM    9  C   UNL     1     -42.807  58.759 -54.779  1.00  0.00     0.037 C 
HETATM   10  C   UNL     1     -43.324  58.692 -53.362  1.00  0.00     0.070 C 
HETATM   11  H   UNL     1     -42.918  60.826 -54.698  1.00  0.00     0.184 HD
ENDROOT
BRANCH   1  12
HETATM   12  C   UNL     1     -42.504  56.267 -55.070  1.00  0.00     0.256 C 
HETATM   13  N   UNL     1     -41.248  55.775 -54.797  1.00  0.00    -0.323 N 
HETATM   14  H   UNL     1     -40.478  56.268 -55.230  1.00  0.00     0.169 HD
HETATM   15  O   UNL     1     -43.537  55.611 -55.082  1.00  0.00    -0.267 OA
BRANCH  13  16
HETATM   16  C   UNL     1     -40.899  54.587 -54.114  1.00  0.00     0.041 A 
HETATM   17  C   UNL     1     -40.935  54.383 -52.720  1.00  0.00    -0.035 A 
HETATM   18  C   UNL     1     -41.313  55.424 -51.702  1.00  0.00     0.050 C 
HETATM   19  C   UNL     1     -40.552  53.125 -52.209  1.00  0.00     0.009 A 
HETATM   20  C   UNL     1     -40.086  52.110 -53.041  1.00  0.00     0.001 A 
HETATM   21  C   UNL     1     -39.997  52.332 -54.408  1.00  0.00     0.002 A 
HETATM   22  C   UNL     1     -40.395  53.560 -54.935  1.00  0.00     0.030 A 
ENDBRANCH  13  16
ENDBRANCH   1  12
BRANCH   2  23
HETATM   23  C   UNL     1     -43.280  57.332 -57.976  1.00  0.00    -0.028 A 
HETATM   24  C   UNL     1     -43.061  56.244 -58.841  1.00  0.00     0.011 A 
HETATM   25  C   UNL     1     -44.081  55.781 -59.677  1.00  0.00     0.024 A 
HETATM   26  C   UNL     1     -45.327  56.404 -59.660  1.00  0.00     0.034 A 
HETATM   27 CL   UNL     1     -46.581  55.836 -60.692  1.00  0.00    -0.084 Cl
HETATM   28  C   UNL     1     -45.565  57.481 -58.810  1.00  0.00     0.024 A 
HETATM   29  C   UNL     1     -44.548  57.943 -57.970  1.00  0.00     0.011 A 
ENDBRANCH   2  23
BRANCH   7  30
HETATM   30  C   UNL     1     -41.412  61.985 -59.518  1.00  0.00     0.085 C 
BRANCH  30  31
HETATM   31  C   UNL     1     -40.029  62.640 -59.506  1.00  0.00     0.034 C 
BRANCH  31  32
HETATM   32  C   UNL     1     -40.052  64.082 -59.011  1.00  0.00     0.164 C 
BRANCH  32  33
HETATM   33  O   UNL     1     -40.334  64.111 -57.616  1.00  0.00    -0.401 OA
HETATM   34  H   UNL     1     -40.900  63.347 -57.413  1.00  0.00     0.209 HD
ENDBRANCH  32  33
ENDBRANCH  31  32
ENDBRANCH  30  31
ENDBRANCH   7  30
TORSDOF 7
ENDMDL
MODEL 5
REMARK VINA RESULT:      -8.0      2.785      4.413
REMARK  7 active torsions:
REMARK  status: ('A' for Active; 'I' for Inactive)
REMARK    1  A    between atoms: C_3  and  N_4 
REMARK       I    between atoms: N_4  and  C_5 
REMARK    2  A    between atoms: C_5  and  C_6 
REMARK    3  A    between atoms: C_7  and  C_8 
REMARK    4  A    between atoms: C_19  and  C_20 
REMARK    5  A    between atoms: C_20  and  C_21 
REMARK    6  A    between atoms: C_21  and  C_22 
REMARK    7  A    between atoms: C_22  and  O_23 
ROOT
HETATM    1  C   UNL     1     -42.379  55.338 -54.216  1.00  0.00     0.062 C 
HETATM    2  C   UNL     1     -43.468  56.418 -54.248  1.00  0.00     0.202 C 
HETATM    3  N   UNL     1     -43.671  56.919 -55.613  1.00  0.00    -0.083 N 
HETATM    4  C   UNL     1     -42.806  56.682 -56.646  1.00  0.00     0.726 A 
HETATM    5  N   UNL     1     -41.769  55.847 -56.459  1.00  0.00    -0.192 N 
HETATM    6  N   UNL     1     -44.656  57.765 -55.981  1.00  0.00    -0.140 NA
HETATM    7  C   UNL     1     -44.273  58.065 -57.231  1.00  0.00     0.166 A 
HETATM    8  N   UNL     1     -43.161  57.391 -57.686  1.00  0.00    -0.046 NA
HETATM    9  C   UNL     1     -41.552  55.147 -55.277  1.00  0.00     0.037 C 
HETATM   10  C   UNL     1     -40.338  54.248 -55.283  1.00  0.00     0.070 C 
HETATM   11  H   UNL     1     -41.129  55.690 -57.232  1.00  0.00     0.184 HD
ENDROOT
BRANCH   1  12
HETATM   12  C   UNL     1     -42.308  54.562 -52.938  1.00  0.00     0.256 C 
HETATM   13  N   UNL     1     -41.171  54.797 -52.200  1.00  0.00    -0.323 N 
HETATM   14  H   UNL     1     -40.390  55.194 -52.707  1.00  0.00     0.169 HD
HETATM   15  O   UNL     1     -43.143  53.699 -52.702  1.00  0.00    -0.267 OA
BRANCH  13  16
HETATM   16  C   UNL     1     -40.897  54.422 -50.864  1.00  0.00     0.041 A 
HETATM   17  C   UNL     1     -40.367  53.189 -50.435  1.00  0.00    -0.035 A 
HETATM   18  C   UNL     1     -40.038  52.028 -51.332  1.00  0.00     0.050 C 
HETATM   19  C   UNL     1     -40.155  52.987 -49.055  1.00  0.00     0.009 A 
HETATM   20  C   UNL     1     -40.513  53.948 -48.112  1.00  0.00     0.001 A 
HETATM   21  C   UNL     1     -41.088  55.138 -48.533  1.00  0.00     0.002 A 
HETATM   22  C   UNL     1     -41.282  55.368 -49.895  1.00  0.00     0.030 A 
ENDBRANCH  13  16
ENDBRANCH   1  12
BRANCH   2  23
HETATM   23  C   UNL     1     -43.174  57.608 -53.330  1.00  0.00    -0.028 A 
HETATM   24  C   UNL     1     -44.071  57.998 -52.318  1.00  0.00     0.011 A 
HETATM   25  C   UNL     1     -43.779  59.081 -51.484  1.00  0.00     0.024 A 
HETATM   26  C   UNL     1     -42.591  59.787 -51.657  1.00  0.00     0.034 A 
HETATM   27 CL   UNL     1     -42.234  61.123 -50.633  1.00  0.00    -0.084 Cl
HETATM   28  C   UNL     1     -41.689  59.416 -52.651  1.00  0.00     0.024 A 
HETATM   29  C   UNL     1     -41.978  58.331 -53.483  1.00  0.00     0.011 A 
ENDBRANCH   2  23
BRANCH   7  30
HETATM   30  C   UNL     1     -44.921  59.128 -58.037  1.00  0.00     0.085 C 
BRANCH  30  31
HETATM   31  C   UNL     1     -46.182  58.640 -58.751  1.00  0.00     0.034 C 
BRANCH  31  32
HETATM   32  C   UNL     1     -47.441  58.764 -57.898  1.00  0.00     0.164 C 
BRANCH  32  33
HETATM   33  O   UNL     1     -47.490  57.703 -56.951  1.00  0.00    -0.401 OA
HETATM   34  H   UNL     1     -46.599  57.321 -56.889  1.00  0.00     0.209 HD
ENDBRANCH  32  33
ENDBRANCH  31  32
ENDBRANCH  30  31
ENDBRANCH   7  30
TORSDOF 7
ENDMDL
MODEL 6
REMARK VINA RESULT:      -7.9      1.826      2.616
REMARK  7 active torsions:
REMARK  status: ('A' for Active; 'I' for Inactive)
REMARK    1  A    between atoms: C_3  and  N_4 
REMARK       I    between atoms: N_4  and  C_5 
REMARK    2  A    between atoms: C_5  and  C_6 
REMARK    3  A    between atoms: C_7  and  C_8 
REMARK    4  A    between atoms: C_19  and  C_20 
REMARK    5  A    between atoms: C_20  and  C_21 
REMARK    6  A    between atoms: C_21  and  C_22 
REMARK    7  A    between atoms: C_22  and  O_23 
ROOT
HETATM    1  C   UNL     1     -44.555  57.655 -53.729  1.00  0.00     0.062 C 
HETATM    2  C   UNL     1     -44.429  58.048 -52.252  1.00  0.00     0.202 C 
HETATM    3  N   UNL     1     -45.236  59.237 -51.954  1.00  0.00    -0.083 N 
HETATM    4  C   UNL     1     -45.772  60.052 -52.913  1.00  0.00     0.726 A 
HETATM    5  N   UNL     1     -45.672  59.701 -54.207  1.00  0.00    -0.192 N 
HETATM    6  N   UNL     1     -45.442  59.734 -50.716  1.00  0.00    -0.140 NA
HETATM    7  C   UNL     1     -46.038  60.899 -51.010  1.00  0.00     0.166 A 
HETATM    8  N   UNL     1     -46.289  61.112 -52.347  1.00  0.00    -0.046 NA
HETATM    9  C   UNL     1     -45.102  58.508 -54.635  1.00  0.00     0.037 C 
HETATM   10  C   UNL     1     -45.107  58.301 -56.131  1.00  0.00     0.070 C 
HETATM   11  H   UNL     1     -46.065  60.323 -54.908  1.00  0.00     0.184 HD
ENDROOT
BRANCH   1  12
HETATM   12  C   UNL     1     -44.016  56.299 -54.062  1.00  0.00     0.256 C 
HETATM   13  N   UNL     1     -42.645  56.211 -54.008  1.00  0.00    -0.323 N 
HETATM   14  H   UNL     1     -42.144  57.088 -54.066  1.00  0.00     0.169 HD
HETATM   15  O   UNL     1     -44.768  55.431 -54.485  1.00  0.00    -0.267 OA
BRANCH  13  16
HETATM   16  C   UNL     1     -41.837  55.050 -54.032  1.00  0.00     0.041 A 
HETATM   17  C   UNL     1     -41.827  54.020 -53.072  1.00  0.00    -0.035 A 
HETATM   18  C   UNL     1     -42.653  53.998 -51.815  1.00  0.00     0.050 C 
HETATM   19  C   UNL     1     -40.952  52.928 -53.258  1.00  0.00     0.009 A 
HETATM   20  C   UNL     1     -40.065  52.878 -54.330  1.00  0.00     0.001 A 
HETATM   21  C   UNL     1     -40.036  53.921 -55.244  1.00  0.00     0.002 A 
HETATM   22  C   UNL     1     -40.910  54.997 -55.091  1.00  0.00     0.030 A 
ENDBRANCH  13  16
ENDBRANCH   1  12
BRANCH   2  23
HETATM   23  C   UNL     1     -42.986  58.314 -51.813  1.00  0.00    -0.028 A 
HETATM   24  C   UNL     1     -42.343  57.503 -50.859  1.00  0.00     0.011 A 
HETATM   25  C   UNL     1     -41.023  57.758 -50.480  1.00  0.00     0.024 A 
HETATM   26  C   UNL     1     -40.334  58.828 -51.046  1.00  0.00     0.034 A 
HETATM   27 CL   UNL     1     -38.710  59.145 -50.576  1.00  0.00    -0.084 Cl
HETATM   28  C   UNL     1     -40.952  59.643 -51.993  1.00  0.00     0.024 A 
HETATM   29  C   UNL     1     -42.270  59.386 -52.376  1.00  0.00     0.011 A 
ENDBRANCH   2  23
BRANCH   7  30
HETATM   30  C   UNL     1     -46.308  61.943 -49.992  1.00  0.00     0.085 C 
BRANCH  30  31
HETATM   31  C   UNL     1     -45.184  62.067 -48.962  1.00  0.00     0.034 C 
BRANCH  31  32
HETATM   32  C   UNL     1     -45.564  61.516 -47.591  1.00  0.00     0.164 C 
BRANCH  32  33
HETATM   33  O   UNL     1     -45.787  60.112 -47.678  1.00  0.00    -0.401 OA
HETATM   34  H   UNL     1     -45.669  59.852 -48.607  1.00  0.00     0.209 HD
ENDBRANCH  32  33
ENDBRANCH  31  32
ENDBRANCH  30  31
ENDBRANCH   7  30
TORSDOF 7
ENDMDL
MODEL 7
REMARK VINA RESULT:      -7.8      3.183      4.654
REMARK  7 active torsions:
REMARK  status: ('A' for Active; 'I' for Inactive)
REMARK    1  A    between atoms: C_3  and  N_4 
REMARK       I    between atoms: N_4  and  C_5 
REMARK    2  A    between atoms: C_5  and  C_6 
REMARK    3  A    between atoms: C_7  and  C_8 
REMARK    4  A    between atoms: C_19  and  C_20 
REMARK    5  A    between atoms: C_20  and  C_21 
REMARK    6  A    between atoms: C_21  and  C_22 
REMARK    7  A    between atoms: C_22  and  O_23 
ROOT
HETATM    1  C   UNL     1     -43.124  56.508 -52.315  1.00  0.00     0.062 C 
HETATM    2  C   UNL     1     -42.746  57.733 -53.158  1.00  0.00     0.202 C 
HETATM    3  N   UNL     1     -42.983  58.976 -52.413  1.00  0.00    -0.083 N 
HETATM    4  C   UNL     1     -43.717  59.044 -51.262  1.00  0.00     0.726 A 
HETATM    5  N   UNL     1     -44.158  57.908 -50.693  1.00  0.00    -0.192 N 
HETATM    6  N   UNL     1     -42.613  60.204 -52.833  1.00  0.00    -0.140 NA
HETATM    7  C   UNL     1     -43.234  60.974 -51.929  1.00  0.00     0.166 A 
HETATM    8  N   UNL     1     -43.892  60.296 -50.927  1.00  0.00    -0.046 NA
HETATM    9  C   UNL     1     -43.854  56.641 -51.176  1.00  0.00     0.037 C 
HETATM   10  C   UNL     1     -44.434  55.498 -50.378  1.00  0.00     0.070 C 
HETATM   11  H   UNL     1     -44.712  57.976 -49.844  1.00  0.00     0.184 HD
ENDROOT
BRANCH   1  12
HETATM   12  C   UNL     1     -42.645  55.201 -52.865  1.00  0.00     0.256 C 
HETATM   13  N   UNL     1     -41.344  54.897 -52.538  1.00  0.00    -0.323 N 
HETATM   14  H   UNL     1     -40.766  55.678 -52.254  1.00  0.00     0.169 HD
HETATM   15  O   UNL     1     -43.344  54.578 -53.653  1.00  0.00    -0.267 OA
BRANCH  13  16
HETATM   16  C   UNL     1     -40.664  53.665 -52.688  1.00  0.00     0.041 A 
HETATM   17  C   UNL     1     -40.204  53.107 -53.897  1.00  0.00    -0.035 A 
HETATM   18  C   UNL     1     -40.398  53.712 -55.260  1.00  0.00     0.050 C 
HETATM   19  C   UNL     1     -39.540  51.863 -53.859  1.00  0.00     0.009 A 
HETATM   20  C   UNL     1     -39.386  51.153 -52.671  1.00  0.00     0.001 A 
HETATM   21  C   UNL     1     -39.891  51.678 -51.490  1.00  0.00     0.002 A 
HETATM   22  C   UNL     1     -40.527  52.919 -51.502  1.00  0.00     0.030 A 
ENDBRANCH  13  16
ENDBRANCH   1  12
BRANCH   2  23
HETATM   23  C   UNL     1     -43.497  57.812 -54.490  1.00  0.00    -0.028 A 
HETATM   24  C   UNL     1     -44.891  58.000 -54.542  1.00  0.00     0.011 A 
HETATM   25  C   UNL     1     -45.555  58.079 -55.769  1.00  0.00     0.024 A 
HETATM   26  C   UNL     1     -44.834  57.967 -56.955  1.00  0.00     0.034 A 
HETATM   27 CL   UNL     1     -45.653  58.060 -58.465  1.00  0.00    -0.084 Cl
HETATM   28  C   UNL     1     -43.454  57.782 -56.926  1.00  0.00     0.024 A 
HETATM   29  C   UNL     1     -42.787  57.707 -55.700  1.00  0.00     0.011 A 
ENDBRANCH   2  23
BRANCH   7  30
HETATM   30  C   UNL     1     -43.312  62.451 -52.049  1.00  0.00     0.085 C 
BRANCH  30  31
HETATM   31  C   UNL     1     -44.156  62.902 -53.242  1.00  0.00     0.034 C 
BRANCH  31  32
HETATM   32  C   UNL     1     -43.321  63.459 -54.391  1.00  0.00     0.164 C 
BRANCH  32  33
HETATM   33  O   UNL     1     -42.755  62.390 -55.142  1.00  0.00    -0.401 OA
HETATM   34  H   UNL     1     -42.431  61.726 -54.510  1.00  0.00     0.209 HD
ENDBRANCH  32  33
ENDBRANCH  31  32
ENDBRANCH  30  31
ENDBRANCH   7  30
TORSDOF 7
ENDMDL
MODEL 8
REMARK VINA RESULT:      -7.7      2.768      8.134
REMARK  7 active torsions:
REMARK  status: ('A' for Active; 'I' for Inactive)
REMARK    1  A    between atoms: C_3  and  N_4 
REMARK       I    between atoms: N_4  and  C_5 
REMARK    2  A    between atoms: C_5  and  C_6 
REMARK    3  A    between atoms: C_7  and  C_8 
REMARK    4  A    between atoms: C_19  and  C_20 
REMARK    5  A    between atoms: C_20  and  C_21 
REMARK    6  A    between atoms: C_21  and  C_22 
REMARK    7  A    between atoms: C_22  and  O_23 
ROOT
HETATM    1  C   UNL     1     -42.611  56.740 -51.211  1.00  0.00     0.062 C 
HETATM    2  C   UNL     1     -42.770  55.374 -51.889  1.00  0.00     0.202 C 
HETATM    3  N   UNL     1     -41.715  54.448 -51.461  1.00  0.00    -0.083 N 
HETATM    4  C   UNL     1     -40.584  54.839 -50.798  1.00  0.00     0.726 A 
HETATM    5  N   UNL     1     -40.464  56.118 -50.397  1.00  0.00    -0.192 N 
HETATM    6  N   UNL     1     -41.672  53.136 -51.772  1.00  0.00    -0.140 NA
HETATM    7  C   UNL     1     -40.444  52.816 -51.339  1.00  0.00     0.166 A 
HETATM    8  N   UNL     1     -39.761  53.828 -50.702  1.00  0.00    -0.046 NA
HETATM    9  C   UNL     1     -41.463  57.069 -50.562  1.00  0.00     0.037 C 
HETATM   10  C   UNL     1     -41.131  58.441 -50.024  1.00  0.00     0.070 C 
HETATM   11  H   UNL     1     -39.613  56.395 -49.916  1.00  0.00     0.184 HD
ENDROOT
BRANCH   1  12
HETATM   12  C   UNL     1     -43.794  57.647 -51.348  1.00  0.00     0.256 C 
HETATM   13  N   UNL     1     -43.522  58.831 -51.995  1.00  0.00    -0.323 N 
HETATM   14  H   UNL     1     -42.548  59.104 -52.024  1.00  0.00     0.169 HD
HETATM   15  O   UNL     1     -44.843  57.371 -50.783  1.00  0.00    -0.267 OA
BRANCH  13  16
HETATM   16  C   UNL     1     -44.435  59.790 -52.493  1.00  0.00     0.041 A 
HETATM   17  C   UNL     1     -45.086  59.752 -53.741  1.00  0.00    -0.035 A 
HETATM   18  C   UNL     1     -44.887  58.694 -54.792  1.00  0.00     0.050 C 
HETATM   19  C   UNL     1     -45.971  60.799 -54.075  1.00  0.00     0.009 A 
HETATM   20  C   UNL     1     -46.166  61.888 -53.230  1.00  0.00     0.001 A 
HETATM   21  C   UNL     1     -45.480  61.952 -52.026  1.00  0.00     0.002 A 
HETATM   22  C   UNL     1     -44.620  60.914 -51.666  1.00  0.00     0.030 A 
ENDBRANCH  13  16
ENDBRANCH   1  12
BRANCH   2  23
HETATM   23  C   UNL     1     -42.763  55.448 -53.419  1.00  0.00    -0.028 A 
HETATM   24  C   UNL     1     -41.908  56.327 -54.111  1.00  0.00     0.011 A 
HETATM   25  C   UNL     1     -41.911  56.371 -55.508  1.00  0.00     0.024 A 
HETATM   26  C   UNL     1     -42.770  55.543 -56.226  1.00  0.00     0.034 A 
HETATM   27 CL   UNL     1     -42.776  55.601 -57.945  1.00  0.00    -0.084 Cl
HETATM   28  C   UNL     1     -43.623  54.665 -55.560  1.00  0.00     0.024 A 
HETATM   29  C   UNL     1     -43.619  54.616 -54.164  1.00  0.00     0.011 A 
ENDBRANCH   2  23
BRANCH   7  30
HETATM   30  C   UNL     1     -39.810  51.505 -51.619  1.00  0.00     0.085 C 
BRANCH  30  31
HETATM   31  C   UNL     1     -39.485  51.312 -53.101  1.00  0.00     0.034 C 
BRANCH  31  32
HETATM   32  C   UNL     1     -39.796  49.906 -53.605  1.00  0.00     0.164 C 
BRANCH  32  33
HETATM   33  O   UNL     1     -39.329  48.941 -52.667  1.00  0.00    -0.401 OA
HETATM   34  H   UNL     1     -39.219  48.099 -53.140  1.00  0.00     0.209 HD
ENDBRANCH  32  33
ENDBRANCH  31  32
ENDBRANCH  30  31
ENDBRANCH   7  30
TORSDOF 7
ENDMDL
MODEL 9
REMARK VINA RESULT:      -7.6      4.074      6.506
REMARK  7 active torsions:
REMARK  status: ('A' for Active; 'I' for Inactive)
REMARK    1  A    between atoms: C_3  and  N_4 
REMARK       I    between atoms: N_4  and  C_5 
REMARK    2  A    between atoms: C_5  and  C_6 
REMARK    3  A    between atoms: C_7  and  C_8 
REMARK    4  A    between atoms: C_19  and  C_20 
REMARK    5  A    between atoms: C_20  and  C_21 
REMARK    6  A    between atoms: C_21  and  C_22 
REMARK    7  A    between atoms: C_22  and  O_23 
ROOT
HETATM    1  C   UNL     1     -42.961  57.740 -54.856  1.00  0.00     0.062 C 
HETATM    2  C   UNL     1     -42.366  58.065 -56.232  1.00  0.00     0.202 C 
HETATM    3  N   UNL     1     -42.305  59.515 -56.449  1.00  0.00    -0.083 N 
HETATM    4  C   UNL     1     -42.964  60.428 -55.672  1.00  0.00     0.726 A 
HETATM    5  N   UNL     1     -43.613  60.011 -54.571  1.00  0.00    -0.192 N 
HETATM    6  N   UNL     1     -41.701  60.109 -57.499  1.00  0.00    -0.140 NA
HETATM    7  C   UNL     1     -42.110  61.376 -57.339  1.00  0.00     0.166 A 
HETATM    8  N   UNL     1     -42.857  61.617 -56.208  1.00  0.00    -0.046 NA
HETATM    9  C   UNL     1     -43.602  58.693 -54.129  1.00  0.00     0.037 C 
HETATM   10  C   UNL     1     -44.379  58.441 -52.858  1.00  0.00     0.070 C 
HETATM   11  H   UNL     1     -44.107  60.700 -54.011  1.00  0.00     0.184 HD
ENDROOT
BRANCH   1  12
HETATM   12  C   UNL     1     -42.791  56.318 -54.422  1.00  0.00     0.256 C 
HETATM   13  N   UNL     1     -41.579  56.053 -53.828  1.00  0.00    -0.323 N 
HETATM   14  H   UNL     1     -40.839  56.716 -54.020  1.00  0.00     0.169 HD
HETATM   15  O   UNL     1     -43.627  55.481 -54.734  1.00  0.00    -0.267 OA
BRANCH  13  16
HETATM   16  C   UNL     1     -41.187  54.902 -53.105  1.00  0.00     0.041 A 
HETATM   17  C   UNL     1     -40.560  53.757 -53.635  1.00  0.00    -0.035 A 
HETATM   18  C   UNL     1     -40.235  53.541 -55.088  1.00  0.00     0.050 C 
HETATM   19  C   UNL     1     -40.235  52.697 -52.762  1.00  0.00     0.009 A 
HETATM   20  C   UNL     1     -40.574  52.733 -51.412  1.00  0.00     0.001 A 
HETATM   21  C   UNL     1     -41.243  53.837 -50.904  1.00  0.00     0.002 A 
HETATM   22  C   UNL     1     -41.549  54.906 -51.745  1.00  0.00     0.030 A 
ENDBRANCH  13  16
ENDBRANCH   1  12
BRANCH   2  23
HETATM   23  C   UNL     1     -43.134  57.429 -57.394  1.00  0.00    -0.028 A 
HETATM   24  C   UNL     1     -44.424  57.864 -57.752  1.00  0.00     0.011 A 
HETATM   25  C   UNL     1     -45.102  57.277 -58.823  1.00  0.00     0.024 A 
HETATM   26  C   UNL     1     -44.502  56.247 -59.542  1.00  0.00     0.034 A 
HETATM   27 CL   UNL     1     -45.341  55.521 -60.858  1.00  0.00    -0.084 Cl
HETATM   28  C   UNL     1     -43.226  55.802 -59.206  1.00  0.00     0.024 A 
HETATM   29  C   UNL     1     -42.544  56.391 -58.138  1.00  0.00     0.011 A 
ENDBRANCH   2  23
BRANCH   7  30
HETATM   30  C   UNL     1     -41.879  62.430 -58.357  1.00  0.00     0.085 C 
BRANCH  30  31
HETATM   31  C   UNL     1     -40.642  62.159 -59.215  1.00  0.00     0.034 C 
BRANCH  31  32
HETATM   32  C   UNL     1     -40.981  61.795 -60.657  1.00  0.00     0.164 C 
BRANCH  32  33
HETATM   33  O   UNL     1     -41.736  60.588 -60.686  1.00  0.00    -0.401 OA
HETATM   34  H   UNL     1     -42.352  60.643 -61.436  1.00  0.00     0.209 HD
ENDBRANCH  32  33
ENDBRANCH  31  32
ENDBRANCH  30  31
ENDBRANCH   7  30
TORSDOF 7
ENDMDL
MODEL 10
REMARK VINA RESULT:      -7.5      2.811      4.088
REMARK  7 active torsions:
REMARK  status: ('A' for Active; 'I' for Inactive)
REMARK    1  A    between atoms: C_3  and  N_4 
REMARK       I    between atoms: N_4  and  C_5 
REMARK    2  A    between atoms: C_5  and  C_6 
REMARK    3  A    between atoms: C_7  and  C_8 
REMARK    4  A    between atoms: C_19  and  C_20 
REMARK    5  A    between atoms: C_20  and  C_21 
REMARK    6  A    between atoms: C_21  and  C_22 
REMARK    7  A    between atoms: C_22  and  O_23 
ROOT
HETATM    1  C   UNL     1     -43.075  56.584 -51.437  1.00  0.00     0.062 C 
HETATM    2  C   UNL     1     -43.018  57.981 -52.067  1.00  0.00     0.202 C 
HETATM    3  N   UNL     1     -44.099  58.833 -51.556  1.00  0.00    -0.083 N 
HETATM    4  C   UNL     1     -45.176  58.358 -50.859  1.00  0.00     0.726 A 
HETATM    5  N   UNL     1     -45.212  57.061 -50.505  1.00  0.00    -0.192 N 
HETATM    6  N   UNL     1     -44.222  60.152 -51.812  1.00  0.00    -0.140 NA
HETATM    7  C   UNL     1     -45.444  60.390 -51.312  1.00  0.00     0.166 A 
HETATM    8  N   UNL     1     -46.044  59.320 -50.687  1.00  0.00    -0.046 NA
HETATM    9  C   UNL     1     -44.174  56.170 -50.752  1.00  0.00     0.037 C 
HETATM   10  C   UNL     1     -44.409  54.764 -50.255  1.00  0.00     0.070 C 
HETATM   11  H   UNL     1     -46.024  56.721 -49.998  1.00  0.00     0.184 HD
ENDROOT
BRANCH   1  12
HETATM   12  C   UNL     1     -41.855  55.747 -51.663  1.00  0.00     0.256 C 
HETATM   13  N   UNL     1     -42.106  54.542 -52.278  1.00  0.00    -0.323 N 
HETATM   14  H   UNL     1     -43.062  54.212 -52.227  1.00  0.00     0.169 HD
HETATM   15  O   UNL     1     -40.782  56.091 -51.185  1.00  0.00    -0.267 OA
BRANCH  13  16
HETATM   16  C   UNL     1     -41.181  53.633 -52.842  1.00  0.00     0.041 A 
HETATM   17  C   UNL     1     -40.843  53.524 -54.205  1.00  0.00    -0.035 A 
HETATM   18  C   UNL     1     -41.449  54.337 -55.316  1.00  0.00     0.050 C 
HETATM   19  C   UNL     1     -39.892  52.556 -54.591  1.00  0.00     0.009 A 
HETATM   20  C   UNL     1     -39.331  51.675 -53.671  1.00  0.00     0.001 A 
HETATM   21  C   UNL     1     -39.709  51.746 -52.338  1.00  0.00     0.002 A 
HETATM   22  C   UNL     1     -40.628  52.713 -51.931  1.00  0.00     0.030 A 
ENDBRANCH  13  16
ENDBRANCH   1  12
BRANCH   2  23
HETATM   23  C   UNL     1     -43.092  57.964 -53.597  1.00  0.00    -0.028 A 
HETATM   24  C   UNL     1     -42.129  58.616 -54.390  1.00  0.00     0.011 A 
HETATM   25  C   UNL     1     -42.211  58.579 -55.784  1.00  0.00     0.024 A 
HETATM   26  C   UNL     1     -43.257  57.896 -56.399  1.00  0.00     0.034 A 
HETATM   27 CL   UNL     1     -43.359  57.855 -58.116  1.00  0.00    -0.084 Cl
HETATM   28  C   UNL     1     -44.219  57.243 -55.633  1.00  0.00     0.024 A 
HETATM   29  C   UNL     1     -44.137  57.275 -54.239  1.00  0.00     0.011 A 
ENDBRANCH   2  23
BRANCH   7  30
HETATM   30  C   UNL     1     -46.157  61.675 -51.511  1.00  0.00     0.085 C 
BRANCH  30  31
HETATM   31  C   UNL     1     -47.118  61.638 -52.701  1.00  0.00     0.034 C 
BRANCH  31  32
HETATM   32  C   UNL     1     -46.411  61.766 -54.046  1.00  0.00     0.164 C 
BRANCH  32  33
HETATM   33  O   UNL     1     -46.028  60.478 -54.516  1.00  0.00    -0.401 OA
HETATM   34  H   UNL     1     -45.216  60.223 -54.047  1.00  0.00     0.209 HD
ENDBRANCH  32  33
ENDBRANCH  31  32
ENDBRANCH  30  31
ENDBRANCH   7  30
TORSDOF 7
ENDMDL
