MODEL 1
REMARK VINA RESULT:      -8.4      0.000      0.000
REMARK  5 active torsions:
REMARK  status: ('A' for Active; 'I' for Inactive)
REMARK    1  A    between atoms: C_4  and  C_5 
REMARK    2  A    between atoms: C_9  and  C_10 
REMARK       I    between atoms: C_10  and  N_11 
REMARK    3  A    between atoms: N_11  and  C_12 
REMARK    4  A    between atoms: C_14  and  C_15 
REMARK       I    between atoms: C_15  and  N_16 
REMARK    5  A    between atoms: N_16  and  C_17 
ROOT
HETATM    1  C   UNL     1     -41.647  56.936 -53.449  1.00  0.00     0.276 C 
HETATM    2  N   UNL     1     -43.031  56.941 -53.469  1.00  0.00    -0.322 N 
HETATM    3  O   UNL     1     -40.921  57.884 -53.167  1.00  0.00    -0.266 OA
HETATM    4  H   UNL     1     -43.441  56.029 -53.660  1.00  0.00     0.169 HD
ENDROOT
BRANCH   2   5
HETATM    5  C   UNL     1     -43.882  58.022 -53.178  1.00  0.00     0.036 A 
HETATM    6  C   UNL     1     -44.256  58.366 -51.877  1.00  0.00     0.046 A 
HETATM    7  C   UNL     1     -45.158  59.412 -51.639  1.00  0.00     0.034 A 
HETATM    8  C   UNL     1     -45.643  60.163 -52.713  1.00  0.00     0.017 A 
HETATM    9  C   UNL     1     -45.249  59.849 -54.014  1.00  0.00     0.003 A 
HETATM   10  C   UNL     1     -44.376  58.781 -54.245  1.00  0.00     0.029 A 
BRANCH   7  11
HETATM   11  C   UNL     1     -45.594  59.755 -50.254  1.00  0.00     0.252 C 
HETATM   12  N   UNL     1     -45.275  61.030 -49.820  1.00  0.00    -0.352 N 
HETATM   13  H   UNL     1     -44.685  61.616 -50.397  1.00  0.00     0.163 HD
HETATM   14  O   UNL     1     -46.177  58.919 -49.572  1.00  0.00    -0.268 OA
BRANCH  12  15
HETATM   15  C   UNL     1     -45.659  61.546 -48.544  1.00  0.00     0.084 A 
HETATM   16  C   UNL     1     -44.770  61.349 -47.347  1.00  0.00     0.027 A 
HETATM   17  C   UNL     1     -44.907  62.712 -47.957  1.00  0.00     0.027 A 
ENDBRANCH  12  15
ENDBRANCH   7  11
ENDBRANCH   2   5
BRANCH   1  18
HETATM   18  C   UNL     1     -41.077  55.619 -53.777  1.00  0.00     0.147 A 
HETATM   19  N   UNL     1     -40.534  55.333 -54.978  1.00  0.00    -0.169 NA
HETATM   20  N   UNL     1     -40.153  54.044 -54.854  1.00  0.00    -0.277 N 
HETATM   21  C   UNL     1     -40.424  53.486 -53.631  1.00  0.00     0.063 A 
HETATM   22  H   UNL     1     -39.725  53.592 -55.654  1.00  0.00     0.189 HD
HETATM   23  C   UNL     1     -41.031  54.497 -52.917  1.00  0.00     0.071 A 
BRANCH  21  24
HETATM   24  C   UNL     1     -40.126  52.104 -53.264  1.00  0.00    -0.008 A 
HETATM   25  C   UNL     1     -40.127  51.077 -54.217  1.00  0.00     0.014 A 
HETATM   26  C   UNL     1     -39.817  49.766 -53.846  1.00  0.00     0.001 A 
HETATM   27  C   UNL     1     -39.504  49.465 -52.522  1.00  0.00     0.000 A 
HETATM   28  C   UNL     1     -39.500  50.477 -51.565  1.00  0.00     0.001 A 
HETATM   29  C   UNL     1     -39.807  51.788 -51.935  1.00  0.00     0.014 A 
ENDBRANCH  21  24
ENDBRANCH   1  18
TORSDOF 5
ENDMDL
MODEL 2
REMARK VINA RESULT:      -8.4      5.017      7.382
REMARK  5 active torsions:
REMARK  status: ('A' for Active; 'I' for Inactive)
REMARK    1  A    between atoms: C_4  and  C_5 
REMARK    2  A    between atoms: C_9  and  C_10 
REMARK       I    between atoms: C_10  and  N_11 
REMARK    3  A    between atoms: N_11  and  C_12 
REMARK    4  A    between atoms: C_14  and  C_15 
REMARK       I    between atoms: C_15  and  N_16 
REMARK    5  A    between atoms: N_16  and  C_17 
ROOT
HETATM    1  C   UNL     1     -42.048  56.557 -55.799  1.00  0.00     0.276 C 
HETATM    2  N   UNL     1     -42.417  55.949 -56.987  1.00  0.00    -0.322 N 
HETATM    3  O   UNL     1     -42.162  57.747 -55.528  1.00  0.00    -0.266 OA
HETATM    4  H   UNL     1     -42.304  54.936 -56.981  1.00  0.00     0.169 HD
ENDROOT
BRANCH   2   5
HETATM    5  C   UNL     1     -42.989  56.562 -58.116  1.00  0.00     0.036 A 
HETATM    6  C   UNL     1     -44.363  56.561 -58.368  1.00  0.00     0.046 A 
HETATM    7  C   UNL     1     -44.881  57.130 -59.539  1.00  0.00     0.034 A 
HETATM    8  C   UNL     1     -44.020  57.762 -60.438  1.00  0.00     0.017 A 
HETATM    9  C   UNL     1     -42.649  57.799 -60.179  1.00  0.00     0.003 A 
HETATM   10  C   UNL     1     -42.136  57.198 -59.025  1.00  0.00     0.029 A 
BRANCH   7  11
HETATM   11  C   UNL     1     -46.343  57.092 -59.833  1.00  0.00     0.252 C 
HETATM   12  N   UNL     1     -46.686  56.930 -61.164  1.00  0.00    -0.352 N 
HETATM   13  H   UNL     1     -45.960  56.955 -61.869  1.00  0.00     0.163 HD
HETATM   14  O   UNL     1     -47.154  57.221 -58.921  1.00  0.00    -0.268 OA
BRANCH  12  15
HETATM   15  C   UNL     1     -48.035  56.821 -61.622  1.00  0.00     0.084 A 
HETATM   16  C   UNL     1     -48.694  57.974 -62.327  1.00  0.00     0.027 A 
HETATM   17  C   UNL     1     -48.316  56.746 -63.100  1.00  0.00     0.027 A 
ENDBRANCH  12  15
ENDBRANCH   7  11
ENDBRANCH   2   5
BRANCH   1  18
HETATM   18  C   UNL     1     -41.507  55.605 -54.815  1.00  0.00     0.147 A 
HETATM   19  N   UNL     1     -41.129  55.969 -53.574  1.00  0.00    -0.169 NA
HETATM   20  N   UNL     1     -40.695  54.815 -53.024  1.00  0.00    -0.277 N 
HETATM   21  C   UNL     1     -40.775  53.725 -53.852  1.00  0.00     0.063 A 
HETATM   22  H   UNL     1     -40.335  54.841 -52.076  1.00  0.00     0.189 HD
HETATM   23  C   UNL     1     -41.298  54.222 -55.027  1.00  0.00     0.071 A 
BRANCH  21  24
HETATM   24  C   UNL     1     -40.348  52.375 -53.493  1.00  0.00    -0.008 A 
HETATM   25  C   UNL     1     -39.887  52.071 -52.206  1.00  0.00     0.014 A 
HETATM   26  C   UNL     1     -39.505  50.767 -51.879  1.00  0.00     0.001 A 
HETATM   27  C   UNL     1     -39.577  49.754 -52.833  1.00  0.00     0.000 A 
HETATM   28  C   UNL     1     -40.034  50.043 -54.117  1.00  0.00     0.001 A 
HETATM   29  C   UNL     1     -40.418  51.345 -54.443  1.00  0.00     0.014 A 
ENDBRANCH  21  24
ENDBRANCH   1  18
TORSDOF 5
ENDMDL
MODEL 3
REMARK VINA RESULT:      -8.2      4.920      6.611
REMARK  5 active torsions:
REMARK  status: ('A' for Active; 'I' for Inactive)
REMARK    1  A    between atoms: C_4  and  C_5 
REMARK    2  A    between atoms: C_9  and  C_10 
REMARK       I    between atoms: C_10  and  N_11 
REMARK    3  A    between atoms: N_11  and  C_12 
REMARK    4  A    between atoms: C_14  and  C_15 
REMARK       I    between atoms: C_15  and  N_16 
REMARK    5  A    between atoms: N_16  and  C_17 
ROOT
HETATM    1  C   UNL     1     -42.357  56.210 -55.707  1.00  0.00     0.276 C 
HETATM    2  N   UNL     1     -42.169  55.824 -57.023  1.00  0.00    -0.322 N 
HETATM    3  O   UNL     1     -43.032  57.158 -55.318  1.00  0.00    -0.266 OA
HETATM    4  H   UNL     1     -41.630  54.965 -57.124  1.00  0.00     0.169 HD
ENDROOT
BRANCH   2   5
HETATM    5  C   UNL     1     -42.701  56.432 -58.173  1.00  0.00     0.036 A 
HETATM    6  C   UNL     1     -42.332  57.712 -58.596  1.00  0.00     0.046 A 
HETATM    7  C   UNL     1     -42.936  58.304 -59.714  1.00  0.00     0.034 A 
HETATM    8  C   UNL     1     -43.877  57.582 -60.453  1.00  0.00     0.017 A 
HETATM    9  C   UNL     1     -44.227  56.290 -60.059  1.00  0.00     0.003 A 
HETATM   10  C   UNL     1     -43.645  55.720 -58.921  1.00  0.00     0.029 A 
BRANCH   7  11
HETATM   11  C   UNL     1     -42.577  59.686 -60.143  1.00  0.00     0.252 C 
HETATM   12  N   UNL     1     -41.874  60.441 -59.220  1.00  0.00    -0.352 N 
HETATM   13  H   UNL     1     -41.735  60.076 -58.285  1.00  0.00     0.163 HD
HETATM   14  O   UNL     1     -42.923  60.092 -61.247  1.00  0.00    -0.268 OA
BRANCH  12  15
HETATM   15  C   UNL     1     -41.404  61.764 -59.479  1.00  0.00     0.084 A 
HETATM   16  C   UNL     1     -41.490  62.823 -58.415  1.00  0.00     0.027 A 
HETATM   17  C   UNL     1     -40.154  62.258 -58.797  1.00  0.00     0.027 A 
ENDBRANCH  12  15
ENDBRANCH   7  11
ENDBRANCH   2   5
BRANCH   1  18
HETATM   18  C   UNL     1     -41.674  55.326 -54.749  1.00  0.00     0.147 A 
HETATM   19  N   UNL     1     -41.116  55.772 -53.607  1.00  0.00    -0.169 NA
HETATM   20  N   UNL     1     -40.603  54.656 -53.047  1.00  0.00    -0.277 N 
HETATM   21  C   UNL     1     -40.804  53.511 -53.775  1.00  0.00     0.063 A 
HETATM   22  H   UNL     1     -40.106  54.745 -52.168  1.00  0.00     0.189 HD
HETATM   23  C   UNL     1     -41.497  53.929 -54.891  1.00  0.00     0.071 A 
BRANCH  21  24
HETATM   24  C   UNL     1     -40.326  52.186 -53.389  1.00  0.00    -0.008 A 
HETATM   25  C   UNL     1     -39.879  51.919 -52.089  1.00  0.00     0.014 A 
HETATM   26  C   UNL     1     -39.446  50.638 -51.736  1.00  0.00     0.001 A 
HETATM   27  C   UNL     1     -39.456  49.610 -52.678  1.00  0.00     0.000 A 
HETATM   28  C   UNL     1     -39.898  49.862 -53.973  1.00  0.00     0.001 A 
HETATM   29  C   UNL     1     -40.332  51.142 -54.325  1.00  0.00     0.014 A 
ENDBRANCH  21  24
ENDBRANCH   1  18
TORSDOF 5
ENDMDL
MODEL 4
REMARK VINA RESULT:      -8.0      4.880      9.664
REMARK  5 active torsions:
REMARK  status: ('A' for Active; 'I' for Inactive)
REMARK    1  A    between atoms: C_4  and  C_5 
REMARK    2  A    between atoms: C_9  and  C_10 
REMARK       I    between atoms: C_10  and  N_11 
REMARK    3  A    between atoms: N_11  and  C_12 
REMARK    4  A    between atoms: C_14  and  C_15 
REMARK       I    between atoms: C_15  and  N_16 
REMARK    5  A    between atoms: N_16  and  C_17 
ROOT
HETATM    1  C   UNL     1     -43.103  56.523 -56.917  1.00  0.00     0.276 C 
HETATM    2  N   UNL     1     -43.572  55.589 -56.010  1.00  0.00    -0.322 N 
HETATM    3  O   UNL     1     -42.156  57.285 -56.751  1.00  0.00    -0.266 OA
HETATM    4  H   UNL     1     -44.324  55.006 -56.374  1.00  0.00     0.169 HD
ENDROOT
BRANCH   2   5
HETATM    5  C   UNL     1     -43.069  55.325 -54.723  1.00  0.00     0.036 A 
HETATM    6  C   UNL     1     -42.073  54.377 -54.476  1.00  0.00     0.046 A 
HETATM    7  C   UNL     1     -41.648  54.103 -53.169  1.00  0.00     0.034 A 
HETATM    8  C   UNL     1     -42.184  54.830 -52.102  1.00  0.00     0.017 A 
HETATM    9  C   UNL     1     -43.155  55.803 -52.342  1.00  0.00     0.003 A 
HETATM   10  C   UNL     1     -43.599  56.046 -53.647  1.00  0.00     0.029 A 
BRANCH   7  11
HETATM   11  C   UNL     1     -40.616  53.062 -52.896  1.00  0.00     0.252 C 
HETATM   12  N   UNL     1     -40.440  52.113 -53.888  1.00  0.00    -0.352 N 
HETATM   13  H   UNL     1     -41.073  52.100 -54.679  1.00  0.00     0.163 HD
HETATM   14  O   UNL     1     -40.001  53.074 -51.835  1.00  0.00    -0.268 OA
BRANCH  12  15
HETATM   15  C   UNL     1     -39.462  51.074 -53.820  1.00  0.00     0.084 A 
HETATM   16  C   UNL     1     -39.761  49.796 -53.086  1.00  0.00     0.027 A 
HETATM   17  C   UNL     1     -39.680  49.794 -54.584  1.00  0.00     0.027 A 
ENDBRANCH  12  15
ENDBRANCH   7  11
ENDBRANCH   2   5
BRANCH   1  18
HETATM   18  C   UNL     1     -43.848  56.510 -58.186  1.00  0.00     0.147 A 
HETATM   19  N   UNL     1     -43.431  55.834 -59.275  1.00  0.00    -0.169 NA
HETATM   20  N   UNL     1     -44.383  56.096 -60.195  1.00  0.00    -0.277 N 
HETATM   21  C   UNL     1     -45.394  56.910 -59.751  1.00  0.00     0.063 A 
HETATM   22  H   UNL     1     -44.276  55.701 -61.123  1.00  0.00     0.189 HD
HETATM   23  C   UNL     1     -45.059  57.194 -58.444  1.00  0.00     0.071 A 
BRANCH  21  24
HETATM   24  C   UNL     1     -46.523  57.352 -60.565  1.00  0.00    -0.008 A 
HETATM   25  C   UNL     1     -46.846  58.709 -60.694  1.00  0.00     0.014 A 
HETATM   26  C   UNL     1     -47.918  59.110 -61.496  1.00  0.00     0.001 A 
HETATM   27  C   UNL     1     -48.678  58.162 -62.178  1.00  0.00     0.000 A 
HETATM   28  C   UNL     1     -48.368  56.810 -62.059  1.00  0.00     0.001 A 
HETATM   29  C   UNL     1     -47.295  56.409 -61.259  1.00  0.00     0.014 A 
ENDBRANCH  21  24
ENDBRANCH   1  18
TORSDOF 5
ENDMDL
MODEL 5
REMARK VINA RESULT:      -7.9      5.083      7.035
REMARK  5 active torsions:
REMARK  status: ('A' for Active; 'I' for Inactive)
REMARK    1  A    between atoms: C_4  and  C_5 
REMARK    2  A    between atoms: C_9  and  C_10 
REMARK       I    between atoms: C_10  and  N_11 
REMARK    3  A    between atoms: N_11  and  C_12 
REMARK    4  A    between atoms: C_14  and  C_15 
REMARK       I    between atoms: C_15  and  N_16 
REMARK    5  A    between atoms: N_16  and  C_17 
ROOT
HETATM    1  C   UNL     1     -43.166  57.053 -56.131  1.00  0.00     0.276 C 
HETATM    2  N   UNL     1     -42.231  57.091 -57.151  1.00  0.00    -0.322 N 
HETATM    3  O   UNL     1     -44.118  57.815 -55.990  1.00  0.00    -0.266 OA
HETATM    4  H   UNL     1     -41.563  56.322 -57.122  1.00  0.00     0.169 HD
ENDROOT
BRANCH   2   5
HETATM    5  C   UNL     1     -42.175  58.001 -58.221  1.00  0.00     0.036 A 
HETATM    6  C   UNL     1     -41.735  59.319 -58.076  1.00  0.00     0.046 A 
HETATM    7  C   UNL     1     -41.756  60.209 -59.158  1.00  0.00     0.034 A 
HETATM    8  C   UNL     1     -42.164  59.757 -60.415  1.00  0.00     0.017 A 
HETATM    9  C   UNL     1     -42.573  58.432 -60.579  1.00  0.00     0.003 A 
HETATM   10  C   UNL     1     -42.582  57.560 -59.485  1.00  0.00     0.029 A 
BRANCH   7  11
HETATM   11  C   UNL     1     -41.328  61.629 -58.998  1.00  0.00     0.252 C 
HETATM   12  N   UNL     1     -40.599  62.161 -60.047  1.00  0.00    -0.352 N 
HETATM   13  H   UNL     1     -40.302  61.554 -60.802  1.00  0.00     0.163 HD
HETATM   14  O   UNL     1     -41.610  62.239 -57.972  1.00  0.00    -0.268 OA
BRANCH  12  15
HETATM   15  C   UNL     1     -40.152  63.517 -60.087  1.00  0.00     0.084 A 
HETATM   16  C   UNL     1     -38.825  63.898 -59.492  1.00  0.00     0.027 A 
HETATM   17  C   UNL     1     -39.000  63.895 -60.981  1.00  0.00     0.027 A 
ENDBRANCH  12  15
ENDBRANCH   7  11
ENDBRANCH   2   5
BRANCH   1  18
HETATM   18  C   UNL     1     -42.941  55.944 -55.191  1.00  0.00     0.147 A 
HETATM   19  N   UNL     1     -43.890  55.494 -54.345  1.00  0.00    -0.169 NA
HETATM   20  N   UNL     1     -43.270  54.500 -53.674  1.00  0.00    -0.277 N 
HETATM   21  C   UNL     1     -41.967  54.288 -54.046  1.00  0.00     0.063 A 
HETATM   22  H   UNL     1     -43.790  54.012 -52.953  1.00  0.00     0.189 HD
HETATM   23  C   UNL     1     -41.734  55.223 -55.031  1.00  0.00     0.071 A 
BRANCH  21  24
HETATM   24  C   UNL     1     -41.086  53.286 -53.453  1.00  0.00    -0.008 A 
HETATM   25  C   UNL     1     -40.548  52.241 -54.214  1.00  0.00     0.014 A 
HETATM   26  C   UNL     1     -39.689  51.307 -53.629  1.00  0.00     0.001 A 
HETATM   27  C   UNL     1     -39.358  51.406 -52.279  1.00  0.00     0.000 A 
HETATM   28  C   UNL     1     -39.886  52.440 -51.511  1.00  0.00     0.001 A 
HETATM   29  C   UNL     1     -40.743  53.375 -52.096  1.00  0.00     0.014 A 
ENDBRANCH  21  24
ENDBRANCH   1  18
TORSDOF 5
ENDMDL
MODEL 6
REMARK VINA RESULT:      -7.8      2.150      2.815
REMARK  5 active torsions:
REMARK  status: ('A' for Active; 'I' for Inactive)
REMARK    1  A    between atoms: C_4  and  C_5 
REMARK    2  A    between atoms: C_9  and  C_10 
REMARK       I    between atoms: C_10  and  N_11 
REMARK    3  A    between atoms: N_11  and  C_12 
REMARK    4  A    between atoms: C_14  and  C_15 
REMARK       I    between atoms: C_15  and  N_16 
REMARK    5  A    between atoms: N_16  and  C_17 
ROOT
HETATM    1  C   UNL     1     -43.985  57.005 -51.014  1.00  0.00     0.276 C 
HETATM    2  N   UNL     1     -43.715  58.252 -51.551  1.00  0.00    -0.322 N 
HETATM    3  O   UNL     1     -45.054  56.636 -50.539  1.00  0.00    -0.266 OA
HETATM    4  H   UNL     1     -42.784  58.329 -51.959  1.00  0.00     0.169 HD
ENDROOT
BRANCH   2   5
HETATM    5  C   UNL     1     -44.597  59.343 -51.658  1.00  0.00     0.036 A 
HETATM    6  C   UNL     1     -44.933  60.157 -50.574  1.00  0.00     0.046 A 
HETATM    7  C   UNL     1     -45.865  61.194 -50.713  1.00  0.00     0.034 A 
HETATM    8  C   UNL     1     -46.421  61.458 -51.968  1.00  0.00     0.017 A 
HETATM    9  C   UNL     1     -46.066  60.671 -53.065  1.00  0.00     0.003 A 
HETATM   10  C   UNL     1     -45.161  59.616 -52.909  1.00  0.00     0.029 A 
BRANCH   7  11
HETATM   11  C   UNL     1     -46.260  62.038 -49.549  1.00  0.00     0.252 C 
HETATM   12  N   UNL     1     -45.624  61.751 -48.353  1.00  0.00    -0.352 N 
HETATM   13  H   UNL     1     -45.023  60.938 -48.295  1.00  0.00     0.163 HD
HETATM   14  O   UNL     1     -47.114  62.907 -49.686  1.00  0.00    -0.268 OA
BRANCH  12  15
HETATM   15  C   UNL     1     -45.840  62.489 -47.149  1.00  0.00     0.084 A 
HETATM   16  C   UNL     1     -46.895  62.055 -46.170  1.00  0.00     0.027 A 
HETATM   17  C   UNL     1     -45.445  61.888 -45.826  1.00  0.00     0.027 A 
ENDBRANCH  12  15
ENDBRANCH   7  11
ENDBRANCH   2   5
BRANCH   1  18
HETATM   18  C   UNL     1     -42.836  56.089 -51.092  1.00  0.00     0.147 A 
HETATM   19  N   UNL     1     -41.745  56.213 -50.311  1.00  0.00    -0.169 NA
HETATM   20  N   UNL     1     -40.952  55.196 -50.711  1.00  0.00    -0.277 N 
HETATM   21  C   UNL     1     -41.481  54.422 -51.712  1.00  0.00     0.063 A 
HETATM   22  H   UNL     1     -40.045  55.093 -50.269  1.00  0.00     0.189 HD
HETATM   23  C   UNL     1     -42.708  54.993 -51.977  1.00  0.00     0.071 A 
BRANCH  21  24
HETATM   24  C   UNL     1     -40.807  53.281 -52.325  1.00  0.00    -0.008 A 
HETATM   25  C   UNL     1     -39.997  52.419 -51.574  1.00  0.00     0.014 A 
HETATM   26  C   UNL     1     -39.380  51.320 -52.177  1.00  0.00     0.001 A 
HETATM   27  C   UNL     1     -39.563  51.071 -53.536  1.00  0.00     0.000 A 
HETATM   28  C   UNL     1     -40.366  51.919 -54.294  1.00  0.00     0.001 A 
HETATM   29  C   UNL     1     -40.985  53.016 -53.691  1.00  0.00     0.014 A 
ENDBRANCH  21  24
ENDBRANCH   1  18
TORSDOF 5
ENDMDL
MODEL 7
REMARK VINA RESULT:      -7.7     16.892     19.260
REMARK  5 active torsions:
REMARK  status: ('A' for Active; 'I' for Inactive)
REMARK    1  A    between atoms: C_4  and  C_5 
REMARK    2  A    between atoms: C_9  and  C_10 
REMARK       I    between atoms: C_10  and  N_11 
REMARK    3  A    between atoms: N_11  and  C_12 
REMARK    4  A    between atoms: C_14  and  C_15 
REMARK       I    between atoms: C_15  and  N_16 
REMARK    5  A    between atoms: N_16  and  C_17 
ROOT
HETATM    1  C   UNL     1     -37.085  41.384 -54.852  1.00  0.00     0.276 C 
HETATM    2  N   UNL     1     -36.376  41.286 -56.036  1.00  0.00    -0.322 N 
HETATM    3  O   UNL     1     -38.306  41.368 -54.734  1.00  0.00    -0.266 OA
HETATM    4  H   UNL     1     -35.366  41.248 -55.907  1.00  0.00     0.169 HD
ENDROOT
BRANCH   2   5
HETATM    5  C   UNL     1     -36.901  41.153 -57.335  1.00  0.00     0.036 A 
HETATM    6  C   UNL     1     -37.552  39.999 -57.777  1.00  0.00     0.046 A 
HETATM    7  C   UNL     1     -38.002  39.888 -59.099  1.00  0.00     0.034 A 
HETATM    8  C   UNL     1     -37.854  40.968 -59.972  1.00  0.00     0.017 A 
HETATM    9  C   UNL     1     -37.235  42.138 -59.530  1.00  0.00     0.003 A 
HETATM   10  C   UNL     1     -36.757  42.228 -58.219  1.00  0.00     0.029 A 
BRANCH   7  11
HETATM   11  C   UNL     1     -38.660  38.641 -59.587  1.00  0.00     0.252 C 
HETATM   12  N   UNL     1     -39.187  38.699 -60.866  1.00  0.00    -0.352 N 
HETATM   13  H   UNL     1     -39.203  39.585 -61.355  1.00  0.00     0.163 HD
HETATM   14  O   UNL     1     -38.723  37.657 -58.858  1.00  0.00    -0.268 OA
BRANCH  12  15
HETATM   15  C   UNL     1     -39.805  37.586 -61.514  1.00  0.00     0.084 A 
HETATM   16  C   UNL     1     -41.303  37.501 -61.615  1.00  0.00     0.027 A 
HETATM   17  C   UNL     1     -40.489  37.782 -62.842  1.00  0.00     0.027 A 
ENDBRANCH  12  15
ENDBRANCH   7  11
ENDBRANCH   2   5
BRANCH   1  18
HETATM   18  C   UNL     1     -36.213  41.481 -53.671  1.00  0.00     0.147 A 
HETATM   19  N   UNL     1     -35.734  42.652 -53.206  1.00  0.00    -0.169 NA
HETATM   20  N   UNL     1     -34.988  42.289 -52.141  1.00  0.00    -0.277 N 
HETATM   21  C   UNL     1     -34.964  40.939 -51.897  1.00  0.00     0.063 A 
HETATM   22  H   UNL     1     -34.501  43.015 -51.627  1.00  0.00     0.189 HD
HETATM   23  C   UNL     1     -35.753  40.396 -52.888  1.00  0.00     0.071 A 
BRANCH  21  24
HETATM   24  C   UNL     1     -34.213  40.303 -50.818  1.00  0.00    -0.008 A 
HETATM   25  C   UNL     1     -34.797  39.336 -49.991  1.00  0.00     0.014 A 
HETATM   26  C   UNL     1     -34.052  38.724 -48.979  1.00  0.00     0.001 A 
HETATM   27  C   UNL     1     -32.717  39.072 -48.782  1.00  0.00     0.000 A 
HETATM   28  C   UNL     1     -32.124  40.032 -49.597  1.00  0.00     0.001 A 
HETATM   29  C   UNL     1     -32.868  40.642 -50.610  1.00  0.00     0.014 A 
ENDBRANCH  21  24
ENDBRANCH   1  18
TORSDOF 5
ENDMDL
MODEL 8
REMARK VINA RESULT:      -7.5      1.970      2.237
REMARK  5 active torsions:
REMARK  status: ('A' for Active; 'I' for Inactive)
REMARK    1  A    between atoms: C_4  and  C_5 
REMARK    2  A    between atoms: C_9  and  C_10 
REMARK       I    between atoms: C_10  and  N_11 
REMARK    3  A    between atoms: N_11  and  C_12 
REMARK    4  A    between atoms: C_14  and  C_15 
REMARK       I    between atoms: C_15  and  N_16 
REMARK    5  A    between atoms: N_16  and  C_17 
ROOT
HETATM    1  C   UNL     1     -42.229  56.864 -53.328  1.00  0.00     0.276 C 
HETATM    2  N   UNL     1     -41.595  58.035 -53.704  1.00  0.00    -0.322 N 
HETATM    3  O   UNL     1     -43.332  56.773 -52.799  1.00  0.00    -0.266 OA
HETATM    4  H   UNL     1     -40.714  57.885 -54.194  1.00  0.00     0.169 HD
ENDROOT
BRANCH   2   5
HETATM    5  C   UNL     1     -42.075  59.349 -53.556  1.00  0.00     0.036 A 
HETATM    6  C   UNL     1     -42.325  59.931 -52.311  1.00  0.00     0.046 A 
HETATM    7  C   UNL     1     -42.863  61.221 -52.213  1.00  0.00     0.034 A 
HETATM    8  C   UNL     1     -43.097  61.961 -53.375  1.00  0.00     0.017 A 
HETATM    9  C   UNL     1     -42.820  61.401 -54.623  1.00  0.00     0.003 A 
HETATM   10  C   UNL     1     -42.315  60.099 -54.713  1.00  0.00     0.029 A 
BRANCH   7  11
HETATM   11  C   UNL     1     -43.172  61.830 -50.887  1.00  0.00     0.252 C 
HETATM   12  N   UNL     1     -43.965  61.070 -50.045  1.00  0.00    -0.352 N 
HETATM   13  H   UNL     1     -44.380  60.215 -50.394  1.00  0.00     0.163 HD
HETATM   14  O   UNL     1     -42.744  62.946 -50.612  1.00  0.00    -0.268 OA
BRANCH  12  15
HETATM   15  C   UNL     1     -44.318  61.472 -48.720  1.00  0.00     0.084 A 
HETATM   16  C   UNL     1     -45.480  62.399 -48.491  1.00  0.00     0.027 A 
HETATM   17  C   UNL     1     -45.589  60.955 -48.099  1.00  0.00     0.027 A 
ENDBRANCH  12  15
ENDBRANCH   7  11
ENDBRANCH   2   5
BRANCH   1  18
HETATM   18  C   UNL     1     -41.450  55.661 -53.661  1.00  0.00     0.147 A 
HETATM   19  N   UNL     1     -40.646  55.583 -54.740  1.00  0.00    -0.169 NA
HETATM   20  N   UNL     1     -40.144  54.331 -54.672  1.00  0.00    -0.277 N 
HETATM   21  C   UNL     1     -40.586  53.599 -53.599  1.00  0.00     0.063 A 
HETATM   22  H   UNL     1     -39.513  54.027 -55.404  1.00  0.00     0.189 HD
HETATM   23  C   UNL     1     -41.442  54.449 -52.932  1.00  0.00     0.071 A 
BRANCH  21  24
HETATM   24  C   UNL     1     -40.204  52.218 -53.322  1.00  0.00    -0.008 A 
HETATM   25  C   UNL     1     -39.809  51.810 -52.041  1.00  0.00     0.014 A 
HETATM   26  C   UNL     1     -39.468  50.477 -51.794  1.00  0.00     0.001 A 
HETATM   27  C   UNL     1     -39.518  49.538 -52.823  1.00  0.00     0.000 A 
HETATM   28  C   UNL     1     -39.910  49.929 -54.100  1.00  0.00     0.001 A 
HETATM   29  C   UNL     1     -40.252  51.261 -54.346  1.00  0.00     0.014 A 
ENDBRANCH  21  24
ENDBRANCH   1  18
TORSDOF 5
ENDMDL
MODEL 9
REMARK VINA RESULT:      -7.3      4.403      9.452
REMARK  5 active torsions:
REMARK  status: ('A' for Active; 'I' for Inactive)
REMARK    1  A    between atoms: C_4  and  C_5 
REMARK    2  A    between atoms: C_9  and  C_10 
REMARK       I    between atoms: C_10  and  N_11 
REMARK    3  A    between atoms: N_11  and  C_12 
REMARK    4  A    between atoms: C_14  and  C_15 
REMARK       I    between atoms: C_15  and  N_16 
REMARK    5  A    between atoms: N_16  and  C_17 
ROOT
HETATM    1  C   UNL     1     -42.843  57.080 -55.816  1.00  0.00     0.276 C 
HETATM    2  N   UNL     1     -41.653  56.741 -55.195  1.00  0.00    -0.322 N 
HETATM    3  O   UNL     1     -43.971  56.891 -55.373  1.00  0.00    -0.266 OA
HETATM    4  H   UNL     1     -40.824  57.050 -55.700  1.00  0.00     0.169 HD
ENDROOT
BRANCH   2   5
HETATM    5  C   UNL     1     -41.492  56.114 -53.946  1.00  0.00     0.036 A 
HETATM    6  C   UNL     1     -40.888  54.864 -53.795  1.00  0.00     0.046 A 
HETATM    7  C   UNL     1     -40.806  54.249 -52.538  1.00  0.00     0.034 A 
HETATM    8  C   UNL     1     -41.281  54.922 -51.410  1.00  0.00     0.017 A 
HETATM    9  C   UNL     1     -41.856  56.186 -51.545  1.00  0.00     0.003 A 
HETATM   10  C   UNL     1     -41.965  56.777 -52.808  1.00  0.00     0.029 A 
BRANCH   7  11
HETATM   11  C   UNL     1     -40.201  52.895 -52.379  1.00  0.00     0.252 C 
HETATM   12  N   UNL     1     -39.912  52.222 -53.554  1.00  0.00    -0.352 N 
HETATM   13  H   UNL     1     -40.215  52.615 -54.437  1.00  0.00     0.163 HD
HETATM   14  O   UNL     1     -40.008  52.440 -51.257  1.00  0.00    -0.268 OA
BRANCH  12  15
HETATM   15  C   UNL     1     -39.284  50.940 -53.593  1.00  0.00     0.084 A 
HETATM   16  C   UNL     1     -40.038  49.711 -53.165  1.00  0.00     0.027 A 
HETATM   17  C   UNL     1     -39.724  49.926 -54.616  1.00  0.00     0.027 A 
ENDBRANCH  12  15
ENDBRANCH   7  11
ENDBRANCH   2   5
BRANCH   1  18
HETATM   18  C   UNL     1     -42.640  57.754 -57.108  1.00  0.00     0.147 A 
HETATM   19  N   UNL     1     -42.906  57.167 -58.291  1.00  0.00    -0.169 NA
HETATM   20  N   UNL     1     -42.576  58.114 -59.196  1.00  0.00    -0.277 N 
HETATM   21  C   UNL     1     -42.108  59.283 -58.651  1.00  0.00     0.063 A 
HETATM   22  H   UNL     1     -42.675  57.892 -60.180  1.00  0.00     0.189 HD
HETATM   23  C   UNL     1     -42.139  59.065 -57.290  1.00  0.00     0.071 A 
BRANCH  21  24
HETATM   24  C   UNL     1     -41.668  60.441 -59.422  1.00  0.00    -0.008 A 
HETATM   25  C   UNL     1     -41.859  60.514 -60.808  1.00  0.00     0.014 A 
HETATM   26  C   UNL     1     -41.450  61.643 -61.522  1.00  0.00     0.001 A 
HETATM   27  C   UNL     1     -40.845  62.711 -60.862  1.00  0.00     0.000 A 
HETATM   28  C   UNL     1     -40.650  62.652 -59.484  1.00  0.00     0.001 A 
HETATM   29  C   UNL     1     -41.061  61.525 -58.770  1.00  0.00     0.014 A 
ENDBRANCH  21  24
ENDBRANCH   1  18
TORSDOF 5
ENDMDL
MODEL 10
REMARK VINA RESULT:      -7.3      2.120      3.018
REMARK  5 active torsions:
REMARK  status: ('A' for Active; 'I' for Inactive)
REMARK    1  A    between atoms: C_4  and  C_5 
REMARK    2  A    between atoms: C_9  and  C_10 
REMARK       I    between atoms: C_10  and  N_11 
REMARK    3  A    between atoms: N_11  and  C_12 
REMARK    4  A    between atoms: C_14  and  C_15 
REMARK       I    between atoms: C_15  and  N_16 
REMARK    5  A    between atoms: N_16  and  C_17 
ROOT
HETATM    1  C   UNL     1     -42.302  56.439 -51.494  1.00  0.00     0.276 C 
HETATM    2  N   UNL     1     -41.979  57.718 -51.915  1.00  0.00    -0.322 N 
HETATM    3  O   UNL     1     -43.088  56.147 -50.599  1.00  0.00    -0.266 OA
HETATM    4  H   UNL     1     -41.358  57.738 -52.723  1.00  0.00     0.169 HD
ENDROOT
BRANCH   2   5
HETATM    5  C   UNL     1     -42.474  58.932 -51.408  1.00  0.00     0.036 A 
HETATM    6  C   UNL     1     -43.828  59.274 -51.440  1.00  0.00     0.046 A 
HETATM    7  C   UNL     1     -44.268  60.522 -50.980  1.00  0.00     0.034 A 
HETATM    8  C   UNL     1     -43.349  61.415 -50.425  1.00  0.00     0.017 A 
HETATM    9  C   UNL     1     -41.998  61.071 -50.357  1.00  0.00     0.003 A 
HETATM   10  C   UNL     1     -41.563  59.836 -50.850  1.00  0.00     0.029 A 
BRANCH   7  11
HETATM   11  C   UNL     1     -45.707  60.908 -51.053  1.00  0.00     0.252 C 
HETATM   12  N   UNL     1     -46.171  61.272 -52.305  1.00  0.00    -0.352 N 
HETATM   13  H   UNL     1     -45.513  61.365 -53.069  1.00  0.00     0.163 HD
HETATM   14  O   UNL     1     -46.392  60.907 -50.036  1.00  0.00    -0.268 OA
BRANCH  12  15
HETATM   15  C   UNL     1     -47.531  61.621 -52.570  1.00  0.00     0.084 A 
HETATM   16  C   UNL     1     -48.009  63.030 -52.356  1.00  0.00     0.027 A 
HETATM   17  C   UNL     1     -47.858  62.499 -53.750  1.00  0.00     0.027 A 
ENDBRANCH  12  15
ENDBRANCH   7  11
ENDBRANCH   2   5
BRANCH   1  18
HETATM   18  C   UNL     1     -41.618  55.393 -52.270  1.00  0.00     0.147 A 
HETATM   19  N   UNL     1     -41.134  55.598 -53.511  1.00  0.00    -0.169 NA
HETATM   20  N   UNL     1     -40.607  54.401 -53.848  1.00  0.00    -0.277 N 
HETATM   21  C   UNL     1     -40.730  53.434 -52.882  1.00  0.00     0.063 A 
HETATM   22  H   UNL     1     -40.191  54.301 -54.767  1.00  0.00     0.189 HD
HETATM   23  C   UNL     1     -41.391  54.061 -51.848  1.00  0.00     0.071 A 
BRANCH  21  24
HETATM   24  C   UNL     1     -40.260  52.058 -53.020  1.00  0.00    -0.008 A 
HETATM   25  C   UNL     1     -39.815  51.323 -51.914  1.00  0.00     0.014 A 
HETATM   26  C   UNL     1     -39.391  50.000 -52.066  1.00  0.00     0.001 A 
HETATM   27  C   UNL     1     -39.406  49.398 -53.323  1.00  0.00     0.000 A 
HETATM   28  C   UNL     1     -39.846  50.117 -54.430  1.00  0.00     0.001 A 
HETATM   29  C   UNL     1     -40.272  51.439 -54.278  1.00  0.00     0.014 A 
ENDBRANCH  21  24
ENDBRANCH   1  18
TORSDOF 5
ENDMDL
