MODEL 1
REMARK VINA RESULT:      -9.2      0.000      0.000
REMARK  5 active torsions:
REMARK  status: ('A' for Active; 'I' for Inactive)
REMARK    1  A    between atoms: O_2  and  C_3 
REMARK    2  A    between atoms: C_6  and  N_7 
REMARK    3  A    between atoms: C_11  and  C_12 
REMARK    4  A    between atoms: C_12  and  N_13 
REMARK       I    between atoms: N_13  and  C_14 
REMARK    5  A    between atoms: C_14  and  C_15 
ROOT
HETATM    1  N   UNL     1     -42.276  55.342 -54.516  1.00  0.00    -0.360 N 
HETATM    2  C   UNL     1     -41.226  54.531 -54.124  1.00  0.00     0.230 C 
HETATM    3  O   UNL     1     -40.097  54.639 -54.601  1.00  0.00    -0.272 OA
HETATM    4  H   UNL     1     -43.159  55.249 -54.024  1.00  0.00     0.162 HD
ENDROOT
BRANCH   1   5
HETATM    5  C   UNL     1     -42.091  56.459 -55.414  1.00  0.00     0.129 C 
BRANCH   5   6
HETATM    6  C   UNL     1     -42.115  57.805 -54.701  1.00  0.00     0.031 C 
HETATM    7  C   UNL     1     -40.868  58.028 -53.857  1.00  0.00     0.111 C 
HETATM    8  C   UNL     1     -41.344  58.922 -52.739  1.00  0.00     0.224 C 
HETATM    9  N   UNL     1     -42.744  58.840 -52.685  1.00  0.00    -0.318 N 
HETATM   10  O   UNL     1     -40.573  59.533 -52.016  1.00  0.00    -0.273 OA
HETATM   11  C   UNL     1     -43.247  57.936 -53.696  1.00  0.00     0.139 C 
BRANCH   9  12
HETATM   12  C   UNL     1     -43.590  59.452 -51.719  1.00  0.00     0.037 A 
HETATM   13  C   UNL     1     -43.401  60.775 -51.299  1.00  0.00     0.032 A 
HETATM   14  C   UNL     1     -44.252  61.377 -50.359  1.00  0.00     0.039 A 
HETATM   15  C   UNL     1     -45.319  60.667 -49.820  1.00  0.00     0.068 A 
HETATM   16  C   UNL     1     -45.511  59.344 -50.212  1.00  0.00     0.039 A 
HETATM   17  C   UNL     1     -44.660  58.745 -51.151  1.00  0.00     0.032 A 
BRANCH  15  18
HETATM   18  O   UNL     1     -46.224  61.137 -48.911  1.00  0.00    -0.356 OA
HETATM   19  C   UNL     1     -45.859  61.031 -47.540  1.00  0.00     0.210 C 
ENDBRANCH  15  18
ENDBRANCH   9  12
ENDBRANCH   5   6
ENDBRANCH   1   5
BRANCH   2  20
HETATM   20  C   UNL     1     -41.566  53.466 -53.068  1.00  0.00     0.149 C 
HETATM   21  C   UNL     1     -41.371  54.008 -51.672  1.00  0.00    -0.007 A 
HETATM   22  C   UNL     1     -40.389  53.468 -50.839  1.00  0.00     0.083 A 
HETATM   23  C   UNL     1     -42.165  55.065 -51.194  1.00  0.00     0.011 A 
HETATM   24  C   UNL     1     -40.193  53.976 -49.554  1.00  0.00     0.038 A 
HETATM   25  O   UNL     1     -39.567  52.431 -51.210  1.00  0.00    -0.310 OA
HETATM   26  C   UNL     1     -40.985  55.026 -49.087  1.00  0.00     0.003 A 
HETATM   27  C   UNL     1     -41.970  55.569 -49.908  1.00  0.00     0.001 A 
HETATM   28  C   UNL     1     -39.836  51.765 -52.379  1.00  0.00     0.083 A 
HETATM   29  C   UNL     1     -40.790  52.189 -53.306  1.00  0.00    -0.007 A 
HETATM   30  C   UNL     1     -39.079  50.616 -52.620  1.00  0.00     0.038 A 
HETATM   31  C   UNL     1     -40.990  51.436 -54.475  1.00  0.00     0.011 A 
HETATM   32  C   UNL     1     -40.235  50.287 -54.713  1.00  0.00     0.001 A 
HETATM   33  C   UNL     1     -39.278  49.878 -53.786  1.00  0.00     0.003 A 
ENDBRANCH   2  20
TORSDOF 5
ENDMDL
MODEL 2
REMARK VINA RESULT:      -9.2      1.564      3.692
REMARK  5 active torsions:
REMARK  status: ('A' for Active; 'I' for Inactive)
REMARK    1  A    between atoms: O_2  and  C_3 
REMARK    2  A    between atoms: C_6  and  N_7 
REMARK    3  A    between atoms: C_11  and  C_12 
REMARK    4  A    between atoms: C_12  and  N_13 
REMARK       I    between atoms: N_13  and  C_14 
REMARK    5  A    between atoms: C_14  and  C_15 
ROOT
HETATM    1  N   UNL     1     -41.766  54.453 -54.554  1.00  0.00    -0.360 N 
HETATM    2  C   UNL     1     -41.864  53.874 -53.301  1.00  0.00     0.230 C 
HETATM    3  O   UNL     1     -42.947  53.630 -52.770  1.00  0.00    -0.272 OA
HETATM    4  H   UNL     1     -40.842  54.553 -54.962  1.00  0.00     0.162 HD
ENDROOT
BRANCH   1   5
HETATM    5  C   UNL     1     -42.926  54.691 -55.383  1.00  0.00     0.129 C 
BRANCH   5   6
HETATM    6  C   UNL     1     -43.379  56.145 -55.368  1.00  0.00     0.031 C 
HETATM    7  C   UNL     1     -42.204  57.112 -55.406  1.00  0.00     0.111 C 
HETATM    8  C   UNL     1     -42.713  58.329 -54.674  1.00  0.00     0.224 C 
HETATM    9  N   UNL     1     -43.834  57.945 -53.924  1.00  0.00    -0.318 N 
HETATM   10  O   UNL     1     -42.151  59.412 -54.735  1.00  0.00    -0.273 OA
HETATM   11  C   UNL     1     -44.113  56.536 -54.096  1.00  0.00     0.139 C 
BRANCH   9  12
HETATM   12  C   UNL     1     -44.565  58.762 -53.016  1.00  0.00     0.037 A 
HETATM   13  C   UNL     1     -44.576  58.515 -51.638  1.00  0.00     0.032 A 
HETATM   14  C   UNL     1     -45.284  59.336 -50.748  1.00  0.00     0.039 A 
HETATM   15  C   UNL     1     -45.997  60.434 -51.220  1.00  0.00     0.068 A 
HETATM   16  C   UNL     1     -46.012  60.684 -52.590  1.00  0.00     0.039 A 
HETATM   17  C   UNL     1     -45.303  59.862 -53.477  1.00  0.00     0.032 A 
BRANCH  15  18
HETATM   18  O   UNL     1     -46.714  61.315 -50.462  1.00  0.00    -0.356 OA
HETATM   19  C   UNL     1     -45.970  62.136 -49.569  1.00  0.00     0.210 C 
ENDBRANCH  15  18
ENDBRANCH   9  12
ENDBRANCH   5   6
ENDBRANCH   1   5
BRANCH   2  20
HETATM   20  C   UNL     1     -40.528  53.575 -52.601  1.00  0.00     0.149 C 
HETATM   21  C   UNL     1     -40.120  52.135 -52.807  1.00  0.00    -0.007 A 
HETATM   22  C   UNL     1     -40.047  51.264 -51.718  1.00  0.00     0.083 A 
HETATM   23  C   UNL     1     -39.818  51.651 -54.091  1.00  0.00     0.011 A 
HETATM   24  C   UNL     1     -39.687  49.928 -51.905  1.00  0.00     0.038 A 
HETATM   25  O   UNL     1     -40.316  51.641 -50.425  1.00  0.00    -0.310 OA
HETATM   26  C   UNL     1     -39.389  49.454 -53.183  1.00  0.00     0.003 A 
HETATM   27  C   UNL     1     -39.455  50.317 -54.275  1.00  0.00     0.001 A 
HETATM   28  C   UNL     1     -40.486  52.975 -50.152  1.00  0.00     0.083 A 
HETATM   29  C   UNL     1     -40.577  53.959 -51.137  1.00  0.00    -0.007 A 
HETATM   30  C   UNL     1     -40.585  53.318 -48.801  1.00  0.00     0.038 A 
HETATM   31  C   UNL     1     -40.751  55.299 -50.754  1.00  0.00     0.011 A 
HETATM   32  C   UNL     1     -40.847  55.640 -49.404  1.00  0.00     0.001 A 
HETATM   33  C   UNL     1     -40.765  54.648 -48.428  1.00  0.00     0.003 A 
ENDBRANCH   2  20
TORSDOF 5
ENDMDL
MODEL 3
REMARK VINA RESULT:      -8.9      2.900      5.843
REMARK  5 active torsions:
REMARK  status: ('A' for Active; 'I' for Inactive)
REMARK    1  A    between atoms: O_2  and  C_3 
REMARK    2  A    between atoms: C_6  and  N_7 
REMARK    3  A    between atoms: C_11  and  C_12 
REMARK    4  A    between atoms: C_12  and  N_13 
REMARK       I    between atoms: N_13  and  C_14 
REMARK    5  A    between atoms: C_14  and  C_15 
ROOT
HETATM    1  N   UNL     1     -41.488  57.681 -52.290  1.00  0.00    -0.360 N 
HETATM    2  C   UNL     1     -42.643  57.164 -51.731  1.00  0.00     0.230 C 
HETATM    3  O   UNL     1     -43.522  57.880 -51.254  1.00  0.00    -0.272 OA
HETATM    4  H   UNL     1     -40.843  57.036 -52.735  1.00  0.00     0.162 HD
ENDROOT
BRANCH   1   5
HETATM    5  C   UNL     1     -41.292  59.102 -52.474  1.00  0.00     0.129 C 
BRANCH   5   6
HETATM    6  C   UNL     1     -41.446  59.539 -53.925  1.00  0.00     0.031 C 
HETATM    7  C   UNL     1     -42.616  60.492 -54.116  1.00  0.00     0.111 C 
HETATM    8  C   UNL     1     -43.065  60.234 -55.533  1.00  0.00     0.224 C 
HETATM    9  N   UNL     1     -42.542  58.996 -55.934  1.00  0.00    -0.318 N 
HETATM   10  O   UNL     1     -43.805  60.997 -56.134  1.00  0.00    -0.273 OA
HETATM   11  C   UNL     1     -41.769  58.393 -54.870  1.00  0.00     0.139 C 
BRANCH   9  12
HETATM   12  C   UNL     1     -42.797  58.329 -57.165  1.00  0.00     0.037 A 
HETATM   13  C   UNL     1     -41.867  58.323 -58.212  1.00  0.00     0.032 A 
HETATM   14  C   UNL     1     -42.119  57.647 -59.416  1.00  0.00     0.039 A 
HETATM   15  C   UNL     1     -43.310  56.953 -59.597  1.00  0.00     0.068 A 
HETATM   16  C   UNL     1     -44.254  56.964 -58.572  1.00  0.00     0.039 A 
HETATM   17  C   UNL     1     -44.000  57.639 -57.371  1.00  0.00     0.032 A 
BRANCH  15  18
HETATM   18  O   UNL     1     -43.672  56.248 -60.709  1.00  0.00    -0.356 OA
HETATM   19  C   UNL     1     -44.696  55.276 -60.539  1.00  0.00     0.210 C 
ENDBRANCH  15  18
ENDBRANCH   9  12
ENDBRANCH   5   6
ENDBRANCH   1   5
BRANCH   2  20
HETATM   20  C   UNL     1     -42.747  55.630 -51.721  1.00  0.00     0.149 C 
HETATM   21  C   UNL     1     -41.731  55.025 -50.782  1.00  0.00    -0.007 A 
HETATM   22  C   UNL     1     -40.704  54.221 -51.282  1.00  0.00     0.083 A 
HETATM   23  C   UNL     1     -41.797  55.267 -49.400  1.00  0.00     0.011 A 
HETATM   24  C   UNL     1     -39.752  53.673 -50.419  1.00  0.00     0.038 A 
HETATM   25  O   UNL     1     -40.556  53.920 -52.614  1.00  0.00    -0.310 OA
HETATM   26  C   UNL     1     -39.824  53.919 -49.048  1.00  0.00     0.003 A 
HETATM   27  C   UNL     1     -40.847  54.715 -48.540  1.00  0.00     0.001 A 
HETATM   28  C   UNL     1     -41.563  54.266 -53.481  1.00  0.00     0.083 A 
HETATM   29  C   UNL     1     -42.651  55.063 -53.122  1.00  0.00    -0.007 A 
HETATM   30  C   UNL     1     -41.440  53.785 -54.786  1.00  0.00     0.038 A 
HETATM   31  C   UNL     1     -43.628  55.361 -54.085  1.00  0.00     0.011 A 
HETATM   32  C   UNL     1     -43.506  54.878 -55.388  1.00  0.00     0.001 A 
HETATM   33  C   UNL     1     -42.411  54.091 -55.739  1.00  0.00     0.003 A 
ENDBRANCH   2  20
TORSDOF 5
ENDMDL
MODEL 4
REMARK VINA RESULT:      -8.8      4.256      7.007
REMARK  5 active torsions:
REMARK  status: ('A' for Active; 'I' for Inactive)
REMARK    1  A    between atoms: O_2  and  C_3 
REMARK    2  A    between atoms: C_6  and  N_7 
REMARK    3  A    between atoms: C_11  and  C_12 
REMARK    4  A    between atoms: C_12  and  N_13 
REMARK       I    between atoms: N_13  and  C_14 
REMARK    5  A    between atoms: C_14  and  C_15 
ROOT
HETATM    1  N   UNL     1     -41.918  55.525 -56.179  1.00  0.00    -0.360 N 
HETATM    2  C   UNL     1     -42.061  54.980 -54.915  1.00  0.00     0.230 C 
HETATM    3  O   UNL     1     -43.121  54.494 -54.522  1.00  0.00    -0.272 OA
HETATM    4  H   UNL     1     -40.995  55.837 -56.462  1.00  0.00     0.162 HD
ENDROOT
BRANCH   1   5
HETATM    5  C   UNL     1     -42.964  55.442 -57.174  1.00  0.00     0.129 C 
BRANCH   5   6
HETATM    6  C   UNL     1     -43.433  56.809 -57.657  1.00  0.00     0.031 C 
HETATM    7  C   UNL     1     -44.145  56.728 -58.999  1.00  0.00     0.111 C 
HETATM    8  C   UNL     1     -43.873  58.070 -59.634  1.00  0.00     0.224 C 
HETATM    9  N   UNL     1     -42.783  58.650 -58.969  1.00  0.00    -0.318 N 
HETATM   10  O   UNL     1     -44.503  58.478 -60.597  1.00  0.00    -0.273 OA
HETATM   11  C   UNL     1     -42.293  57.779 -57.923  1.00  0.00     0.139 C 
BRANCH   9  12
HETATM   12  C   UNL     1     -42.139  59.873 -59.307  1.00  0.00     0.037 A 
HETATM   13  C   UNL     1     -41.951  60.269 -60.637  1.00  0.00     0.032 A 
HETATM   14  C   UNL     1     -41.331  61.486 -60.962  1.00  0.00     0.039 A 
HETATM   15  C   UNL     1     -40.889  62.340 -59.958  1.00  0.00     0.068 A 
HETATM   16  C   UNL     1     -41.051  61.953 -58.629  1.00  0.00     0.039 A 
HETATM   17  C   UNL     1     -41.671  60.738 -58.307  1.00  0.00     0.032 A 
BRANCH  15  18
HETATM   18  O   UNL     1     -40.285  63.551 -60.137  1.00  0.00    -0.356 OA
HETATM   19  C   UNL     1     -38.971  63.690 -59.609  1.00  0.00     0.210 C 
ENDBRANCH  15  18
ENDBRANCH   9  12
ENDBRANCH   5   6
ENDBRANCH   1   5
BRANCH   2  20
HETATM   20  C   UNL     1     -40.813  55.043 -54.019  1.00  0.00     0.149 C 
HETATM   21  C   UNL     1     -40.425  53.666 -53.535  1.00  0.00    -0.007 A 
HETATM   22  C   UNL     1     -40.488  53.357 -52.174  1.00  0.00     0.083 A 
HETATM   23  C   UNL     1     -40.007  52.677 -54.441  1.00  0.00     0.011 A 
HETATM   24  C   UNL     1     -40.147  52.080 -51.723  1.00  0.00     0.038 A 
HETATM   25  O   UNL     1     -40.878  54.254 -51.210  1.00  0.00    -0.310 OA
HETATM   26  C   UNL     1     -39.733  51.104 -52.629  1.00  0.00     0.003 A 
HETATM   27  C   UNL     1     -39.663  51.404 -53.987  1.00  0.00     0.001 A 
HETATM   28  C   UNL     1     -41.038  55.571 -51.564  1.00  0.00     0.083 A 
HETATM   29  C   UNL     1     -41.001  56.025 -52.883  1.00  0.00    -0.007 A 
HETATM   30  C   UNL     1     -41.266  56.465 -50.515  1.00  0.00     0.038 A 
HETATM   31  C   UNL     1     -41.177  57.394 -53.141  1.00  0.00     0.011 A 
HETATM   32  C   UNL     1     -41.401  58.287 -52.092  1.00  0.00     0.001 A 
HETATM   33  C   UNL     1     -41.448  57.822 -50.779  1.00  0.00     0.003 A 
ENDBRANCH   2  20
TORSDOF 5
ENDMDL
MODEL 5
REMARK VINA RESULT:      -8.7      4.114      6.352
REMARK  5 active torsions:
REMARK  status: ('A' for Active; 'I' for Inactive)
REMARK    1  A    between atoms: O_2  and  C_3 
REMARK    2  A    between atoms: C_6  and  N_7 
REMARK    3  A    between atoms: C_11  and  C_12 
REMARK    4  A    between atoms: C_12  and  N_13 
REMARK       I    between atoms: N_13  and  C_14 
REMARK    5  A    between atoms: C_14  and  C_15 
ROOT
HETATM    1  N   UNL     1     -42.013  55.482 -54.430  1.00  0.00    -0.360 N 
HETATM    2  C   UNL     1     -41.038  54.584 -54.035  1.00  0.00     0.230 C 
HETATM    3  O   UNL     1     -39.894  54.610 -54.490  1.00  0.00    -0.272 OA
HETATM    4  H   UNL     1     -42.910  55.450 -53.956  1.00  0.00     0.162 HD
ENDROOT
BRANCH   1   5
HETATM    5  C   UNL     1     -41.723  56.597 -55.303  1.00  0.00     0.129 C 
BRANCH   5   6
HETATM    6  C   UNL     1     -42.775  56.791 -56.387  1.00  0.00     0.031 C 
HETATM    7  C   UNL     1     -42.853  55.598 -57.329  1.00  0.00     0.111 C 
HETATM    8  C   UNL     1     -43.308  56.200 -58.637  1.00  0.00     0.224 C 
HETATM    9  N   UNL     1     -43.071  57.581 -58.583  1.00  0.00    -0.318 N 
HETATM   10  O   UNL     1     -43.741  55.520 -59.554  1.00  0.00    -0.273 OA
HETATM   11  C   UNL     1     -42.475  57.954 -57.319  1.00  0.00     0.139 C 
BRANCH   9  12
HETATM   12  C   UNL     1     -43.268  58.514 -59.639  1.00  0.00     0.037 A 
HETATM   13  C   UNL     1     -44.544  58.957 -60.009  1.00  0.00     0.032 A 
HETATM   14  C   UNL     1     -44.728  59.892 -61.040  1.00  0.00     0.039 A 
HETATM   15  C   UNL     1     -43.633  60.411 -61.722  1.00  0.00     0.068 A 
HETATM   16  C   UNL     1     -42.358  59.968 -61.379  1.00  0.00     0.039 A 
HETATM   17  C   UNL     1     -42.177  59.034 -60.349  1.00  0.00     0.032 A 
BRANCH  15  18
HETATM   18  O   UNL     1     -43.674  61.331 -62.731  1.00  0.00    -0.356 OA
HETATM   19  C   UNL     1     -42.423  61.852 -63.165  1.00  0.00     0.210 C 
ENDBRANCH  15  18
ENDBRANCH   9  12
ENDBRANCH   5   6
ENDBRANCH   1   5
BRANCH   2  20
HETATM   20  C   UNL     1     -41.481  53.529 -53.007  1.00  0.00     0.149 C 
HETATM   21  C   UNL     1     -41.307  54.043 -51.598  1.00  0.00    -0.007 A 
HETATM   22  C   UNL     1     -40.391  53.434 -50.736  1.00  0.00     0.083 A 
HETATM   23  C   UNL     1     -42.053  55.140 -51.136  1.00  0.00     0.011 A 
HETATM   24  C   UNL     1     -40.215  53.916 -49.438  1.00  0.00     0.038 A 
HETATM   25  O   UNL     1     -39.620  52.354 -51.090  1.00  0.00    -0.310 OA
HETATM   26  C   UNL     1     -40.959  55.006 -48.987  1.00  0.00     0.003 A 
HETATM   27  C   UNL     1     -41.878  55.617 -49.837  1.00  0.00     0.001 A 
HETATM   28  C   UNL     1     -39.884  51.719 -52.278  1.00  0.00     0.083 A 
HETATM   29  C   UNL     1     -40.775  52.210 -53.234  1.00  0.00    -0.007 A 
HETATM   30  C   UNL     1     -39.189  50.529 -52.505  1.00  0.00     0.038 A 
HETATM   31  C   UNL     1     -40.975  51.484 -54.419  1.00  0.00     0.011 A 
HETATM   32  C   UNL     1     -40.282  50.294 -54.644  1.00  0.00     0.001 A 
HETATM   33  C   UNL     1     -39.387  49.818 -53.688  1.00  0.00     0.003 A 
ENDBRANCH   2  20
TORSDOF 5
ENDMDL
MODEL 6
REMARK VINA RESULT:      -8.7      5.402      7.744
REMARK  5 active torsions:
REMARK  status: ('A' for Active; 'I' for Inactive)
REMARK    1  A    between atoms: O_2  and  C_3 
REMARK    2  A    between atoms: C_6  and  N_7 
REMARK    3  A    between atoms: C_11  and  C_12 
REMARK    4  A    between atoms: C_12  and  N_13 
REMARK       I    between atoms: N_13  and  C_14 
REMARK    5  A    between atoms: C_14  and  C_15 
ROOT
HETATM    1  N   UNL     1     -42.075  55.505 -56.639  1.00  0.00    -0.360 N 
HETATM    2  C   UNL     1     -42.223  55.131 -55.315  1.00  0.00     0.230 C 
HETATM    3  O   UNL     1     -43.270  54.653 -54.878  1.00  0.00    -0.272 OA
HETATM    4  H   UNL     1     -41.160  55.818 -56.946  1.00  0.00     0.162 HD
ENDROOT
BRANCH   1   5
HETATM    5  C   UNL     1     -43.092  55.238 -57.631  1.00  0.00     0.129 C 
BRANCH   5   6
HETATM    6  C   UNL     1     -43.647  56.506 -58.268  1.00  0.00     0.031 C 
HETATM    7  C   UNL     1     -44.348  57.397 -57.253  1.00  0.00     0.111 C 
HETATM    8  C   UNL     1     -45.394  58.118 -58.067  1.00  0.00     0.224 C 
HETATM    9  N   UNL     1     -45.579  57.406 -59.261  1.00  0.00    -0.318 N 
HETATM   10  O   UNL     1     -45.973  59.111 -57.656  1.00  0.00    -0.273 OA
HETATM   11  C   UNL     1     -44.726  56.240 -59.304  1.00  0.00     0.139 C 
BRANCH   9  12
HETATM   12  C   UNL     1     -46.539  57.688 -60.273  1.00  0.00     0.037 A 
HETATM   13  C   UNL     1     -46.773  58.989 -60.733  1.00  0.00     0.032 A 
HETATM   14  C   UNL     1     -47.709  59.256 -61.744  1.00  0.00     0.039 A 
HETATM   15  C   UNL     1     -48.432  58.219 -62.325  1.00  0.00     0.068 A 
HETATM   16  C   UNL     1     -48.225  56.920 -61.867  1.00  0.00     0.039 A 
HETATM   17  C   UNL     1     -47.290  56.657 -60.857  1.00  0.00     0.032 A 
BRANCH  15  18
HETATM   18  O   UNL     1     -49.358  58.341 -63.320  1.00  0.00    -0.356 OA
HETATM   19  C   UNL     1     -50.656  58.774 -62.930  1.00  0.00     0.210 C 
ENDBRANCH  15  18
ENDBRANCH   9  12
ENDBRANCH   5   6
ENDBRANCH   1   5
BRANCH   2  20
HETATM   20  C   UNL     1     -41.000  55.373 -54.415  1.00  0.00     0.149 C 
HETATM   21  C   UNL     1     -40.573  54.098 -53.729  1.00  0.00    -0.007 A 
HETATM   22  C   UNL     1     -40.657  53.985 -52.339  1.00  0.00     0.083 A 
HETATM   23  C   UNL     1     -40.095  53.007 -54.474  1.00  0.00     0.011 A 
HETATM   24  C   UNL     1     -40.279  52.802 -51.701  1.00  0.00     0.038 A 
HETATM   25  O   UNL     1     -41.104  54.995 -51.522  1.00  0.00    -0.310 OA
HETATM   26  C   UNL     1     -39.806  51.724 -52.448  1.00  0.00     0.003 A 
HETATM   27  C   UNL     1     -39.714  51.827 -53.834  1.00  0.00     0.001 A 
HETATM   28  C   UNL     1     -41.306  56.239 -52.066  1.00  0.00     0.083 A 
HETATM   29  C   UNL     1     -41.253  56.500 -53.436  1.00  0.00    -0.007 A 
HETATM   30  C   UNL     1     -41.593  57.265 -51.163  1.00  0.00     0.038 A 
HETATM   31  C   UNL     1     -41.475  57.809 -53.893  1.00  0.00     0.011 A 
HETATM   32  C   UNL     1     -41.759  58.834 -52.989  1.00  0.00     0.001 A 
HETATM   33  C   UNL     1     -41.820  58.561 -51.624  1.00  0.00     0.003 A 
ENDBRANCH   2  20
TORSDOF 5
ENDMDL
MODEL 7
REMARK VINA RESULT:      -8.4      3.932      8.555
REMARK  5 active torsions:
REMARK  status: ('A' for Active; 'I' for Inactive)
REMARK    1  A    between atoms: O_2  and  C_3 
REMARK    2  A    between atoms: C_6  and  N_7 
REMARK    3  A    between atoms: C_11  and  C_12 
REMARK    4  A    between atoms: C_12  and  N_13 
REMARK       I    between atoms: N_13  and  C_14 
REMARK    5  A    between atoms: C_14  and  C_15 
ROOT
HETATM    1  N   UNL     1     -42.163  58.342 -55.617  1.00  0.00    -0.360 N 
HETATM    2  C   UNL     1     -43.025  58.332 -56.699  1.00  0.00     0.230 C 
HETATM    3  O   UNL     1     -44.235  58.518 -56.579  1.00  0.00    -0.272 OA
HETATM    4  H   UNL     1     -41.168  58.260 -55.799  1.00  0.00     0.162 HD
ENDROOT
BRANCH   1   5
HETATM    5  C   UNL     1     -42.602  58.703 -54.288  1.00  0.00     0.129 C 
BRANCH   5   6
HETATM    6  C   UNL     1     -42.702  57.506 -53.351  1.00  0.00     0.031 C 
HETATM    7  C   UNL     1     -42.172  57.822 -51.960  1.00  0.00     0.111 C 
HETATM    8  C   UNL     1     -41.666  56.492 -51.456  1.00  0.00     0.224 C 
HETATM    9  N   UNL     1     -41.499  55.645 -52.562  1.00  0.00    -0.318 N 
HETATM   10  O   UNL     1     -41.415  56.291 -50.278  1.00  0.00    -0.273 OA
HETATM   11  C   UNL     1     -41.855  56.323 -53.789  1.00  0.00     0.139 C 
BRANCH   9  12
HETATM   12  C   UNL     1     -40.954  54.331 -52.546  1.00  0.00     0.037 A 
HETATM   13  C   UNL     1     -40.740  53.603 -53.722  1.00  0.00     0.032 A 
HETATM   14  C   UNL     1     -40.184  52.314 -53.699  1.00  0.00     0.039 A 
HETATM   15  C   UNL     1     -39.824  51.725 -52.492  1.00  0.00     0.068 A 
HETATM   16  C   UNL     1     -40.047  52.429 -51.310  1.00  0.00     0.039 A 
HETATM   17  C   UNL     1     -40.602  53.715 -51.336  1.00  0.00     0.032 A 
BRANCH  15  18
HETATM   18  O   UNL     1     -39.266  50.489 -52.332  1.00  0.00    -0.356 OA
HETATM   19  C   UNL     1     -39.455  49.865 -51.068  1.00  0.00     0.210 C 
ENDBRANCH  15  18
ENDBRANCH   9  12
ENDBRANCH   5   6
ENDBRANCH   1   5
BRANCH   2  20
HETATM   20  C   UNL     1     -42.375  58.049 -58.064  1.00  0.00     0.149 C 
HETATM   21  C   UNL     1     -42.251  59.316 -58.877  1.00  0.00    -0.007 A 
HETATM   22  C   UNL     1     -42.965  59.459 -60.068  1.00  0.00     0.083 A 
HETATM   23  C   UNL     1     -41.426  60.368 -58.445  1.00  0.00     0.011 A 
HETATM   24  C   UNL     1     -42.867  60.635 -60.814  1.00  0.00     0.038 A 
HETATM   25  O   UNL     1     -43.793  58.488 -60.577  1.00  0.00    -0.310 OA
HETATM   26  C   UNL     1     -42.046  61.675 -60.379  1.00  0.00     0.003 A 
HETATM   27  C   UNL     1     -41.326  61.540 -59.195  1.00  0.00     0.001 A 
HETATM   28  C   UNL     1     -43.782  57.244 -59.996  1.00  0.00     0.083 A 
HETATM   29  C   UNL     1     -43.111  56.955 -58.806  1.00  0.00    -0.007 A 
HETATM   30  C   UNL     1     -44.508  56.251 -60.657  1.00  0.00     0.038 A 
HETATM   31  C   UNL     1     -43.162  55.649 -58.292  1.00  0.00     0.011 A 
HETATM   32  C   UNL     1     -43.886  54.657 -58.955  1.00  0.00     0.001 A 
HETATM   33  C   UNL     1     -44.561  54.959 -60.137  1.00  0.00     0.003 A 
ENDBRANCH   2  20
TORSDOF 5
ENDMDL
MODEL 8
REMARK VINA RESULT:      -8.3     16.244     18.975
REMARK  5 active torsions:
REMARK  status: ('A' for Active; 'I' for Inactive)
REMARK    1  A    between atoms: O_2  and  C_3 
REMARK    2  A    between atoms: C_6  and  N_7 
REMARK    3  A    between atoms: C_11  and  C_12 
REMARK    4  A    between atoms: C_12  and  N_13 
REMARK       I    between atoms: N_13  and  C_14 
REMARK    5  A    between atoms: C_14  and  C_15 
ROOT
HETATM    1  N   UNL     1     -32.642  38.506 -51.639  1.00  0.00    -0.360 N 
HETATM    2  C   UNL     1     -32.385  39.526 -50.741  1.00  0.00     0.230 C 
HETATM    3  O   UNL     1     -31.264  40.012 -50.598  1.00  0.00    -0.272 OA
HETATM    4  H   UNL     1     -33.605  38.207 -51.759  1.00  0.00     0.162 HD
ENDROOT
BRANCH   1   5
HETATM    5  C   UNL     1     -31.642  38.030 -52.568  1.00  0.00     0.129 C 
BRANCH   5   6
HETATM    6  C   UNL     1     -32.050  38.213 -54.024  1.00  0.00     0.031 C 
HETATM    7  C   UNL     1     -30.970  38.911 -54.838  1.00  0.00     0.111 C 
HETATM    8  C   UNL     1     -31.742  39.638 -55.913  1.00  0.00     0.224 C 
HETATM    9  N   UNL     1     -33.079  39.728 -55.500  1.00  0.00    -0.318 N 
HETATM   10  O   UNL     1     -31.204  40.088 -56.913  1.00  0.00    -0.273 OA
HETATM   11  C   UNL     1     -33.261  39.113 -54.203  1.00  0.00     0.139 C 
BRANCH   9  12
HETATM   12  C   UNL     1     -34.127  40.416 -56.172  1.00  0.00     0.037 A 
HETATM   13  C   UNL     1     -34.505  41.718 -55.822  1.00  0.00     0.032 A 
HETATM   14  C   UNL     1     -35.528  42.397 -56.502  1.00  0.00     0.039 A 
HETATM   15  C   UNL     1     -36.195  41.786 -57.558  1.00  0.00     0.068 A 
HETATM   16  C   UNL     1     -35.845  40.483 -57.908  1.00  0.00     0.039 A 
HETATM   17  C   UNL     1     -34.823  39.808 -57.227  1.00  0.00     0.032 A 
BRANCH  15  18
HETATM   18  O   UNL     1     -37.195  42.337 -58.307  1.00  0.00    -0.356 OA
HETATM   19  C   UNL     1     -37.287  41.905 -59.659  1.00  0.00     0.210 C 
ENDBRANCH  15  18
ENDBRANCH   9  12
ENDBRANCH   5   6
ENDBRANCH   1   5
BRANCH   2  20
HETATM   20  C   UNL     1     -33.589  39.999 -49.910  1.00  0.00     0.149 C 
HETATM   21  C   UNL     1     -34.086  38.899 -49.003  1.00  0.00    -0.007 A 
HETATM   22  C   UNL     1     -35.359  38.355 -49.190  1.00  0.00     0.083 A 
HETATM   23  C   UNL     1     -33.277  38.400 -47.968  1.00  0.00     0.011 A 
HETATM   24  C   UNL     1     -35.817  37.326 -48.365  1.00  0.00     0.038 A 
HETATM   25  O   UNL     1     -36.228  38.777 -50.167  1.00  0.00    -0.310 OA
HETATM   26  C   UNL     1     -35.007  36.836 -47.340  1.00  0.00     0.003 A 
HETATM   27  C   UNL     1     -33.738  37.374 -47.143  1.00  0.00     0.001 A 
HETATM   28  C   UNL     1     -35.915  39.907 -50.880  1.00  0.00     0.083 A 
HETATM   29  C   UNL     1     -34.683  40.557 -50.795  1.00  0.00    -0.007 A 
HETATM   30  C   UNL     1     -36.908  40.387 -51.737  1.00  0.00     0.038 A 
HETATM   31  C   UNL     1     -34.461  41.709 -51.569  1.00  0.00     0.011 A 
HETATM   32  C   UNL     1     -35.456  42.188 -52.422  1.00  0.00     0.001 A 
HETATM   33  C   UNL     1     -36.679  41.526 -52.507  1.00  0.00     0.003 A 
ENDBRANCH   2  20
TORSDOF 5
ENDMDL
MODEL 9
REMARK VINA RESULT:      -8.3      4.015      8.909
REMARK  5 active torsions:
REMARK  status: ('A' for Active; 'I' for Inactive)
REMARK    1  A    between atoms: O_2  and  C_3 
REMARK    2  A    between atoms: C_6  and  N_7 
REMARK    3  A    between atoms: C_11  and  C_12 
REMARK    4  A    between atoms: C_12  and  N_13 
REMARK       I    between atoms: N_13  and  C_14 
REMARK    5  A    between atoms: C_14  and  C_15 
ROOT
HETATM    1  N   UNL     1     -45.039  57.834 -56.248  1.00  0.00    -0.360 N 
HETATM    2  C   UNL     1     -45.873  58.456 -57.160  1.00  0.00     0.230 C 
HETATM    3  O   UNL     1     -47.041  58.741 -56.898  1.00  0.00    -0.272 OA
HETATM    4  H   UNL     1     -44.067  57.700 -56.505  1.00  0.00     0.162 HD
ENDROOT
BRANCH   1   5
HETATM    5  C   UNL     1     -45.439  57.596 -54.879  1.00  0.00     0.129 C 
BRANCH   5   6
HETATM    6  C   UNL     1     -44.273  57.206 -53.980  1.00  0.00     0.031 C 
HETATM    7  C   UNL     1     -43.049  58.078 -54.218  1.00  0.00     0.111 C 
HETATM    8  C   UNL     1     -41.890  57.175 -53.875  1.00  0.00     0.224 C 
HETATM    9  N   UNL     1     -42.353  55.851 -53.892  1.00  0.00    -0.318 N 
HETATM   10  O   UNL     1     -40.762  57.602 -53.686  1.00  0.00    -0.273 OA
HETATM   11  C   UNL     1     -43.757  55.800 -54.235  1.00  0.00     0.139 C 
BRANCH   9  12
HETATM   12  C   UNL     1     -41.568  54.678 -53.714  1.00  0.00     0.037 A 
HETATM   13  C   UNL     1     -41.338  54.123 -52.449  1.00  0.00     0.032 A 
HETATM   14  C   UNL     1     -40.577  52.955 -52.284  1.00  0.00     0.039 A 
HETATM   15  C   UNL     1     -40.031  52.310 -53.388  1.00  0.00     0.068 A 
HETATM   16  C   UNL     1     -40.233  52.859 -54.652  1.00  0.00     0.039 A 
HETATM   17  C   UNL     1     -40.994  54.025 -54.814  1.00  0.00     0.032 A 
BRANCH  15  18
HETATM   18  O   UNL     1     -39.285  51.167 -53.366  1.00  0.00    -0.356 OA
HETATM   19  C   UNL     1     -39.836  50.038 -54.034  1.00  0.00     0.210 C 
ENDBRANCH  15  18
ENDBRANCH   9  12
ENDBRANCH   5   6
ENDBRANCH   1   5
BRANCH   2  20
HETATM   20  C   UNL     1     -45.253  58.748 -58.537  1.00  0.00     0.149 C 
HETATM   21  C   UNL     1     -45.131  57.483 -59.353  1.00  0.00    -0.007 A 
HETATM   22  C   UNL     1     -43.872  56.991 -59.704  1.00  0.00     0.083 A 
HETATM   23  C   UNL     1     -46.277  56.779 -59.763  1.00  0.00     0.011 A 
HETATM   24  C   UNL     1     -43.754  55.813 -60.444  1.00  0.00     0.038 A 
HETATM   25  O   UNL     1     -42.694  57.607 -59.358  1.00  0.00    -0.310 OA
HETATM   26  C   UNL     1     -44.896  55.121 -60.847  1.00  0.00     0.003 A 
HETATM   27  C   UNL     1     -46.157  55.605 -60.506  1.00  0.00     0.001 A 
HETATM   28  C   UNL     1     -42.748  58.861 -58.802  1.00  0.00     0.083 A 
HETATM   29  C   UNL     1     -43.934  59.478 -58.402  1.00  0.00    -0.007 A 
HETATM   30  C   UNL     1     -41.522  59.509 -58.630  1.00  0.00     0.038 A 
HETATM   31  C   UNL     1     -43.882  60.765 -57.842  1.00  0.00     0.011 A 
HETATM   32  C   UNL     1     -42.657  61.412 -57.673  1.00  0.00     0.001 A 
HETATM   33  C   UNL     1     -41.477  60.783 -58.066  1.00  0.00     0.003 A 
ENDBRANCH   2  20
TORSDOF 5
ENDMDL
MODEL 10
REMARK VINA RESULT:      -8.3      2.196      9.861
REMARK  5 active torsions:
REMARK  status: ('A' for Active; 'I' for Inactive)
REMARK    1  A    between atoms: O_2  and  C_3 
REMARK    2  A    between atoms: C_6  and  N_7 
REMARK    3  A    between atoms: C_11  and  C_12 
REMARK    4  A    between atoms: C_12  and  N_13 
REMARK       I    between atoms: N_13  and  C_14 
REMARK    5  A    between atoms: C_14  and  C_15 
ROOT
HETATM    1  N   UNL     1     -43.251  59.783 -50.208  1.00  0.00    -0.360 N 
HETATM    2  C   UNL     1     -43.819  61.010 -49.914  1.00  0.00     0.230 C 
HETATM    3  O   UNL     1     -43.197  62.066 -50.022  1.00  0.00    -0.272 OA
HETATM    4  H   UNL     1     -43.845  58.961 -50.171  1.00  0.00     0.162 HD
ENDROOT
BRANCH   1   5
HETATM    5  C   UNL     1     -41.932  59.665 -50.788  1.00  0.00     0.129 C 
BRANCH   5   6
HETATM    6  C   UNL     1     -41.888  58.709 -51.973  1.00  0.00     0.031 C 
HETATM    7  C   UNL     1     -43.279  58.274 -52.410  1.00  0.00     0.111 C 
HETATM    8  C   UNL     1     -43.062  56.897 -52.990  1.00  0.00     0.224 C 
HETATM    9  N   UNL     1     -41.825  56.424 -52.528  1.00  0.00    -0.318 N 
HETATM   10  O   UNL     1     -43.897  56.341 -53.685  1.00  0.00    -0.273 OA
HETATM   11  C   UNL     1     -41.191  57.394 -51.662  1.00  0.00     0.139 C 
BRANCH   9  12
HETATM   12  C   UNL     1     -41.274  55.132 -52.758  1.00  0.00     0.037 A 
HETATM   13  C   UNL     1     -40.903  54.702 -54.038  1.00  0.00     0.032 A 
HETATM   14  C   UNL     1     -40.344  53.432 -54.254  1.00  0.00     0.039 A 
HETATM   15  C   UNL     1     -40.137  52.564 -53.188  1.00  0.00     0.068 A 
HETATM   16  C   UNL     1     -40.518  52.969 -51.910  1.00  0.00     0.039 A 
HETATM   17  C   UNL     1     -41.076  54.237 -51.697  1.00  0.00     0.032 A 
BRANCH  15  18
HETATM   18  O   UNL     1     -39.593  51.314 -53.260  1.00  0.00    -0.356 OA
HETATM   19  C   UNL     1     -40.068  50.475 -54.307  1.00  0.00     0.210 C 
ENDBRANCH  15  18
ENDBRANCH   9  12
ENDBRANCH   5   6
ENDBRANCH   1   5
BRANCH   2  20
HETATM   20  C   UNL     1     -45.274  60.967 -49.419  1.00  0.00     0.149 C 
HETATM   21  C   UNL     1     -46.206  61.600 -50.426  1.00  0.00    -0.007 A 
HETATM   22  C   UNL     1     -46.900  62.767 -50.103  1.00  0.00     0.083 A 
HETATM   23  C   UNL     1     -46.381  61.031 -51.699  1.00  0.00     0.011 A 
HETATM   24  C   UNL     1     -47.750  63.365 -51.036  1.00  0.00     0.038 A 
HETATM   25  O   UNL     1     -46.802  63.396 -48.886  1.00  0.00    -0.310 OA
HETATM   26  C   UNL     1     -47.918  62.795 -52.298  1.00  0.00     0.003 A 
HETATM   27  C   UNL     1     -47.233  61.628 -52.628  1.00  0.00     0.001 A 
HETATM   28  C   UNL     1     -46.139  62.757 -47.868  1.00  0.00     0.083 A 
HETATM   29  C   UNL     1     -45.405  61.583 -48.043  1.00  0.00    -0.007 A 
HETATM   30  C   UNL     1     -46.218  63.360 -46.610  1.00  0.00     0.038 A 
HETATM   31  C   UNL     1     -44.761  61.007 -46.936  1.00  0.00     0.011 A 
HETATM   32  C   UNL     1     -44.843  61.609 -45.679  1.00  0.00     0.001 A 
HETATM   33  C   UNL     1     -45.570  62.787 -45.517  1.00  0.00     0.003 A 
ENDBRANCH   2  20
TORSDOF 5
ENDMDL
