MODEL 1
REMARK VINA RESULT:      -7.6      0.000      0.000
REMARK  6 active torsions:
REMARK  status: ('A' for Active; 'I' for Inactive)
REMARK    1  A    between atoms: C_2  and  C_3 
REMARK    2  A    between atoms: C_3  and  O_4 
REMARK    3  A    between atoms: C_3  and  C_12 
REMARK    4  A    between atoms: O_4  and  C_5 
REMARK    5  A    between atoms: C_12  and  N_13 
REMARK       I    between atoms: N_13  and  C_14 
REMARK       I    between atoms: C_14  and  N_15 
REMARK    6  A    between atoms: N_15  and  C_16 
ROOT
HETATM    1  N   UNL     1     -42.787  54.108 -51.703  1.00  0.00    -0.340 N 
HETATM    2  C   UNL     1     -42.715  55.207 -52.537  1.00  0.00     0.320 C 
HETATM    3  N   UNL     1     -43.690  55.153 -53.509  1.00  0.00    -0.307 N 
HETATM    4  O   UNL     1     -41.875  56.084 -52.400  1.00  0.00    -0.247 OA
HETATM    5  H   UNL     1     -43.557  53.469 -51.810  1.00  0.00     0.164 HD
HETATM    6  H   UNL     1     -44.302  54.357 -53.472  1.00  0.00     0.170 HD
ENDROOT
BRANCH   1   7
HETATM    7  C   UNL     1     -42.037  54.052 -50.453  1.00  0.00     0.156 C 
BRANCH   7   8
HETATM    8  C   UNL     1     -40.529  53.831 -50.712  1.00  0.00     0.146 C 
BRANCH   8   9
HETATM    9  C   UNL     1     -39.660  54.367 -49.564  1.00  0.00     0.029 C 
HETATM   10  C   UNL     1     -40.202  54.048 -48.182  1.00  0.00     0.007 C 
ENDBRANCH   8   9
BRANCH   8  11
HETATM   11  O   UNL     1     -40.318  52.415 -50.814  1.00  0.00    -0.343 OA
BRANCH  11  12
HETATM   12  C   UNL     1     -40.117  51.819 -52.028  1.00  0.00     0.091 A 
HETATM   13  C   UNL     1     -39.772  50.457 -52.005  1.00  0.00     0.067 A 
HETATM   14 CL   UNL     1     -39.564  49.603 -50.515  1.00  0.00    -0.081 Cl
HETATM   15  C   UNL     1     -39.567  49.748 -53.193  1.00  0.00     0.026 A 
HETATM   16  C   UNL     1     -39.714  50.390 -54.420  1.00  0.00     0.002 A 
HETATM   17  C   UNL     1     -40.062  51.738 -54.456  1.00  0.00     0.003 A 
HETATM   18  C   UNL     1     -40.263  52.450 -53.267  1.00  0.00     0.038 A 
ENDBRANCH  11  12
ENDBRANCH   8  11
ENDBRANCH   7   8
ENDBRANCH   1   7
BRANCH   3  19
HETATM   19  C   UNL     1     -43.954  56.112 -54.515  1.00  0.00     0.059 A 
HETATM   20  C   UNL     1     -43.254  56.037 -55.736  1.00  0.00    -0.032 A 
HETATM   21  C   UNL     1     -42.238  54.966 -56.023  1.00  0.00     0.050 C 
HETATM   22  C   UNL     1     -43.522  56.989 -56.729  1.00  0.00     0.028 A 
HETATM   23  C   UNL     1     -44.461  57.976 -56.483  1.00  0.00     0.117 A 
HETATM   24  N   UNL     1     -45.146  58.078 -55.330  1.00  0.00    -0.271 NA
HETATM   25  C   UNL     1     -44.882  57.146 -54.377  1.00  0.00     0.146 A 
ENDBRANCH   3  19
TORSDOF 6
ENDMDL
MODEL 2
REMARK VINA RESULT:      -7.5      2.768      6.745
REMARK  6 active torsions:
REMARK  status: ('A' for Active; 'I' for Inactive)
REMARK    1  A    between atoms: C_2  and  C_3 
REMARK    2  A    between atoms: C_3  and  O_4 
REMARK    3  A    between atoms: C_3  and  C_12 
REMARK    4  A    between atoms: O_4  and  C_5 
REMARK    5  A    between atoms: C_12  and  N_13 
REMARK       I    between atoms: N_13  and  C_14 
REMARK       I    between atoms: C_14  and  N_15 
REMARK    6  A    between atoms: N_15  and  C_16 
ROOT
HETATM    1  N   UNL     1     -40.790  54.824 -55.357  1.00  0.00    -0.340 N 
HETATM    2  C   UNL     1     -41.059  53.599 -54.778  1.00  0.00     0.320 C 
HETATM    3  N   UNL     1     -39.903  53.007 -54.317  1.00  0.00    -0.307 N 
HETATM    4  O   UNL     1     -42.187  53.134 -54.713  1.00  0.00    -0.247 OA
HETATM    5  H   UNL     1     -39.855  55.192 -55.297  1.00  0.00     0.164 HD
HETATM    6  H   UNL     1     -39.058  53.533 -54.451  1.00  0.00     0.170 HD
ENDROOT
BRANCH   1   7
HETATM    7  C   UNL     1     -41.859  55.758 -55.692  1.00  0.00     0.156 C 
BRANCH   7   8
HETATM    8  C   UNL     1     -41.952  56.901 -54.655  1.00  0.00     0.146 C 
BRANCH   8   9
HETATM    9  C   UNL     1     -42.653  58.143 -55.224  1.00  0.00     0.029 C 
HETATM   10  C   UNL     1     -42.010  59.456 -54.810  1.00  0.00     0.007 C 
ENDBRANCH   8   9
BRANCH   8  11
HETATM   11  O   UNL     1     -42.726  56.411 -53.550  1.00  0.00    -0.343 OA
BRANCH  11  12
HETATM   12  C   UNL     1     -42.217  56.405 -52.281  1.00  0.00     0.091 A 
HETATM   13  C   UNL     1     -42.592  55.326 -51.463  1.00  0.00     0.067 A 
HETATM   14 CL   UNL     1     -43.681  54.104 -52.024  1.00  0.00    -0.081 Cl
HETATM   15  C   UNL     1     -42.108  55.213 -50.156  1.00  0.00     0.026 A 
HETATM   16  C   UNL     1     -41.234  56.174 -49.653  1.00  0.00     0.002 A 
HETATM   17  C   UNL     1     -40.849  57.244 -50.456  1.00  0.00     0.003 A 
HETATM   18  C   UNL     1     -41.337  57.361 -51.763  1.00  0.00     0.038 A 
ENDBRANCH  11  12
ENDBRANCH   8  11
ENDBRANCH   7   8
ENDBRANCH   1   7
BRANCH   3  19
HETATM   19  C   UNL     1     -39.784  51.772 -53.636  1.00  0.00     0.059 A 
HETATM   20  C   UNL     1     -39.674  51.771 -52.231  1.00  0.00    -0.032 A 
HETATM   21  C   UNL     1     -39.688  53.035 -51.416  1.00  0.00     0.050 C 
HETATM   22  C   UNL     1     -39.558  50.544 -51.563  1.00  0.00     0.028 A 
HETATM   23  C   UNL     1     -39.552  49.372 -52.299  1.00  0.00     0.117 A 
HETATM   24  N   UNL     1     -39.654  49.337 -53.639  1.00  0.00    -0.271 NA
HETATM   25  C   UNL     1     -39.772  50.532 -54.276  1.00  0.00     0.146 A 
ENDBRANCH   3  19
TORSDOF 6
ENDMDL
MODEL 3
REMARK VINA RESULT:      -7.3      2.951      4.729
REMARK  6 active torsions:
REMARK  status: ('A' for Active; 'I' for Inactive)
REMARK    1  A    between atoms: C_2  and  C_3 
REMARK    2  A    between atoms: C_3  and  O_4 
REMARK    3  A    between atoms: C_3  and  C_12 
REMARK    4  A    between atoms: O_4  and  C_5 
REMARK    5  A    between atoms: C_12  and  N_13 
REMARK       I    between atoms: N_13  and  C_14 
REMARK       I    between atoms: C_14  and  N_15 
REMARK    6  A    between atoms: N_15  and  C_16 
ROOT
HETATM    1  N   UNL     1     -42.186  54.467 -55.508  1.00  0.00    -0.340 N 
HETATM    2  C   UNL     1     -42.785  55.536 -56.144  1.00  0.00     0.320 C 
HETATM    3  N   UNL     1     -42.431  55.581 -57.475  1.00  0.00    -0.307 N 
HETATM    4  O   UNL     1     -43.520  56.321 -55.563  1.00  0.00    -0.247 OA
HETATM    5  H   UNL     1     -41.667  53.805 -56.060  1.00  0.00     0.164 HD
HETATM    6  H   UNL     1     -41.816  54.851 -57.789  1.00  0.00     0.170 HD
ENDROOT
BRANCH   1   7
HETATM    7  C   UNL     1     -42.594  54.051 -54.170  1.00  0.00     0.156 C 
BRANCH   7   8
HETATM    8  C   UNL     1     -41.483  53.232 -53.474  1.00  0.00     0.146 C 
BRANCH   8   9
HETATM    9  C   UNL     1     -40.625  52.448 -54.479  1.00  0.00     0.029 C 
HETATM   10  C   UNL     1     -39.773  51.362 -53.845  1.00  0.00     0.007 C 
ENDBRANCH   8   9
BRANCH   8  11
HETATM   11  O   UNL     1     -40.635  54.163 -52.787  1.00  0.00    -0.343 OA
BRANCH  11  12
HETATM   12  C   UNL     1     -40.655  54.260 -51.423  1.00  0.00     0.091 A 
HETATM   13  C   UNL     1     -41.184  55.448 -50.889  1.00  0.00     0.067 A 
HETATM   14 CL   UNL     1     -41.730  56.733 -51.912  1.00  0.00    -0.081 Cl
HETATM   15  C   UNL     1     -41.272  55.637 -49.507  1.00  0.00     0.026 A 
HETATM   16  C   UNL     1     -40.840  54.637 -48.639  1.00  0.00     0.002 A 
HETATM   17  C   UNL     1     -40.320  53.453 -49.155  1.00  0.00     0.003 A 
HETATM   18  C   UNL     1     -40.227  53.264 -50.540  1.00  0.00     0.038 A 
ENDBRANCH  11  12
ENDBRANCH   8  11
ENDBRANCH   7   8
ENDBRANCH   1   7
BRANCH   3  19
HETATM   19  C   UNL     1     -42.872  56.505 -58.450  1.00  0.00     0.059 A 
HETATM   20  C   UNL     1     -43.742  56.066 -59.468  1.00  0.00    -0.032 A 
HETATM   21  C   UNL     1     -44.234  54.647 -59.557  1.00  0.00     0.050 C 
HETATM   22  C   UNL     1     -44.178  56.987 -60.430  1.00  0.00     0.028 A 
HETATM   23  C   UNL     1     -43.741  58.298 -60.357  1.00  0.00     0.117 A 
HETATM   24  N   UNL     1     -42.912  58.751 -59.401  1.00  0.00    -0.271 NA
HETATM   25  C   UNL     1     -42.500  57.850 -58.470  1.00  0.00     0.146 A 
ENDBRANCH   3  19
TORSDOF 6
ENDMDL
MODEL 4
REMARK VINA RESULT:      -7.2      2.627      4.075
REMARK  6 active torsions:
REMARK  status: ('A' for Active; 'I' for Inactive)
REMARK    1  A    between atoms: C_2  and  C_3 
REMARK    2  A    between atoms: C_3  and  O_4 
REMARK    3  A    between atoms: C_3  and  C_12 
REMARK    4  A    between atoms: O_4  and  C_5 
REMARK    5  A    between atoms: C_12  and  N_13 
REMARK       I    between atoms: N_13  and  C_14 
REMARK       I    between atoms: C_14  and  N_15 
REMARK    6  A    between atoms: N_15  and  C_16 
ROOT
HETATM    1  N   UNL     1     -43.684  55.370 -53.046  1.00  0.00    -0.340 N 
HETATM    2  C   UNL     1     -43.677  56.564 -52.352  1.00  0.00     0.320 C 
HETATM    3  N   UNL     1     -44.837  57.273 -52.580  1.00  0.00    -0.307 N 
HETATM    4  O   UNL     1     -42.741  56.911 -51.648  1.00  0.00    -0.247 OA
HETATM    5  H   UNL     1     -44.522  55.099 -53.534  1.00  0.00     0.164 HD
HETATM    6  H   UNL     1     -45.506  56.836 -53.188  1.00  0.00     0.170 HD
ENDROOT
BRANCH   1   7
HETATM    7  C   UNL     1     -42.696  54.330 -52.780  1.00  0.00     0.156 C 
BRANCH   7   8
HETATM    8  C   UNL     1     -41.916  53.956 -54.061  1.00  0.00     0.146 C 
BRANCH   8   9
HETATM    9  C   UNL     1     -41.822  55.131 -55.045  1.00  0.00     0.029 C 
HETATM   10  C   UNL     1     -42.664  54.953 -56.297  1.00  0.00     0.007 C 
ENDBRANCH   8   9
BRANCH   8  11
HETATM   11  O   UNL     1     -40.586  53.597 -53.659  1.00  0.00    -0.343 OA
BRANCH  11  12
HETATM   12  C   UNL     1     -40.249  52.293 -53.424  1.00  0.00     0.091 A 
HETATM   13  C   UNL     1     -39.836  51.980 -52.117  1.00  0.00     0.067 A 
HETATM   14 CL   UNL     1     -39.713  53.198 -50.894  1.00  0.00    -0.081 Cl
HETATM   15  C   UNL     1     -39.492  50.671 -51.767  1.00  0.00     0.026 A 
HETATM   16  C   UNL     1     -39.567  49.655 -52.715  1.00  0.00     0.002 A 
HETATM   17  C   UNL     1     -39.981  49.950 -54.011  1.00  0.00     0.003 A 
HETATM   18  C   UNL     1     -40.321  51.261 -54.366  1.00  0.00     0.038 A 
ENDBRANCH  11  12
ENDBRANCH   8  11
ENDBRANCH   7   8
ENDBRANCH   1   7
BRANCH   3  19
HETATM   19  C   UNL     1     -45.206  58.517 -52.016  1.00  0.00     0.059 A 
HETATM   20  C   UNL     1     -45.240  59.661 -52.839  1.00  0.00    -0.032 A 
HETATM   21  C   UNL     1     -44.906  59.614 -54.305  1.00  0.00     0.050 C 
HETATM   22  C   UNL     1     -45.609  60.890 -52.275  1.00  0.00     0.028 A 
HETATM   23  C   UNL     1     -45.927  60.947 -50.929  1.00  0.00     0.117 A 
HETATM   24  N   UNL     1     -45.905  59.877 -50.116  1.00  0.00    -0.271 NA
HETATM   25  C   UNL     1     -45.551  58.690 -50.675  1.00  0.00     0.146 A 
ENDBRANCH   3  19
TORSDOF 6
ENDMDL
MODEL 5
REMARK VINA RESULT:      -7.2      2.448      3.532
REMARK  6 active torsions:
REMARK  status: ('A' for Active; 'I' for Inactive)
REMARK    1  A    between atoms: C_2  and  C_3 
REMARK    2  A    between atoms: C_3  and  O_4 
REMARK    3  A    between atoms: C_3  and  C_12 
REMARK    4  A    between atoms: O_4  and  C_5 
REMARK    5  A    between atoms: C_12  and  N_13 
REMARK       I    between atoms: N_13  and  C_14 
REMARK       I    between atoms: C_14  and  N_15 
REMARK    6  A    between atoms: N_15  and  C_16 
ROOT
HETATM    1  N   UNL     1     -43.701  55.012 -54.765  1.00  0.00    -0.340 N 
HETATM    2  C   UNL     1     -42.955  55.253 -55.901  1.00  0.00     0.320 C 
HETATM    3  N   UNL     1     -43.583  56.167 -56.720  1.00  0.00    -0.307 N 
HETATM    4  O   UNL     1     -41.887  54.700 -56.119  1.00  0.00    -0.247 OA
HETATM    5  H   UNL     1     -44.524  55.567 -54.600  1.00  0.00     0.164 HD
HETATM    6  H   UNL     1     -44.459  56.526 -56.383  1.00  0.00     0.170 HD
ENDROOT
BRANCH   1   7
HETATM    7  C   UNL     1     -43.144  54.284 -53.630  1.00  0.00     0.156 C 
BRANCH   7   8
HETATM    8  C   UNL     1     -42.438  55.241 -52.641  1.00  0.00     0.146 C 
BRANCH   8   9
HETATM    9  C   UNL     1     -42.924  55.042 -51.197  1.00  0.00     0.029 C 
HETATM   10  C   UNL     1     -43.921  53.907 -51.035  1.00  0.00     0.007 C 
ENDBRANCH   8   9
BRANCH   8  11
HETATM   11  O   UNL     1     -41.035  54.945 -52.690  1.00  0.00    -0.343 OA
BRANCH  11  12
HETATM   12  C   UNL     1     -40.591  53.657 -52.806  1.00  0.00     0.091 A 
HETATM   13  C   UNL     1     -40.026  53.084 -51.654  1.00  0.00     0.067 A 
HETATM   14 CL   UNL     1     -39.858  53.987 -50.187  1.00  0.00    -0.081 Cl
HETATM   15  C   UNL     1     -39.562  51.766 -51.661  1.00  0.00     0.026 A 
HETATM   16  C   UNL     1     -39.667  50.998 -52.818  1.00  0.00     0.002 A 
HETATM   17  C   UNL     1     -40.232  51.551 -53.964  1.00  0.00     0.003 A 
HETATM   18  C   UNL     1     -40.691  52.873 -53.961  1.00  0.00     0.038 A 
ENDBRANCH  11  12
ENDBRANCH   8  11
ENDBRANCH   7   8
ENDBRANCH   1   7
BRANCH   3  19
HETATM   19  C   UNL     1     -43.110  56.689 -57.946  1.00  0.00     0.059 A 
HETATM   20  C   UNL     1     -42.578  57.993 -57.978  1.00  0.00    -0.032 A 
HETATM   21  C   UNL     1     -42.481  58.859 -56.752  1.00  0.00     0.050 C 
HETATM   22  C   UNL     1     -42.109  58.503 -59.197  1.00  0.00     0.028 A 
HETATM   23  C   UNL     1     -42.184  57.715 -60.332  1.00  0.00     0.117 A 
HETATM   24  N   UNL     1     -42.686  56.468 -60.338  1.00  0.00    -0.271 NA
HETATM   25  C   UNL     1     -43.132  55.982 -59.150  1.00  0.00     0.146 A 
ENDBRANCH   3  19
TORSDOF 6
ENDMDL
MODEL 6
REMARK VINA RESULT:      -7.1      2.602      3.422
REMARK  6 active torsions:
REMARK  status: ('A' for Active; 'I' for Inactive)
REMARK    1  A    between atoms: C_2  and  C_3 
REMARK    2  A    between atoms: C_3  and  O_4 
REMARK    3  A    between atoms: C_3  and  C_12 
REMARK    4  A    between atoms: O_4  and  C_5 
REMARK    5  A    between atoms: C_12  and  N_13 
REMARK       I    between atoms: N_13  and  C_14 
REMARK       I    between atoms: C_14  and  N_15 
REMARK    6  A    between atoms: N_15  and  C_16 
ROOT
HETATM    1  N   UNL     1     -41.979  56.887 -54.277  1.00  0.00    -0.340 N 
HETATM    2  C   UNL     1     -42.848  56.885 -55.349  1.00  0.00     0.320 C 
HETATM    3  N   UNL     1     -42.160  56.835 -56.542  1.00  0.00    -0.307 N 
HETATM    4  O   UNL     1     -44.062  56.934 -55.214  1.00  0.00    -0.247 OA
HETATM    5  H   UNL     1     -40.996  56.752 -54.450  1.00  0.00     0.164 HD
HETATM    6  H   UNL     1     -41.159  56.796 -56.469  1.00  0.00     0.170 HD
ENDROOT
BRANCH   1   7
HETATM    7  C   UNL     1     -42.454  56.681 -52.913  1.00  0.00     0.156 C 
BRANCH   7   8
HETATM    8  C   UNL     1     -41.393  55.958 -52.052  1.00  0.00     0.146 C 
BRANCH   8   9
HETATM    9  C   UNL     1     -41.287  56.555 -50.640  1.00  0.00     0.029 C 
HETATM   10  C   UNL     1     -40.881  58.019 -50.622  1.00  0.00     0.007 C 
ENDBRANCH   8   9
BRANCH   8  11
HETATM   11  O   UNL     1     -41.804  54.588 -51.932  1.00  0.00    -0.343 OA
BRANCH  11  12
HETATM   12  C   UNL     1     -41.070  53.581 -52.494  1.00  0.00     0.091 A 
HETATM   13  C   UNL     1     -40.290  52.810 -51.615  1.00  0.00     0.067 A 
HETATM   14 CL   UNL     1     -40.229  53.159 -49.921  1.00  0.00    -0.081 Cl
HETATM   15  C   UNL     1     -39.521  51.742 -52.086  1.00  0.00     0.026 A 
HETATM   16  C   UNL     1     -39.529  51.424 -53.442  1.00  0.00     0.002 A 
HETATM   17  C   UNL     1     -40.303  52.175 -54.322  1.00  0.00     0.003 A 
HETATM   18  C   UNL     1     -41.070  53.249 -53.853  1.00  0.00     0.038 A 
ENDBRANCH  11  12
ENDBRANCH   8  11
ENDBRANCH   7   8
ENDBRANCH   1   7
BRANCH   3  19
HETATM   19  C   UNL     1     -42.705  56.780 -57.846  1.00  0.00     0.059 A 
HETATM   20  C   UNL     1     -42.579  57.902 -58.690  1.00  0.00    -0.032 A 
HETATM   21  C   UNL     1     -41.875  59.161 -58.265  1.00  0.00     0.050 C 
HETATM   22  C   UNL     1     -43.120  57.841 -59.982  1.00  0.00     0.028 A 
HETATM   23  C   UNL     1     -43.764  56.686 -60.391  1.00  0.00     0.117 A 
HETATM   24  N   UNL     1     -43.902  55.599 -59.612  1.00  0.00    -0.271 NA
HETATM   25  C   UNL     1     -43.369  55.667 -58.364  1.00  0.00     0.146 A 
ENDBRANCH   3  19
TORSDOF 6
ENDMDL
MODEL 7
REMARK VINA RESULT:      -7.1      3.324      6.836
REMARK  6 active torsions:
REMARK  status: ('A' for Active; 'I' for Inactive)
REMARK    1  A    between atoms: C_2  and  C_3 
REMARK    2  A    between atoms: C_3  and  O_4 
REMARK    3  A    between atoms: C_3  and  C_12 
REMARK    4  A    between atoms: O_4  and  C_5 
REMARK    5  A    between atoms: C_12  and  N_13 
REMARK       I    between atoms: N_13  and  C_14 
REMARK       I    between atoms: C_14  and  N_15 
REMARK    6  A    between atoms: N_15  and  C_16 
ROOT
HETATM    1  N   UNL     1     -40.783  55.360 -50.882  1.00  0.00    -0.340 N 
HETATM    2  C   UNL     1     -41.091  54.117 -51.397  1.00  0.00     0.320 C 
HETATM    3  N   UNL     1     -39.948  53.429 -51.744  1.00  0.00    -0.307 N 
HETATM    4  O   UNL     1     -42.240  53.720 -51.522  1.00  0.00    -0.247 OA
HETATM    5  H   UNL     1     -39.818  55.591 -50.720  1.00  0.00     0.164 HD
HETATM    6  H   UNL     1     -39.080  53.906 -51.570  1.00  0.00     0.170 HD
ENDROOT
BRANCH   1   7
HETATM    7  C   UNL     1     -41.791  56.176 -50.212  1.00  0.00     0.156 C 
BRANCH   7   8
HETATM    8  C   UNL     1     -41.946  57.553 -50.898  1.00  0.00     0.146 C 
BRANCH   8   9
HETATM    9  C   UNL     1     -40.921  58.574 -50.383  1.00  0.00     0.029 C 
HETATM   10  C   UNL     1     -41.413  60.011 -50.421  1.00  0.00     0.007 C 
ENDBRANCH   8   9
BRANCH   8  11
HETATM   11  O   UNL     1     -41.720  57.356 -52.302  1.00  0.00    -0.343 OA
BRANCH  11  12
HETATM   12  C   UNL     1     -42.744  57.467 -53.202  1.00  0.00     0.091 A 
HETATM   13  C   UNL     1     -42.684  58.558 -54.086  1.00  0.00     0.067 A 
HETATM   14 CL   UNL     1     -41.406  59.721 -53.997  1.00  0.00    -0.081 Cl
HETATM   15  C   UNL     1     -43.669  58.748 -55.059  1.00  0.00     0.026 A 
HETATM   16  C   UNL     1     -44.723  57.845 -55.168  1.00  0.00     0.002 A 
HETATM   17  C   UNL     1     -44.791  56.757 -54.303  1.00  0.00     0.003 A 
HETATM   18  C   UNL     1     -43.808  56.567 -53.324  1.00  0.00     0.038 A 
ENDBRANCH  11  12
ENDBRANCH   8  11
ENDBRANCH   7   8
ENDBRANCH   1   7
BRANCH   3  19
HETATM   19  C   UNL     1     -39.859  52.118 -52.266  1.00  0.00     0.059 A 
HETATM   20  C   UNL     1     -40.001  51.920 -53.654  1.00  0.00    -0.032 A 
HETATM   21  C   UNL     1     -40.234  53.054 -54.614  1.00  0.00     0.050 C 
HETATM   22  C   UNL     1     -39.910  50.618 -54.165  1.00  0.00     0.028 A 
HETATM   23  C   UNL     1     -39.687  49.565 -53.294  1.00  0.00     0.117 A 
HETATM   24  N   UNL     1     -39.548  49.717 -51.966  1.00  0.00    -0.271 NA
HETATM   25  C   UNL     1     -39.632  50.984 -51.483  1.00  0.00     0.146 A 
ENDBRANCH   3  19
TORSDOF 6
ENDMDL
MODEL 8
REMARK VINA RESULT:      -7.0      3.293      3.968
REMARK  6 active torsions:
REMARK  status: ('A' for Active; 'I' for Inactive)
REMARK    1  A    between atoms: C_2  and  C_3 
REMARK    2  A    between atoms: C_3  and  O_4 
REMARK    3  A    between atoms: C_3  and  C_12 
REMARK    4  A    between atoms: O_4  and  C_5 
REMARK    5  A    between atoms: C_12  and  N_13 
REMARK       I    between atoms: N_13  and  C_14 
REMARK       I    between atoms: C_14  and  N_15 
REMARK    6  A    between atoms: N_15  and  C_16 
ROOT
HETATM    1  N   UNL     1     -42.344  56.784 -50.774  1.00  0.00    -0.340 N 
HETATM    2  C   UNL     1     -42.803  58.063 -51.019  1.00  0.00     0.320 C 
HETATM    3  N   UNL     1     -44.181  58.105 -50.997  1.00  0.00    -0.307 N 
HETATM    4  O   UNL     1     -42.053  59.003 -51.232  1.00  0.00    -0.247 OA
HETATM    5  H   UNL     1     -43.007  56.072 -50.515  1.00  0.00     0.164 HD
HETATM    6  H   UNL     1     -44.643  57.234 -50.803  1.00  0.00     0.170 HD
ENDROOT
BRANCH   1   7
HETATM    7  C   UNL     1     -40.936  56.522 -50.494  1.00  0.00     0.156 C 
BRANCH   7   8
HETATM    8  C   UNL     1     -40.701  55.035 -50.141  1.00  0.00     0.146 C 
BRANCH   8   9
HETATM    9  C   UNL     1     -41.108  54.712 -48.696  1.00  0.00     0.029 C 
HETATM   10  C   UNL     1     -40.068  53.915 -47.927  1.00  0.00     0.007 C 
ENDBRANCH   8   9
BRANCH   8  11
HETATM   11  O   UNL     1     -41.517  54.254 -51.026  1.00  0.00    -0.343 OA
BRANCH  11  12
HETATM   12  C   UNL     1     -40.956  53.361 -51.897  1.00  0.00     0.091 A 
HETATM   13  C   UNL     1     -41.372  53.450 -53.236  1.00  0.00     0.067 A 
HETATM   14 CL   UNL     1     -42.570  54.595 -53.735  1.00  0.00    -0.081 Cl
HETATM   15  C   UNL     1     -40.843  52.599 -54.210  1.00  0.00     0.026 A 
HETATM   16  C   UNL     1     -39.881  51.654 -53.860  1.00  0.00     0.002 A 
HETATM   17  C   UNL     1     -39.455  51.561 -52.538  1.00  0.00     0.003 A 
HETATM   18  C   UNL     1     -39.988  52.409 -51.560  1.00  0.00     0.038 A 
ENDBRANCH  11  12
ENDBRANCH   8  11
ENDBRANCH   7   8
ENDBRANCH   1   7
BRANCH   3  19
HETATM   19  C   UNL     1     -45.008  59.239 -51.167  1.00  0.00     0.059 A 
HETATM   20  C   UNL     1     -45.400  59.615 -52.468  1.00  0.00    -0.032 A 
HETATM   21  C   UNL     1     -44.981  58.849 -53.693  1.00  0.00     0.050 C 
HETATM   22  C   UNL     1     -46.221  60.739 -52.629  1.00  0.00     0.028 A 
HETATM   23  C   UNL     1     -46.622  61.449 -51.510  1.00  0.00     0.117 A 
HETATM   24  N   UNL     1     -46.266  61.120 -50.256  1.00  0.00    -0.271 NA
HETATM   25  C   UNL     1     -45.475  60.025 -50.112  1.00  0.00     0.146 A 
ENDBRANCH   3  19
TORSDOF 6
ENDMDL
MODEL 9
REMARK VINA RESULT:      -7.0      3.497      7.650
REMARK  6 active torsions:
REMARK  status: ('A' for Active; 'I' for Inactive)
REMARK    1  A    between atoms: C_2  and  C_3 
REMARK    2  A    between atoms: C_3  and  O_4 
REMARK    3  A    between atoms: C_3  and  C_12 
REMARK    4  A    between atoms: O_4  and  C_5 
REMARK    5  A    between atoms: C_12  and  N_13 
REMARK       I    between atoms: N_13  and  C_14 
REMARK       I    between atoms: C_14  and  N_15 
REMARK    6  A    between atoms: N_15  and  C_16 
ROOT
HETATM    1  N   UNL     1     -41.296  55.386 -54.031  1.00  0.00    -0.340 N 
HETATM    2  C   UNL     1     -41.452  54.087 -53.588  1.00  0.00     0.320 C 
HETATM    3  N   UNL     1     -40.279  53.376 -53.724  1.00  0.00    -0.307 N 
HETATM    4  O   UNL     1     -42.510  53.663 -53.149  1.00  0.00    -0.247 OA
HETATM    5  H   UNL     1     -40.377  55.701 -54.295  1.00  0.00     0.164 HD
HETATM    6  H   UNL     1     -39.500  53.884 -54.103  1.00  0.00     0.170 HD
ENDROOT
BRANCH   1   7
HETATM    7  C   UNL     1     -42.304  56.406 -53.763  1.00  0.00     0.156 C 
BRANCH   7   8
HETATM    8  C   UNL     1     -43.152  56.703 -55.021  1.00  0.00     0.146 C 
BRANCH   8   9
HETATM    9  C   UNL     1     -44.154  57.844 -54.788  1.00  0.00     0.029 C 
HETATM   10  C   UNL     1     -43.905  58.629 -53.511  1.00  0.00     0.007 C 
ENDBRANCH   8   9
BRANCH   8  11
HETATM   11  O   UNL     1     -42.246  57.103 -56.060  1.00  0.00    -0.343 OA
BRANCH  11  12
HETATM   12  C   UNL     1     -42.568  56.932 -57.378  1.00  0.00     0.091 A 
HETATM   13  C   UNL     1     -42.350  58.034 -58.223  1.00  0.00     0.067 A 
HETATM   14 CL   UNL     1     -41.757  59.539 -57.607  1.00  0.00    -0.081 Cl
HETATM   15  C   UNL     1     -42.624  57.955 -59.591  1.00  0.00     0.026 A 
HETATM   16  C   UNL     1     -43.110  56.770 -60.136  1.00  0.00     0.002 A 
HETATM   17  C   UNL     1     -43.324  55.668 -59.312  1.00  0.00     0.003 A 
HETATM   18  C   UNL     1     -43.055  55.747 -57.940  1.00  0.00     0.038 A 
ENDBRANCH  11  12
ENDBRANCH   8  11
ENDBRANCH   7   8
ENDBRANCH   1   7
BRANCH   3  19
HETATM   19  C   UNL     1     -40.040  52.034 -53.346  1.00  0.00     0.059 A 
HETATM   20  C   UNL     1     -39.778  51.738 -51.994  1.00  0.00    -0.032 A 
HETATM   21  C   UNL     1     -39.750  52.795 -50.924  1.00  0.00     0.050 C 
HETATM   22  C   UNL     1     -39.544  50.406 -51.625  1.00  0.00     0.028 A 
HETATM   23  C   UNL     1     -39.575  49.421 -52.597  1.00  0.00     0.117 A 
HETATM   24  N   UNL     1     -39.822  49.668 -53.896  1.00  0.00    -0.271 NA
HETATM   25  C   UNL     1     -40.052  50.962 -54.240  1.00  0.00     0.146 A 
ENDBRANCH   3  19
TORSDOF 6
ENDMDL
MODEL 10
REMARK VINA RESULT:      -6.9      2.946      4.097
REMARK  6 active torsions:
REMARK  status: ('A' for Active; 'I' for Inactive)
REMARK    1  A    between atoms: C_2  and  C_3 
REMARK    2  A    between atoms: C_3  and  O_4 
REMARK    3  A    between atoms: C_3  and  C_12 
REMARK    4  A    between atoms: O_4  and  C_5 
REMARK    5  A    between atoms: C_12  and  N_13 
REMARK       I    between atoms: N_13  and  C_14 
REMARK       I    between atoms: C_14  and  N_15 
REMARK    6  A    between atoms: N_15  and  C_16 
ROOT
HETATM    1  N   UNL     1     -41.888  55.607 -56.439  1.00  0.00    -0.340 N 
HETATM    2  C   UNL     1     -42.435  56.812 -56.835  1.00  0.00     0.320 C 
HETATM    3  N   UNL     1     -42.145  57.074 -58.157  1.00  0.00    -0.307 N 
HETATM    4  O   UNL     1     -43.077  57.525 -56.078  1.00  0.00    -0.247 OA
HETATM    5  H   UNL     1     -41.450  55.023 -57.132  1.00  0.00     0.164 HD
HETATM    6  H   UNL     1     -41.605  56.374 -58.634  1.00  0.00     0.170 HD
ENDROOT
BRANCH   1   7
HETATM    7  C   UNL     1     -42.259  54.983 -55.173  1.00  0.00     0.156 C 
BRANCH   7   8
HETATM    8  C   UNL     1     -41.094  55.037 -54.158  1.00  0.00     0.146 C 
BRANCH   8   9
HETATM    9  C   UNL     1     -41.001  56.401 -53.457  1.00  0.00     0.029 C 
HETATM   10  C   UNL     1     -41.465  56.381 -52.010  1.00  0.00     0.007 C 
ENDBRANCH   8   9
BRANCH   8  11
HETATM   11  O   UNL     1     -41.350  54.035 -53.164  1.00  0.00    -0.343 OA
BRANCH  11  12
HETATM   12  C   UNL     1     -40.749  52.808 -53.230  1.00  0.00     0.091 A 
HETATM   13  C   UNL     1     -40.071  52.381 -52.076  1.00  0.00     0.067 A 
HETATM   14 CL   UNL     1     -39.963  53.384 -50.670  1.00  0.00    -0.081 Cl
HETATM   15  C   UNL     1     -39.443  51.133 -52.032  1.00  0.00     0.026 A 
HETATM   16  C   UNL     1     -39.493  50.290 -53.140  1.00  0.00     0.002 A 
HETATM   17  C   UNL     1     -40.168  50.698 -54.287  1.00  0.00     0.003 A 
HETATM   18  C   UNL     1     -40.793  51.950 -54.334  1.00  0.00     0.038 A 
ENDBRANCH  11  12
ENDBRANCH   8  11
ENDBRANCH   7   8
ENDBRANCH   1   7
BRANCH   3  19
HETATM   19  C   UNL     1     -42.563  58.188 -58.922  1.00  0.00     0.059 A 
HETATM   20  C   UNL     1     -43.549  58.008 -59.914  1.00  0.00    -0.032 A 
HETATM   21  C   UNL     1     -44.189  56.675 -60.188  1.00  0.00     0.050 C 
HETATM   22  C   UNL     1     -43.960  59.116 -60.667  1.00  0.00     0.028 A 
HETATM   23  C   UNL     1     -43.386  60.352 -60.420  1.00  0.00     0.117 A 
HETATM   24  N   UNL     1     -42.444  60.558 -59.484  1.00  0.00    -0.271 NA
HETATM   25  C   UNL     1     -42.058  59.478 -58.756  1.00  0.00     0.146 A 
ENDBRANCH   3  19
TORSDOF 6
ENDMDL
