MODEL 1
REMARK VINA RESULT:     -10.7      0.000      0.000
REMARK  6 active torsions:
REMARK  status: ('A' for Active; 'I' for Inactive)
REMARK    1  A    between atoms: C_2  and  O_3 
REMARK    2  A    between atoms: O_3  and  C_4 
REMARK    3  A    between atoms: C_5  and  C_6 
REMARK       I    between atoms: C_6  and  N_7 
REMARK    4  A    between atoms: N_7  and  C_8 
REMARK    5  A    between atoms: N_9  and  C_10 
REMARK    6  A    between atoms: C_22  and  C_23 
ROOT
HETATM    1  C   UNL     1     -42.606  55.354 -55.404  1.00  0.00     0.152 A 
HETATM    2  N   UNL     1     -42.971  56.691 -55.443  1.00  0.00    -0.044 N 
HETATM    3  N   UNL     1     -43.499  57.055 -56.650  1.00  0.00    -0.148 NA
HETATM    4  C   UNL     1     -43.448  55.928 -57.373  1.00  0.00     0.115 A 
HETATM    5  C   UNL     1     -42.876  54.855 -56.657  1.00  0.00     0.087 A 
ENDROOT
BRANCH   1   6
HETATM    6  N   UNL     1     -42.114  54.761 -54.253  1.00  0.00    -0.307 N 
HETATM    7  C   UNL     1     -40.784  54.450 -54.065  1.00  0.00     0.261 C 
HETATM    8  O   UNL     1     -39.830  54.813 -54.739  1.00  0.00    -0.267 OA
HETATM    9  H   UNL     1     -42.792  54.484 -53.541  1.00  0.00     0.170 HD
BRANCH   7  10
HETATM   10  C   UNL     1     -40.560  53.590 -52.880  1.00  0.00     0.076 A 
HETATM   11  C   UNL     1     -40.655  54.195 -51.611  1.00  0.00     0.085 A 
HETATM   12  C   UNL     1     -40.423  53.418 -50.480  1.00  0.00     0.039 A 
HETATM   13  C   UNL     1     -40.092  52.066 -50.614  1.00  0.00     0.015 A 
HETATM   14  C   UNL     1     -39.985  51.460 -51.876  1.00  0.00    -0.025 A 
HETATM   15  C   UNL     1     -40.228  52.222 -53.043  1.00  0.00    -0.007 A 
HETATM   16  C   UNL     1     -39.634  50.105 -51.985  1.00  0.00     0.012 A 
HETATM   17  C   UNL     1     -40.111  51.575 -54.295  1.00  0.00     0.013 A 
HETATM   18  C   UNL     1     -39.757  50.227 -54.388  1.00  0.00     0.001 A 
HETATM   19  C   UNL     1     -39.517  49.493 -53.234  1.00  0.00     0.001 A 
BRANCH  11  20
HETATM   20  O   UNL     1     -40.948  55.532 -51.592  1.00  0.00    -0.350 OA
BRANCH  20  21
HETATM   21  C   UNL     1     -41.757  56.032 -50.531  1.00  0.00     0.171 C 
HETATM   22  C   UNL     1     -43.208  55.830 -50.928  1.00  0.00     0.034 C 
ENDBRANCH  20  21
ENDBRANCH  11  20
ENDBRANCH   7  10
ENDBRANCH   1   6
BRANCH   2  23
HETATM   23  C   UNL     1     -42.847  57.649 -54.417  1.00  0.00     0.732 A 
HETATM   24  N   UNL     1     -43.856  58.085 -53.728  1.00  0.00    -0.067 NA
HETATM   25  C   UNL     1     -43.566  58.996 -52.737  1.00  0.00     0.065 A 
HETATM   26  C   UNL     1     -42.329  59.454 -52.468  1.00  0.00     0.036 A 
HETATM   27  C   UNL     1     -44.758  59.443 -51.919  1.00  0.00     0.060 C 
HETATM   28  C   UNL     1     -42.007  60.445 -51.388  1.00  0.00     0.046 C 
HETATM   29  C   UNL     1     -41.203  58.944 -53.289  1.00  0.00     0.268 A 
HETATM   30  C   UNL     1     -43.250  61.117 -50.800  1.00  0.00     0.005 C 
HETATM   31  C   UNL     1     -44.376  60.110 -50.597  1.00  0.00     0.006 C 
HETATM   32  O   UNL     1     -40.046  59.306 -53.112  1.00  0.00    -0.267 OA
HETATM   33  N   UNL     1     -41.551  58.041 -54.243  1.00  0.00    -0.152 N 
HETATM   34  H   UNL     1     -40.829  57.643 -54.834  1.00  0.00     0.188 HD
ENDBRANCH   2  23
BRANCH   4  35
HETATM   35  C   UNL     1     -43.967  55.841 -58.769  1.00  0.00     0.105 A 
HETATM   36  O   UNL     1     -44.239  56.921 -59.564  1.00  0.00    -0.320 OA
HETATM   37  C   UNL     1     -44.673  56.445 -60.759  1.00  0.00     0.142 A 
HETATM   38  C   UNL     1     -44.688  55.071 -60.754  1.00  0.00     0.027 A 
HETATM   39  C   UNL     1     -44.234  54.680 -59.471  1.00  0.00     0.041 A 
ENDBRANCH   4  35
TORSDOF 6
ENDMDL
MODEL 2
REMARK VINA RESULT:      -9.6      1.490      3.463
REMARK  6 active torsions:
REMARK  status: ('A' for Active; 'I' for Inactive)
REMARK    1  A    between atoms: C_2  and  O_3 
REMARK    2  A    between atoms: O_3  and  C_4 
REMARK    3  A    between atoms: C_5  and  C_6 
REMARK       I    between atoms: C_6  and  N_7 
REMARK    4  A    between atoms: N_7  and  C_8 
REMARK    5  A    between atoms: N_9  and  C_10 
REMARK    6  A    between atoms: C_22  and  C_23 
ROOT
HETATM    1  C   UNL     1     -42.133  55.579 -55.634  1.00  0.00     0.152 A 
HETATM    2  N   UNL     1     -42.574  56.860 -55.335  1.00  0.00    -0.044 N 
HETATM    3  N   UNL     1     -43.277  57.425 -56.362  1.00  0.00    -0.148 NA
HETATM    4  C   UNL     1     -43.259  56.485 -57.316  1.00  0.00     0.115 A 
HETATM    5  C   UNL     1     -42.539  55.336 -56.925  1.00  0.00     0.087 A 
ENDROOT
BRANCH   1   6
HETATM    6  N   UNL     1     -41.461  54.799 -54.707  1.00  0.00    -0.307 N 
HETATM    7  C   UNL     1     -42.098  54.029 -53.757  1.00  0.00     0.261 C 
HETATM    8  O   UNL     1     -43.285  53.742 -53.701  1.00  0.00    -0.267 OA
HETATM    9  H   UNL     1     -40.442  54.859 -54.694  1.00  0.00     0.170 HD
BRANCH   7  10
HETATM   10  C   UNL     1     -41.168  53.509 -52.727  1.00  0.00     0.076 A 
HETATM   11  C   UNL     1     -40.381  52.392 -53.070  1.00  0.00     0.085 A 
HETATM   12  C   UNL     1     -39.517  51.864 -52.114  1.00  0.00     0.039 A 
HETATM   13  C   UNL     1     -39.451  52.433 -50.838  1.00  0.00     0.015 A 
HETATM   14  C   UNL     1     -40.242  53.539 -50.488  1.00  0.00    -0.025 A 
HETATM   15  C   UNL     1     -41.120  54.105 -51.442  1.00  0.00    -0.007 A 
HETATM   16  C   UNL     1     -40.172  54.081 -49.194  1.00  0.00     0.012 A 
HETATM   17  C   UNL     1     -41.899  55.218 -51.051  1.00  0.00     0.013 A 
HETATM   18  C   UNL     1     -41.820  55.744 -49.760  1.00  0.00     0.001 A 
HETATM   19  C   UNL     1     -40.958  55.175 -48.832  1.00  0.00     0.001 A 
BRANCH  11  20
HETATM   20  O   UNL     1     -40.548  51.888 -54.331  1.00  0.00    -0.350 OA
BRANCH  20  21
HETATM   21  C   UNL     1     -40.873  50.508 -54.472  1.00  0.00     0.171 C 
HETATM   22  C   UNL     1     -39.579  49.757 -54.728  1.00  0.00     0.034 C 
ENDBRANCH  20  21
ENDBRANCH  11  20
ENDBRANCH   7  10
ENDBRANCH   1   6
BRANCH   2  23
HETATM   23  C   UNL     1     -42.369  57.586 -54.145  1.00  0.00     0.732 A 
HETATM   24  N   UNL     1     -41.244  57.586 -53.499  1.00  0.00    -0.067 NA
HETATM   25  C   UNL     1     -41.193  58.372 -52.369  1.00  0.00     0.065 A 
HETATM   26  C   UNL     1     -42.224  59.106 -51.910  1.00  0.00     0.036 A 
HETATM   27  C   UNL     1     -39.851  58.391 -51.670  1.00  0.00     0.060 C 
HETATM   28  C   UNL     1     -42.173  59.967 -50.682  1.00  0.00     0.046 C 
HETATM   29  C   UNL     1     -43.499  59.067 -52.668  1.00  0.00     0.268 A 
HETATM   30  C   UNL     1     -40.930  59.717 -49.825  1.00  0.00     0.005 C 
HETATM   31  C   UNL     1     -39.687  59.555 -50.693  1.00  0.00     0.006 C 
HETATM   32  O   UNL     1     -44.488  59.703 -52.322  1.00  0.00    -0.267 OA
HETATM   33  N   UNL     1     -43.485  58.280 -53.776  1.00  0.00    -0.152 N 
HETATM   34  H   UNL     1     -44.320  58.216 -54.349  1.00  0.00     0.188 HD
ENDBRANCH   2  23
BRANCH   4  35
HETATM   35  C   UNL     1     -43.952  56.651 -58.626  1.00  0.00     0.105 A 
HETATM   36  O   UNL     1     -44.574  57.800 -59.033  1.00  0.00    -0.320 OA
HETATM   37  C   UNL     1     -45.070  57.574 -60.277  1.00  0.00     0.142 A 
HETATM   38  C   UNL     1     -44.780  56.294 -60.686  1.00  0.00     0.027 A 
HETATM   39  C   UNL     1     -44.061  55.697 -59.621  1.00  0.00     0.041 A 
ENDBRANCH   4  35
TORSDOF 6
ENDMDL
MODEL 3
REMARK VINA RESULT:      -9.3      2.078      6.722
REMARK  6 active torsions:
REMARK  status: ('A' for Active; 'I' for Inactive)
REMARK    1  A    between atoms: C_2  and  O_3 
REMARK    2  A    between atoms: O_3  and  C_4 
REMARK    3  A    between atoms: C_5  and  C_6 
REMARK       I    between atoms: C_6  and  N_7 
REMARK    4  A    between atoms: N_7  and  C_8 
REMARK    5  A    between atoms: N_9  and  C_10 
REMARK    6  A    between atoms: C_22  and  C_23 
ROOT
HETATM    1  C   UNL     1     -41.174  54.950 -54.463  1.00  0.00     0.152 A 
HETATM    2  N   UNL     1     -41.392  55.133 -53.106  1.00  0.00    -0.044 N 
HETATM    3  N   UNL     1     -41.056  54.032 -52.369  1.00  0.00    -0.148 NA
HETATM    4  C   UNL     1     -40.638  53.149 -53.286  1.00  0.00     0.115 A 
HETATM    5  C   UNL     1     -40.719  53.660 -54.599  1.00  0.00     0.087 A 
ENDROOT
BRANCH   1   6
HETATM    6  N   UNL     1     -41.380  55.966 -55.383  1.00  0.00    -0.307 N 
HETATM    7  C   UNL     1     -42.628  56.451 -55.712  1.00  0.00     0.261 C 
HETATM    8  O   UNL     1     -43.687  56.243 -55.136  1.00  0.00    -0.267 OA
HETATM    9  H   UNL     1     -40.564  56.318 -55.884  1.00  0.00     0.170 HD
BRANCH   7  10
HETATM   10  C   UNL     1     -42.601  57.335 -56.901  1.00  0.00     0.076 A 
HETATM   11  C   UNL     1     -42.133  58.651 -56.720  1.00  0.00     0.085 A 
HETATM   12  C   UNL     1     -42.121  59.513 -57.813  1.00  0.00     0.039 A 
HETATM   13  C   UNL     1     -42.579  59.073 -59.058  1.00  0.00     0.015 A 
HETATM   14  C   UNL     1     -43.058  57.766 -59.242  1.00  0.00    -0.025 A 
HETATM   15  C   UNL     1     -43.070  56.863 -58.152  1.00  0.00    -0.007 A 
HETATM   16  C   UNL     1     -43.530  57.352 -60.498  1.00  0.00     0.012 A 
HETATM   17  C   UNL     1     -43.559  55.555 -58.378  1.00  0.00     0.013 A 
HETATM   18  C   UNL     1     -44.028  55.160 -59.633  1.00  0.00     0.001 A 
HETATM   19  C   UNL     1     -44.015  56.059 -60.691  1.00  0.00     0.001 A 
BRANCH  11  20
HETATM   20  O   UNL     1     -41.742  58.993 -55.453  1.00  0.00    -0.350 OA
BRANCH  20  21
HETATM   21  C   UNL     1     -42.231  60.213 -54.901  1.00  0.00     0.171 C 
HETATM   22  C   UNL     1     -43.683  59.992 -54.517  1.00  0.00     0.034 C 
ENDBRANCH  20  21
ENDBRANCH  11  20
ENDBRANCH   7  10
ENDBRANCH   1   6
BRANCH   2  23
HETATM   23  C   UNL     1     -41.901  56.278 -52.461  1.00  0.00     0.732 A 
HETATM   24  N   UNL     1     -41.204  57.355 -52.272  1.00  0.00    -0.067 NA
HETATM   25  C   UNL     1     -41.855  58.400 -51.654  1.00  0.00     0.065 A 
HETATM   26  C   UNL     1     -43.134  58.354 -51.238  1.00  0.00     0.036 A 
HETATM   27  C   UNL     1     -41.028  59.657 -51.497  1.00  0.00     0.060 C 
HETATM   28  C   UNL     1     -43.850  59.490 -50.568  1.00  0.00     0.046 C 
HETATM   29  C   UNL     1     -43.894  57.098 -51.458  1.00  0.00     0.268 A 
HETATM   30  C   UNL     1     -42.911  60.617 -50.133  1.00  0.00     0.005 C 
HETATM   31  C   UNL     1     -41.863  60.904 -51.202  1.00  0.00     0.006 C 
HETATM   32  O   UNL     1     -45.062  56.970 -51.112  1.00  0.00    -0.267 OA
HETATM   33  N   UNL     1     -43.200  56.108 -52.079  1.00  0.00    -0.152 N 
HETATM   34  H   UNL     1     -43.663  55.226 -52.271  1.00  0.00     0.188 HD
ENDBRANCH   2  23
BRANCH   4  35
HETATM   35  C   UNL     1     -40.125  51.795 -52.928  1.00  0.00     0.105 A 
HETATM   36  O   UNL     1     -39.801  51.400 -51.658  1.00  0.00    -0.320 OA
HETATM   37  C   UNL     1     -39.392  50.107 -51.728  1.00  0.00     0.142 A 
HETATM   38  C   UNL     1     -39.446  49.655 -53.025  1.00  0.00     0.027 A 
HETATM   39  C   UNL     1     -39.917  50.743 -53.800  1.00  0.00     0.041 A 
ENDBRANCH   4  35
TORSDOF 6
ENDMDL
MODEL 4
REMARK VINA RESULT:      -9.0      2.219      7.390
REMARK  6 active torsions:
REMARK  status: ('A' for Active; 'I' for Inactive)
REMARK    1  A    between atoms: C_2  and  O_3 
REMARK    2  A    between atoms: O_3  and  C_4 
REMARK    3  A    between atoms: C_5  and  C_6 
REMARK       I    between atoms: C_6  and  N_7 
REMARK    4  A    between atoms: N_7  and  C_8 
REMARK    5  A    between atoms: N_9  and  C_10 
REMARK    6  A    between atoms: C_22  and  C_23 
ROOT
HETATM    1  C   UNL     1     -41.367  55.895 -53.617  1.00  0.00     0.152 A 
HETATM    2  N   UNL     1     -41.550  55.430 -54.911  1.00  0.00    -0.044 N 
HETATM    3  N   UNL     1     -41.190  54.119 -55.052  1.00  0.00    -0.148 NA
HETATM    4  C   UNL     1     -40.765  53.772 -53.830  1.00  0.00     0.115 A 
HETATM    5  C   UNL     1     -40.828  54.843 -52.915  1.00  0.00     0.087 A 
ENDROOT
BRANCH   1   6
HETATM    6  N   UNL     1     -41.735  57.176 -53.239  1.00  0.00    -0.307 N 
HETATM    7  C   UNL     1     -42.963  57.485 -52.693  1.00  0.00     0.261 C 
HETATM    8  O   UNL     1     -43.809  56.710 -52.271  1.00  0.00    -0.267 OA
HETATM    9  H   UNL     1     -41.080  57.931 -53.443  1.00  0.00     0.170 HD
BRANCH   7  10
HETATM   10  C   UNL     1     -43.207  58.945 -52.627  1.00  0.00     0.076 A 
HETATM   11  C   UNL     1     -42.634  59.650 -51.551  1.00  0.00     0.085 A 
HETATM   12  C   UNL     1     -42.868  61.018 -51.447  1.00  0.00     0.039 A 
HETATM   13  C   UNL     1     -43.669  61.666 -52.392  1.00  0.00     0.015 A 
HETATM   14  C   UNL     1     -44.253  60.967 -53.461  1.00  0.00    -0.025 A 
HETATM   15  C   UNL     1     -44.022  59.578 -53.599  1.00  0.00    -0.007 A 
HETATM   16  C   UNL     1     -45.068  61.636 -54.387  1.00  0.00     0.012 A 
HETATM   17  C   UNL     1     -44.627  58.909 -54.689  1.00  0.00     0.013 A 
HETATM   18  C   UNL     1     -45.438  59.588 -55.600  1.00  0.00     0.001 A 
HETATM   19  C   UNL     1     -45.660  60.950 -55.448  1.00  0.00     0.001 A 
BRANCH  11  20
HETATM   20  O   UNL     1     -41.898  58.916 -50.660  1.00  0.00    -0.350 OA
BRANCH  20  21
HETATM   21  C   UNL     1     -40.747  59.518 -50.074  1.00  0.00     0.171 C 
HETATM   22  C   UNL     1     -39.555  59.172 -50.947  1.00  0.00     0.034 C 
ENDBRANCH  20  21
ENDBRANCH  11  20
ENDBRANCH   7  10
ENDBRANCH   1   6
BRANCH   2  23
HETATM   23  C   UNL     1     -42.036  56.146 -56.024  1.00  0.00     0.732 A 
HETATM   24  N   UNL     1     -41.890  57.427 -56.163  1.00  0.00    -0.067 NA
HETATM   25  C   UNL     1     -42.393  57.974 -57.322  1.00  0.00     0.065 A 
HETATM   26  C   UNL     1     -43.023  57.268 -58.280  1.00  0.00     0.036 A 
HETATM   27  C   UNL     1     -42.159  59.460 -57.475  1.00  0.00     0.060 C 
HETATM   28  C   UNL     1     -43.571  57.858 -59.547  1.00  0.00     0.046 C 
HETATM   29  C   UNL     1     -43.185  55.807 -58.077  1.00  0.00     0.268 A 
HETATM   30  C   UNL     1     -43.610  59.387 -59.528  1.00  0.00     0.005 C 
HETATM   31  C   UNL     1     -42.343  59.963 -58.908  1.00  0.00     0.006 C 
HETATM   32  O   UNL     1     -43.744  55.090 -58.898  1.00  0.00    -0.267 OA
HETATM   33  N   UNL     1     -42.660  55.326 -56.920  1.00  0.00    -0.152 N 
HETATM   34  H   UNL     1     -42.725  54.333 -56.722  1.00  0.00     0.188 HD
ENDBRANCH   2  23
BRANCH   4  35
HETATM   35  C   UNL     1     -40.306  52.392 -53.498  1.00  0.00     0.105 A 
HETATM   36  O   UNL     1     -39.848  52.002 -52.268  1.00  0.00    -0.320 OA
HETATM   37  C   UNL     1     -39.543  50.682 -52.349  1.00  0.00     0.142 A 
HETATM   38  C   UNL     1     -39.796  50.206 -53.613  1.00  0.00     0.027 A 
HETATM   39  C   UNL     1     -40.287  51.308 -54.356  1.00  0.00     0.041 A 
ENDBRANCH   4  35
TORSDOF 6
ENDMDL
MODEL 5
REMARK VINA RESULT:      -8.9      2.026      6.612
REMARK  6 active torsions:
REMARK  status: ('A' for Active; 'I' for Inactive)
REMARK    1  A    between atoms: C_2  and  O_3 
REMARK    2  A    between atoms: O_3  and  C_4 
REMARK    3  A    between atoms: C_5  and  C_6 
REMARK       I    between atoms: C_6  and  N_7 
REMARK    4  A    between atoms: N_7  and  C_8 
REMARK    5  A    between atoms: N_9  and  C_10 
REMARK    6  A    between atoms: C_22  and  C_23 
ROOT
HETATM    1  C   UNL     1     -41.584  55.483 -54.262  1.00  0.00     0.152 A 
HETATM    2  N   UNL     1     -41.424  55.797 -52.921  1.00  0.00    -0.044 N 
HETATM    3  N   UNL     1     -40.932  54.750 -52.193  1.00  0.00    -0.148 NA
HETATM    4  C   UNL     1     -40.800  53.768 -53.095  1.00  0.00     0.115 A 
HETATM    5  C   UNL     1     -41.217  54.163 -54.384  1.00  0.00     0.087 A 
ENDROOT
BRANCH   1   6
HETATM    6  N   UNL     1     -42.002  56.422 -55.191  1.00  0.00    -0.307 N 
HETATM    7  C   UNL     1     -43.321  56.601 -55.550  1.00  0.00     0.261 C 
HETATM    8  O   UNL     1     -44.314  56.149 -54.997  1.00  0.00    -0.267 OA
HETATM    9  H   UNL     1     -41.281  56.956 -55.676  1.00  0.00     0.170 HD
BRANCH   7  10
HETATM   10  C   UNL     1     -43.476  57.467 -56.742  1.00  0.00     0.076 A 
HETATM   11  C   UNL     1     -43.441  58.861 -56.540  1.00  0.00     0.085 A 
HETATM   12  C   UNL     1     -43.611  59.700 -57.637  1.00  0.00     0.039 A 
HETATM   13  C   UNL     1     -43.823  59.159 -58.908  1.00  0.00     0.015 A 
HETATM   14  C   UNL     1     -43.871  57.770 -59.114  1.00  0.00    -0.025 A 
HETATM   15  C   UNL     1     -43.689  56.892 -58.020  1.00  0.00    -0.007 A 
HETATM   16  C   UNL     1     -44.104  57.250 -60.398  1.00  0.00     0.012 A 
HETATM   17  C   UNL     1     -43.743  55.501 -58.268  1.00  0.00     0.013 A 
HETATM   18  C   UNL     1     -43.979  54.999 -59.550  1.00  0.00     0.001 A 
HETATM   19  C   UNL     1     -44.161  55.873 -60.613  1.00  0.00     0.001 A 
BRANCH  11  20
HETATM   20  O   UNL     1     -43.265  59.288 -55.251  1.00  0.00    -0.350 OA
BRANCH  20  21
HETATM   21  C   UNL     1     -42.251  60.255 -54.992  1.00  0.00     0.171 C 
HETATM   22  C   UNL     1     -42.862  61.334 -54.116  1.00  0.00     0.034 C 
ENDBRANCH  20  21
ENDBRANCH  11  20
ENDBRANCH   7  10
ENDBRANCH   1   6
BRANCH   2  23
HETATM   23  C   UNL     1     -41.709  57.020 -52.282  1.00  0.00     0.732 A 
HETATM   24  N   UNL     1     -42.907  57.508 -52.187  1.00  0.00    -0.067 NA
HETATM   25  C   UNL     1     -43.027  58.697 -51.504  1.00  0.00     0.065 A 
HETATM   26  C   UNL     1     -41.992  59.365 -50.960  1.00  0.00     0.036 A 
HETATM   27  C   UNL     1     -44.443  59.210 -51.366  1.00  0.00     0.060 C 
HETATM   28  C   UNL     1     -42.116  60.660 -50.211  1.00  0.00     0.046 C 
HETATM   29  C   UNL     1     -40.634  58.782 -51.104  1.00  0.00     0.268 A 
HETATM   30  C   UNL     1     -43.491  61.312 -50.366  1.00  0.00     0.005 C 
HETATM   31  C   UNL     1     -44.605  60.275 -50.281  1.00  0.00     0.006 C 
HETATM   32  O   UNL     1     -39.637  59.322 -50.640  1.00  0.00    -0.267 OA
HETATM   33  N   UNL     1     -40.583  57.604 -51.779  1.00  0.00    -0.152 N 
HETATM   34  H   UNL     1     -39.687  57.145 -51.905  1.00  0.00     0.188 HD
ENDBRANCH   2  23
BRANCH   4  35
HETATM   35  C   UNL     1     -40.247  52.426 -52.752  1.00  0.00     0.105 A 
HETATM   36  O   UNL     1     -39.942  52.014 -51.483  1.00  0.00    -0.320 OA
HETATM   37  C   UNL     1     -39.484  50.740 -51.570  1.00  0.00     0.142 A 
HETATM   38  C   UNL     1     -39.485  50.315 -52.877  1.00  0.00     0.027 A 
HETATM   39  C   UNL     1     -39.975  51.402 -53.641  1.00  0.00     0.041 A 
ENDBRANCH   4  35
TORSDOF 6
ENDMDL
MODEL 6
REMARK VINA RESULT:      -8.9      2.695      7.029
REMARK  6 active torsions:
REMARK  status: ('A' for Active; 'I' for Inactive)
REMARK    1  A    between atoms: C_2  and  O_3 
REMARK    2  A    between atoms: O_3  and  C_4 
REMARK    3  A    between atoms: C_5  and  C_6 
REMARK       I    between atoms: C_6  and  N_7 
REMARK    4  A    between atoms: N_7  and  C_8 
REMARK    5  A    between atoms: N_9  and  C_10 
REMARK    6  A    between atoms: C_22  and  C_23 
ROOT
HETATM    1  C   UNL     1     -41.398  56.596 -54.183  1.00  0.00     0.152 A 
HETATM    2  N   UNL     1     -41.854  56.524 -52.875  1.00  0.00    -0.044 N 
HETATM    3  N   UNL     1     -41.558  55.329 -52.282  1.00  0.00    -0.148 NA
HETATM    4  C   UNL     1     -40.921  54.645 -53.243  1.00  0.00     0.115 A 
HETATM    5  C   UNL     1     -40.823  55.375 -54.446  1.00  0.00     0.087 A 
ENDROOT
BRANCH   1   6
HETATM    6  N   UNL     1     -41.530  57.746 -54.944  1.00  0.00    -0.307 N 
HETATM    7  C   UNL     1     -42.655  58.045 -55.682  1.00  0.00     0.261 C 
HETATM    8  O   UNL     1     -43.749  57.499 -55.630  1.00  0.00    -0.267 OA
HETATM    9  H   UNL     1     -40.718  58.362 -55.007  1.00  0.00     0.170 HD
BRANCH   7  10
HETATM   10  C   UNL     1     -42.446  59.182 -56.608  1.00  0.00     0.076 A 
HETATM   11  C   UNL     1     -42.477  60.479 -56.060  1.00  0.00     0.085 A 
HETATM   12  C   UNL     1     -42.309  61.568 -56.911  1.00  0.00     0.039 A 
HETATM   13  C   UNL     1     -42.127  61.366 -58.282  1.00  0.00     0.015 A 
HETATM   14  C   UNL     1     -42.107  60.076 -58.836  1.00  0.00    -0.025 A 
HETATM   15  C   UNL     1     -42.261  58.949 -57.994  1.00  0.00    -0.007 A 
HETATM   16  C   UNL     1     -41.940  59.899 -60.219  1.00  0.00     0.012 A 
HETATM   17  C   UNL     1     -42.234  57.666 -58.589  1.00  0.00     0.013 A 
HETATM   18  C   UNL     1     -42.071  57.507 -59.967  1.00  0.00     0.001 A 
HETATM   19  C   UNL     1     -41.926  58.622 -60.781  1.00  0.00     0.001 A 
BRANCH  11  20
HETATM   20  O   UNL     1     -42.699  60.570 -54.713  1.00  0.00    -0.350 OA
BRANCH  20  21
HETATM   21  C   UNL     1     -43.685  61.487 -54.249  1.00  0.00     0.171 C 
HETATM   22  C   UNL     1     -44.976  60.712 -54.054  1.00  0.00     0.034 C 
ENDBRANCH  20  21
ENDBRANCH  11  20
ENDBRANCH   7  10
ENDBRANCH   1   6
BRANCH   2  23
HETATM   23  C   UNL     1     -42.556  57.509 -52.152  1.00  0.00     0.732 A 
HETATM   24  N   UNL     1     -42.044  58.658 -51.837  1.00  0.00    -0.067 NA
HETATM   25  C   UNL     1     -42.869  59.525 -51.156  1.00  0.00     0.065 A 
HETATM   26  C   UNL     1     -44.136  59.242 -50.800  1.00  0.00     0.036 A 
HETATM   27  C   UNL     1     -42.257  60.874 -50.851  1.00  0.00     0.060 C 
HETATM   28  C   UNL     1     -45.041  60.183 -50.062  1.00  0.00     0.046 C 
HETATM   29  C   UNL     1     -44.681  57.910 -51.165  1.00  0.00     0.268 A 
HETATM   30  C   UNL     1     -44.305  61.396 -49.487  1.00  0.00     0.005 C 
HETATM   31  C   UNL     1     -43.287  61.943 -50.481  1.00  0.00     0.006 C 
HETATM   32  O   UNL     1     -45.823  57.570 -50.882  1.00  0.00    -0.267 OA
HETATM   33  N   UNL     1     -43.822  57.104 -51.843  1.00  0.00    -0.152 N 
HETATM   34  H   UNL     1     -44.134  56.183 -52.134  1.00  0.00     0.188 HD
ENDBRANCH   2  23
BRANCH   4  35
HETATM   35  C   UNL     1     -40.367  53.277 -53.027  1.00  0.00     0.105 A 
HETATM   36  O   UNL     1     -39.864  52.823 -51.839  1.00  0.00    -0.320 OA
HETATM   37  C   UNL     1     -39.474  51.537 -52.028  1.00  0.00     0.142 A 
HETATM   38  C   UNL     1     -39.717  51.146 -53.324  1.00  0.00     0.027 A 
HETATM   39  C   UNL     1     -40.291  52.268 -53.970  1.00  0.00     0.041 A 
ENDBRANCH   4  35
TORSDOF 6
ENDMDL
MODEL 7
REMARK VINA RESULT:      -8.9      2.207      7.239
REMARK  6 active torsions:
REMARK  status: ('A' for Active; 'I' for Inactive)
REMARK    1  A    between atoms: C_2  and  O_3 
REMARK    2  A    between atoms: O_3  and  C_4 
REMARK    3  A    between atoms: C_5  and  C_6 
REMARK       I    between atoms: C_6  and  N_7 
REMARK    4  A    between atoms: N_7  and  C_8 
REMARK    5  A    between atoms: N_9  and  C_10 
REMARK    6  A    between atoms: C_22  and  C_23 
ROOT
HETATM    1  C   UNL     1     -42.889  55.223 -54.770  1.00  0.00     0.152 A 
HETATM    2  N   UNL     1     -42.478  55.666 -53.521  1.00  0.00    -0.044 N 
HETATM    3  N   UNL     1     -41.655  54.773 -52.894  1.00  0.00    -0.148 NA
HETATM    4  C   UNL     1     -41.567  53.756 -53.761  1.00  0.00     0.115 A 
HETATM    5  C   UNL     1     -42.336  53.973 -54.924  1.00  0.00     0.087 A 
ENDROOT
BRANCH   1   6
HETATM    6  N   UNL     1     -43.671  56.004 -55.605  1.00  0.00    -0.307 N 
HETATM    7  C   UNL     1     -43.179  57.068 -56.332  1.00  0.00     0.261 C 
HETATM    8  O   UNL     1     -42.008  57.359 -56.529  1.00  0.00    -0.267 OA
HETATM    9  H   UNL     1     -44.674  55.815 -55.622  1.00  0.00     0.170 HD
BRANCH   7  10
HETATM   10  C   UNL     1     -44.252  57.897 -56.928  1.00  0.00     0.076 A 
HETATM   11  C   UNL     1     -44.804  57.463 -58.149  1.00  0.00     0.085 A 
HETATM   12  C   UNL     1     -45.796  58.235 -58.747  1.00  0.00     0.039 A 
HETATM   13  C   UNL     1     -46.218  59.424 -58.144  1.00  0.00     0.015 A 
HETATM   14  C   UNL     1     -45.663  59.867 -56.933  1.00  0.00    -0.025 A 
HETATM   15  C   UNL     1     -44.663  59.096 -56.295  1.00  0.00    -0.007 A 
HETATM   16  C   UNL     1     -46.091  61.074 -56.355  1.00  0.00     0.012 A 
HETATM   17  C   UNL     1     -44.129  59.577 -55.076  1.00  0.00     0.013 A 
HETATM   18  C   UNL     1     -44.563  60.780 -54.516  1.00  0.00     0.001 A 
HETATM   19  C   UNL     1     -45.542  61.529 -55.156  1.00  0.00     0.001 A 
BRANCH  11  20
HETATM   20  O   UNL     1     -44.295  56.306 -58.675  1.00  0.00    -0.350 OA
BRANCH  20  21
HETATM   21  C   UNL     1     -43.832  56.321 -60.022  1.00  0.00     0.171 C 
HETATM   22  C   UNL     1     -42.405  56.839 -60.011  1.00  0.00     0.034 C 
ENDBRANCH  20  21
ENDBRANCH  11  20
ENDBRANCH   7  10
ENDBRANCH   1   6
BRANCH   2  23
HETATM   23  C   UNL     1     -42.817  56.874 -52.881  1.00  0.00     0.732 A 
HETATM   24  N   UNL     1     -43.996  57.114 -52.396  1.00  0.00    -0.067 NA
HETATM   25  C   UNL     1     -44.160  58.330 -51.771  1.00  0.00     0.065 A 
HETATM   26  C   UNL     1     -43.191  59.258 -51.655  1.00  0.00     0.036 A 
HETATM   27  C   UNL     1     -45.530  58.555 -51.171  1.00  0.00     0.060 C 
HETATM   28  C   UNL     1     -43.363  60.584 -50.973  1.00  0.00     0.046 C 
HETATM   29  C   UNL     1     -41.861  58.953 -52.237  1.00  0.00     0.268 A 
HETATM   30  C   UNL     1     -44.825  60.916 -50.667  1.00  0.00     0.005 C 
HETATM   31  C   UNL     1     -45.571  59.692 -50.149  1.00  0.00     0.006 C 
HETATM   32  O   UNL     1     -40.923  59.740 -52.178  1.00  0.00    -0.267 OA
HETATM   33  N   UNL     1     -41.759  57.736 -52.832  1.00  0.00    -0.152 N 
HETATM   34  H   UNL     1     -40.873  57.457 -53.241  1.00  0.00     0.188 HD
ENDBRANCH   2  23
BRANCH   4  35
HETATM   35  C   UNL     1     -40.723  52.551 -53.510  1.00  0.00     0.105 A 
HETATM   36  O   UNL     1     -40.049  52.307 -52.345  1.00  0.00    -0.320 OA
HETATM   37  C   UNL     1     -39.412  51.117 -52.487  1.00  0.00     0.142 A 
HETATM   38  C   UNL     1     -39.662  50.582 -53.728  1.00  0.00     0.027 A 
HETATM   39  C   UNL     1     -40.506  51.507 -54.390  1.00  0.00     0.041 A 
ENDBRANCH   4  35
TORSDOF 6
ENDMDL
MODEL 8
REMARK VINA RESULT:      -8.7      2.430      7.341
REMARK  6 active torsions:
REMARK  status: ('A' for Active; 'I' for Inactive)
REMARK    1  A    between atoms: C_2  and  O_3 
REMARK    2  A    between atoms: O_3  and  C_4 
REMARK    3  A    between atoms: C_5  and  C_6 
REMARK       I    between atoms: C_6  and  N_7 
REMARK    4  A    between atoms: N_7  and  C_8 
REMARK    5  A    between atoms: N_9  and  C_10 
REMARK    6  A    between atoms: C_22  and  C_23 
ROOT
HETATM    1  C   UNL     1     -41.513  55.503 -54.840  1.00  0.00     0.152 A 
HETATM    2  N   UNL     1     -41.768  55.609 -53.481  1.00  0.00    -0.044 N 
HETATM    3  N   UNL     1     -41.403  54.486 -52.792  1.00  0.00    -0.148 NA
HETATM    4  C   UNL     1     -40.929  53.669 -53.741  1.00  0.00     0.115 A 
HETATM    5  C   UNL     1     -41.002  54.241 -55.029  1.00  0.00     0.087 A 
ENDROOT
BRANCH   1   6
HETATM    6  N   UNL     1     -41.742  56.555 -55.713  1.00  0.00    -0.307 N 
HETATM    7  C   UNL     1     -42.997  56.922 -56.150  1.00  0.00     0.261 C 
HETATM    8  O   UNL     1     -44.078  56.556 -55.709  1.00  0.00    -0.267 OA
HETATM    9  H   UNL     1     -40.925  57.031 -56.098  1.00  0.00     0.170 HD
BRANCH   7  10
HETATM   10  C   UNL     1     -42.951  57.889 -57.271  1.00  0.00     0.076 A 
HETATM   11  C   UNL     1     -42.865  57.364 -58.576  1.00  0.00     0.085 A 
HETATM   12  C   UNL     1     -42.794  58.248 -59.649  1.00  0.00     0.039 A 
HETATM   13  C   UNL     1     -42.796  59.627 -59.423  1.00  0.00     0.015 A 
HETATM   14  C   UNL     1     -42.870  60.156 -58.124  1.00  0.00    -0.025 A 
HETATM   15  C   UNL     1     -42.956  59.282 -57.014  1.00  0.00    -0.007 A 
HETATM   16  C   UNL     1     -42.853  61.546 -57.920  1.00  0.00     0.012 A 
HETATM   17  C   UNL     1     -43.030  59.854 -55.723  1.00  0.00     0.013 A 
HETATM   18  C   UNL     1     -43.008  61.237 -55.537  1.00  0.00     0.001 A 
HETATM   19  C   UNL     1     -42.918  62.082 -56.635  1.00  0.00     0.001 A 
BRANCH  11  20
HETATM   20  O   UNL     1     -42.832  56.000 -58.686  1.00  0.00    -0.350 OA
BRANCH  20  21
HETATM   21  C   UNL     1     -43.310  55.407 -59.890  1.00  0.00     0.171 C 
HETATM   22  C   UNL     1     -44.483  54.514 -59.527  1.00  0.00     0.034 C 
ENDBRANCH  20  21
ENDBRANCH  11  20
ENDBRANCH   7  10
ENDBRANCH   1   6
BRANCH   2  23
HETATM   23  C   UNL     1     -42.338  56.698 -52.793  1.00  0.00     0.732 A 
HETATM   24  N   UNL     1     -41.837  57.894 -52.817  1.00  0.00    -0.067 NA
HETATM   25  C   UNL     1     -42.530  58.858 -52.119  1.00  0.00     0.065 A 
HETATM   26  C   UNL     1     -43.658  58.624 -51.422  1.00  0.00     0.036 A 
HETATM   27  C   UNL     1     -41.946  60.250 -52.213  1.00  0.00     0.060 C 
HETATM   28  C   UNL     1     -44.419  59.670 -50.663  1.00  0.00     0.046 C 
HETATM   29  C   UNL     1     -44.192  57.239 -51.406  1.00  0.00     0.268 A 
HETATM   30  C   UNL     1     -43.643  60.980 -50.505  1.00  0.00     0.005 C 
HETATM   31  C   UNL     1     -42.923  61.351 -51.796  1.00  0.00     0.006 C 
HETATM   32  O   UNL     1     -45.212  56.937 -50.798  1.00  0.00    -0.267 OA
HETATM   33  N   UNL     1     -43.469  56.336 -52.120  1.00  0.00    -0.152 N 
HETATM   34  H   UNL     1     -43.784  55.372 -52.160  1.00  0.00     0.188 HD
ENDBRANCH   2  23
BRANCH   4  35
HETATM   35  C   UNL     1     -40.369  52.320 -53.438  1.00  0.00     0.105 A 
HETATM   36  O   UNL     1     -39.908  51.930 -52.210  1.00  0.00    -0.320 OA
HETATM   37  C   UNL     1     -39.497  50.641 -52.322  1.00  0.00     0.142 A 
HETATM   38  C   UNL     1     -39.683  50.185 -53.605  1.00  0.00     0.027 A 
HETATM   39  C   UNL     1     -40.244  51.268 -54.327  1.00  0.00     0.041 A 
ENDBRANCH   4  35
TORSDOF 6
ENDMDL
MODEL 9
REMARK VINA RESULT:      -8.6      2.886      8.408
REMARK  6 active torsions:
REMARK  status: ('A' for Active; 'I' for Inactive)
REMARK    1  A    between atoms: C_2  and  O_3 
REMARK    2  A    between atoms: O_3  and  C_4 
REMARK    3  A    between atoms: C_5  and  C_6 
REMARK       I    between atoms: C_6  and  N_7 
REMARK    4  A    between atoms: N_7  and  C_8 
REMARK    5  A    between atoms: N_9  and  C_10 
REMARK    6  A    between atoms: C_22  and  C_23 
ROOT
HETATM    1  C   UNL     1     -44.865  58.919 -53.381  1.00  0.00     0.152 A 
HETATM    2  N   UNL     1     -44.108  58.132 -52.526  1.00  0.00    -0.044 N 
HETATM    3  N   UNL     1     -44.043  58.645 -51.261  1.00  0.00    -0.148 NA
HETATM    4  C   UNL     1     -44.759  59.775 -51.339  1.00  0.00     0.115 A 
HETATM    5  C   UNL     1     -45.264  60.004 -52.636  1.00  0.00     0.087 A 
ENDROOT
BRANCH   1   6
HETATM    6  N   UNL     1     -45.118  58.546 -54.691  1.00  0.00    -0.307 N 
HETATM    7  C   UNL     1     -44.459  59.083 -55.776  1.00  0.00     0.261 C 
HETATM    8  O   UNL     1     -43.452  59.777 -55.770  1.00  0.00    -0.267 OA
HETATM    9  H   UNL     1     -45.881  57.887 -54.852  1.00  0.00     0.170 HD
BRANCH   7  10
HETATM   10  C   UNL     1     -45.092  58.720 -57.066  1.00  0.00     0.076 A 
HETATM   11  C   UNL     1     -46.195  59.489 -57.486  1.00  0.00     0.085 A 
HETATM   12  C   UNL     1     -46.826  59.155 -58.681  1.00  0.00     0.039 A 
HETATM   13  C   UNL     1     -46.373  58.068 -59.434  1.00  0.00     0.015 A 
HETATM   14  C   UNL     1     -45.281  57.291 -59.014  1.00  0.00    -0.025 A 
HETATM   15  C   UNL     1     -44.611  57.614 -57.810  1.00  0.00    -0.007 A 
HETATM   16  C   UNL     1     -44.856  56.192 -59.778  1.00  0.00     0.012 A 
HETATM   17  C   UNL     1     -43.516  56.808 -57.422  1.00  0.00     0.013 A 
HETATM   18  C   UNL     1     -43.107  55.717 -58.192  1.00  0.00     0.001 A 
HETATM   19  C   UNL     1     -43.777  55.408 -59.368  1.00  0.00     0.001 A 
BRANCH  11  20
HETATM   20  O   UNL     1     -46.582  60.508 -56.658  1.00  0.00    -0.350 OA
BRANCH  20  21
HETATM   21  C   UNL     1     -46.476  61.846 -57.136  1.00  0.00     0.171 C 
HETATM   22  C   UNL     1     -45.659  62.630 -56.125  1.00  0.00     0.034 C 
ENDBRANCH  20  21
ENDBRANCH  11  20
ENDBRANCH   7  10
ENDBRANCH   1   6
BRANCH   2  23
HETATM   23  C   UNL     1     -43.437  56.929 -52.828  1.00  0.00     0.732 A 
HETATM   24  N   UNL     1     -42.592  56.815 -53.805  1.00  0.00    -0.067 NA
HETATM   25  C   UNL     1     -41.996  55.582 -53.950  1.00  0.00     0.065 A 
HETATM   26  C   UNL     1     -42.251  54.520 -53.163  1.00  0.00     0.036 A 
HETATM   27  C   UNL     1     -40.977  55.498 -55.065  1.00  0.00     0.060 C 
HETATM   28  C   UNL     1     -41.602  53.175 -53.314  1.00  0.00     0.046 C 
HETATM   29  C   UNL     1     -43.236  54.687 -52.066  1.00  0.00     0.268 A 
HETATM   30  C   UNL     1     -40.833  53.025 -54.628  1.00  0.00     0.005 C 
HETATM   31  C   UNL     1     -40.046  54.290 -54.953  1.00  0.00     0.006 C 
HETATM   32  O   UNL     1     -43.528  53.774 -51.302  1.00  0.00    -0.267 OA
HETATM   33  N   UNL     1     -43.783  55.927 -51.968  1.00  0.00    -0.152 N 
HETATM   34  H   UNL     1     -44.457  56.115 -51.233  1.00  0.00     0.188 HD
ENDBRANCH   2  23
BRANCH   4  35
HETATM   35  C   UNL     1     -45.000  60.660 -50.162  1.00  0.00     0.105 A 
HETATM   36  O   UNL     1     -45.865  60.374 -49.141  1.00  0.00    -0.320 OA
HETATM   37  C   UNL     1     -45.799  61.399 -48.254  1.00  0.00     0.142 A 
HETATM   38  C   UNL     1     -44.904  62.350 -48.683  1.00  0.00     0.027 A 
HETATM   39  C   UNL     1     -44.389  61.875 -49.914  1.00  0.00     0.041 A 
ENDBRANCH   4  35
TORSDOF 6
ENDMDL
MODEL 10
REMARK VINA RESULT:      -8.5      1.770      5.952
REMARK  6 active torsions:
REMARK  status: ('A' for Active; 'I' for Inactive)
REMARK    1  A    between atoms: C_2  and  O_3 
REMARK    2  A    between atoms: O_3  and  C_4 
REMARK    3  A    between atoms: C_5  and  C_6 
REMARK       I    between atoms: C_6  and  N_7 
REMARK    4  A    between atoms: N_7  and  C_8 
REMARK    5  A    between atoms: N_9  and  C_10 
REMARK    6  A    between atoms: C_22  and  C_23 
ROOT
HETATM    1  C   UNL     1     -43.438  57.031 -55.345  1.00  0.00     0.152 A 
HETATM    2  N   UNL     1     -42.809  55.796 -55.379  1.00  0.00    -0.044 N 
HETATM    3  N   UNL     1     -42.922  55.184 -56.597  1.00  0.00    -0.148 NA
HETATM    4  C   UNL     1     -43.644  56.049 -57.322  1.00  0.00     0.115 A 
HETATM    5  C   UNL     1     -44.012  57.193 -56.584  1.00  0.00     0.087 A 
ENDROOT
BRANCH   1   6
HETATM    6  N   UNL     1     -43.385  57.851 -54.229  1.00  0.00    -0.307 N 
HETATM    7  C   UNL     1     -42.618  58.994 -54.161  1.00  0.00     0.261 C 
HETATM    8  O   UNL     1     -42.055  59.573 -55.080  1.00  0.00    -0.267 OA
HETATM    9  H   UNL     1     -43.892  57.544 -53.398  1.00  0.00     0.170 HD
BRANCH   7  10
HETATM   10  C   UNL     1     -42.525  59.538 -52.786  1.00  0.00     0.076 A 
HETATM   11  C   UNL     1     -43.676  60.151 -52.252  1.00  0.00     0.085 A 
HETATM   12  C   UNL     1     -43.611  60.695 -50.973  1.00  0.00     0.039 A 
HETATM   13  C   UNL     1     -42.418  60.640 -50.246  1.00  0.00     0.015 A 
HETATM   14  C   UNL     1     -41.264  60.041 -50.777  1.00  0.00    -0.025 A 
HETATM   15  C   UNL     1     -41.304  59.468 -52.071  1.00  0.00    -0.007 A 
HETATM   16  C   UNL     1     -40.072  60.013 -50.036  1.00  0.00     0.012 A 
HETATM   17  C   UNL     1     -40.121  58.873 -52.570  1.00  0.00     0.013 A 
HETATM   18  C   UNL     1     -38.943  58.856 -51.822  1.00  0.00     0.001 A 
HETATM   19  C   UNL     1     -38.918  59.427 -50.556  1.00  0.00     0.001 A 
BRANCH  11  20
HETATM   20  O   UNL     1     -44.781  60.186 -53.059  1.00  0.00    -0.350 OA
BRANCH  20  21
HETATM   21  C   UNL     1     -45.323  61.456 -53.410  1.00  0.00     0.171 C 
HETATM   22  C   UNL     1     -45.040  61.682 -54.885  1.00  0.00     0.034 C 
ENDBRANCH  20  21
ENDBRANCH  11  20
ENDBRANCH   7  10
ENDBRANCH   1   6
BRANCH   2  23
HETATM   23  C   UNL     1     -42.113  55.153 -54.336  1.00  0.00     0.732 A 
HETATM   24  N   UNL     1     -41.926  55.691 -53.171  1.00  0.00    -0.067 NA
HETATM   25  C   UNL     1     -41.255  54.922 -52.247  1.00  0.00     0.065 A 
HETATM   26  C   UNL     1     -40.785  53.684 -52.490  1.00  0.00     0.036 A 
HETATM   27  C   UNL     1     -41.101  55.560 -50.884  1.00  0.00     0.060 C 
HETATM   28  C   UNL     1     -40.056  52.840 -51.487  1.00  0.00     0.046 C 
HETATM   29  C   UNL     1     -41.005  53.109 -53.841  1.00  0.00     0.268 A 
HETATM   30  C   UNL     1     -39.633  53.621 -50.241  1.00  0.00     0.005 C 
HETATM   31  C   UNL     1     -40.739  54.564 -49.781  1.00  0.00     0.006 C 
HETATM   32  O   UNL     1     -40.612  51.990 -54.148  1.00  0.00    -0.267 OA
HETATM   33  N   UNL     1     -41.681  53.912 -54.704  1.00  0.00    -0.152 N 
HETATM   34  H   UNL     1     -41.876  53.577 -55.642  1.00  0.00     0.188 HD
ENDBRANCH   2  23
BRANCH   4  35
HETATM   35  C   UNL     1     -43.984  55.813 -58.755  1.00  0.00     0.105 A 
HETATM   36  O   UNL     1     -43.971  56.779 -59.724  1.00  0.00    -0.320 OA
HETATM   37  C   UNL     1     -44.317  56.184 -60.894  1.00  0.00     0.142 A 
HETATM   38  C   UNL     1     -44.556  54.844 -60.701  1.00  0.00     0.027 A 
HETATM   39  C   UNL     1     -44.344  54.604 -59.322  1.00  0.00     0.041 A 
ENDBRANCH   4  35
TORSDOF 6
ENDMDL
