MODEL 1
REMARK VINA RESULT:      -9.2      0.000      0.000
REMARK  3 active torsions:
REMARK  status: ('A' for Active; 'I' for Inactive)
REMARK    1  A    between atoms: C_2  and  C_3 
REMARK    2  A    between atoms: C_8  and  C_9 
REMARK       I    between atoms: C_9  and  N_10 
REMARK    3  A    between atoms: N_10  and  C_11 
ROOT
HETATM    1  C   UNL     1     -42.484  57.644 -55.722  1.00  0.00     0.104 A 
HETATM    2  N   UNL     1     -42.616  58.422 -56.813  1.00  0.00    -0.174 NA
HETATM    3  N   UNL     1     -42.838  57.570 -57.818  1.00  0.00    -0.288 N 
HETATM    4  H   UNL     1     -42.999  57.951 -58.746  1.00  0.00     0.188 HD
HETATM    5  C   UNL     1     -42.810  56.271 -57.438  1.00  0.00     0.128 A 
HETATM    6  C   UNL     1     -42.546  56.257 -56.079  1.00  0.00     0.080 A 
ENDROOT
BRANCH   6   7
HETATM    7  C   UNL     1     -42.406  55.019 -55.316  1.00  0.00     0.260 C 
HETATM    8  N   UNL     1     -41.165  54.831 -54.737  1.00  0.00    -0.323 N 
HETATM    9  H   UNL     1     -40.470  55.547 -54.906  1.00  0.00     0.169 HD
HETATM   10  O   UNL     1     -43.338  54.222 -55.277  1.00  0.00    -0.267 OA
BRANCH   8  11
HETATM   11  C   UNL     1     -40.732  53.727 -53.970  1.00  0.00     0.035 A 
HETATM   12  C   UNL     1     -40.402  52.481 -54.512  1.00  0.00     0.037 A 
HETATM   13  C   UNL     1     -39.978  51.471 -53.660  1.00  0.00    -0.050 A 
HETATM   14  C   UNL     1     -39.869  51.677 -52.283  1.00  0.00    -0.052 A 
HETATM   15  C   UNL     1     -39.527  50.091 -54.032  1.00  0.00     0.039 C 
HETATM   16  C   UNL     1     -39.337  50.456 -51.603  1.00  0.00     0.039 C 
HETATM   17  C   UNL     1     -40.184  52.902 -51.728  1.00  0.00     0.010 A 
HETATM   18  C   UNL     1     -39.588  49.382 -52.672  1.00  0.00     0.009 C 
HETATM   19  C   UNL     1     -40.622  53.926 -52.576  1.00  0.00     0.030 A 
ENDBRANCH   8  11
ENDBRANCH   6   7
BRANCH   1  20
HETATM   20  C   UNL     1     -42.323  58.284 -54.414  1.00  0.00    -0.002 A 
HETATM   21  C   UNL     1     -43.399  58.991 -53.850  1.00  0.00     0.017 A 
HETATM   22  C   UNL     1     -43.286  59.583 -52.590  1.00  0.00     0.040 A 
HETATM   23  C   UNL     1     -42.095  59.470 -51.880  1.00  0.00     0.102 A 
HETATM   24  C   UNL     1     -41.009  58.787 -52.439  1.00  0.00     0.103 A 
HETATM   25  O   UNL     1     -42.060  60.051 -50.639  1.00  0.00    -0.346 OA
HETATM   26  C   UNL     1     -41.129  58.176 -53.689  1.00  0.00     0.053 A 
HETATM   27  O   UNL     1     -39.797  58.665 -51.809  1.00  0.00    -0.346 OA
HETATM   28  C   UNL     1     -39.683  59.577 -50.710  1.00  0.00     0.202 C 
HETATM   29  C   UNL     1     -40.951  59.568 -49.872  1.00  0.00     0.202 C 
ENDBRANCH   1  20
TORSDOF 3
ENDMDL
MODEL 2
REMARK VINA RESULT:      -9.2      2.411      5.641
REMARK  3 active torsions:
REMARK  status: ('A' for Active; 'I' for Inactive)
REMARK    1  A    between atoms: C_2  and  C_3 
REMARK    2  A    between atoms: C_8  and  C_9 
REMARK       I    between atoms: C_9  and  N_10 
REMARK    3  A    between atoms: N_10  and  C_11 
ROOT
HETATM    1  C   UNL     1     -42.511  58.137 -56.292  1.00  0.00     0.104 A 
HETATM    2  N   UNL     1     -42.390  59.474 -56.193  1.00  0.00    -0.174 NA
HETATM    3  N   UNL     1     -41.859  59.683 -54.984  1.00  0.00    -0.288 N 
HETATM    4  H   UNL     1     -41.651  60.638 -54.707  1.00  0.00     0.188 HD
HETATM    5  C   UNL     1     -41.675  58.544 -54.275  1.00  0.00     0.128 A 
HETATM    6  C   UNL     1     -42.118  57.501 -55.069  1.00  0.00     0.080 A 
ENDROOT
BRANCH   6   7
HETATM    7  C   UNL     1     -42.106  56.110 -54.621  1.00  0.00     0.260 C 
HETATM    8  N   UNL     1     -40.911  55.689 -54.068  1.00  0.00    -0.323 N 
HETATM    9  H   UNL     1     -40.158  56.363 -54.040  1.00  0.00     0.169 HD
HETATM   10  O   UNL     1     -43.095  55.407 -54.802  1.00  0.00    -0.267 OA
BRANCH   8  11
HETATM   11  C   UNL     1     -40.599  54.402 -53.576  1.00  0.00     0.035 A 
HETATM   12  C   UNL     1     -40.337  53.297 -54.391  1.00  0.00     0.037 A 
HETATM   13  C   UNL     1     -40.029  52.082 -53.795  1.00  0.00    -0.050 A 
HETATM   14  C   UNL     1     -39.971  51.947 -52.406  1.00  0.00    -0.052 A 
HETATM   15  C   UNL     1     -39.665  50.797 -54.474  1.00  0.00     0.039 C 
HETATM   16  C   UNL     1     -39.564  50.559 -52.023  1.00  0.00     0.039 C 
HETATM   17  C   UNL     1     -40.220  53.027 -51.582  1.00  0.00     0.010 A 
HETATM   18  C   UNL     1     -39.843  49.794 -53.325  1.00  0.00     0.009 C 
HETATM   19  C   UNL     1     -40.540  54.255 -52.173  1.00  0.00     0.030 A 
ENDBRANCH   8  11
ENDBRANCH   6   7
BRANCH   1  20
HETATM   20  C   UNL     1     -42.981  57.563 -57.556  1.00  0.00    -0.002 A 
HETATM   21  C   UNL     1     -42.047  57.116 -58.505  1.00  0.00     0.017 A 
HETATM   22  C   UNL     1     -42.466  56.534 -59.704  1.00  0.00     0.040 A 
HETATM   23  C   UNL     1     -43.825  56.390 -59.962  1.00  0.00     0.102 A 
HETATM   24  C   UNL     1     -44.766  56.850 -59.034  1.00  0.00     0.103 A 
HETATM   25  O   UNL     1     -44.167  55.786 -61.144  1.00  0.00    -0.346 OA
HETATM   26  C   UNL     1     -44.348  57.412 -57.826  1.00  0.00     0.053 A 
HETATM   27  O   UNL     1     -46.120  56.770 -59.239  1.00  0.00    -0.346 OA
HETATM   28  C   UNL     1     -46.428  56.482 -60.608  1.00  0.00     0.202 C 
HETATM   29  C   UNL     1     -45.538  55.369 -61.135  1.00  0.00     0.202 C 
ENDBRANCH   1  20
TORSDOF 3
ENDMDL
MODEL 3
REMARK VINA RESULT:      -9.1      2.556      5.867
REMARK  3 active torsions:
REMARK  status: ('A' for Active; 'I' for Inactive)
REMARK    1  A    between atoms: C_2  and  C_3 
REMARK    2  A    between atoms: C_8  and  C_9 
REMARK       I    between atoms: C_9  and  N_10 
REMARK    3  A    between atoms: N_10  and  C_11 
ROOT
HETATM    1  C   UNL     1     -42.682  58.897 -56.519  1.00  0.00     0.104 A 
HETATM    2  N   UNL     1     -42.606  60.239 -56.599  1.00  0.00    -0.174 NA
HETATM    3  N   UNL     1     -42.149  60.630 -55.406  1.00  0.00    -0.288 N 
HETATM    4  H   UNL     1     -41.985  61.620 -55.253  1.00  0.00     0.188 HD
HETATM    5  C   UNL     1     -41.971  59.606 -54.537  1.00  0.00     0.128 A 
HETATM    6  C   UNL     1     -42.339  58.448 -55.201  1.00  0.00     0.080 A 
ENDROOT
BRANCH   6   7
HETATM    7  C   UNL     1     -42.312  57.133 -54.566  1.00  0.00     0.260 C 
HETATM    8  N   UNL     1     -41.101  56.471 -54.655  1.00  0.00    -0.323 N 
HETATM    9  H   UNL     1     -40.361  56.939 -55.160  1.00  0.00     0.169 HD
HETATM   10  O   UNL     1     -43.333  56.684 -54.057  1.00  0.00    -0.267 OA
BRANCH   8  11
HETATM   11  C   UNL     1     -40.787  55.186 -54.162  1.00  0.00     0.035 A 
HETATM   12  C   UNL     1     -40.852  54.830 -52.811  1.00  0.00     0.037 A 
HETATM   13  C   UNL     1     -40.529  53.532 -52.443  1.00  0.00    -0.050 A 
HETATM   14  C   UNL     1     -40.151  52.579 -53.391  1.00  0.00    -0.052 A 
HETATM   15  C   UNL     1     -40.584  52.930 -51.072  1.00  0.00     0.039 C 
HETATM   16  C   UNL     1     -39.914  51.250 -52.746  1.00  0.00     0.039 C 
HETATM   17  C   UNL     1     -40.086  52.906 -54.732  1.00  0.00     0.010 A 
HETATM   18  C   UNL     1     -39.751  51.656 -51.274  1.00  0.00     0.009 C 
HETATM   19  C   UNL     1     -40.400  54.216 -55.113  1.00  0.00     0.030 A 
ENDBRANCH   8  11
ENDBRANCH   6   7
BRANCH   1  20
HETATM   20  C   UNL     1     -43.065  58.139 -57.713  1.00  0.00    -0.002 A 
HETATM   21  C   UNL     1     -42.083  57.777 -58.650  1.00  0.00     0.017 A 
HETATM   22  C   UNL     1     -42.412  57.026 -59.781  1.00  0.00     0.040 A 
HETATM   23  C   UNL     1     -43.729  56.626 -59.982  1.00  0.00     0.102 A 
HETATM   24  C   UNL     1     -44.721  56.998 -59.068  1.00  0.00     0.103 A 
HETATM   25  O   UNL     1     -43.980  55.869 -61.097  1.00  0.00    -0.346 OA
HETATM   26  C   UNL     1     -44.389  57.730 -57.926  1.00  0.00     0.053 A 
HETATM   27  O   UNL     1     -46.043  56.667 -59.222  1.00  0.00    -0.346 OA
HETATM   28  C   UNL     1     -46.318  56.208 -60.552  1.00  0.00     0.202 C 
HETATM   29  C   UNL     1     -45.255  55.223 -61.009  1.00  0.00     0.202 C 
ENDBRANCH   1  20
TORSDOF 3
ENDMDL
MODEL 4
REMARK VINA RESULT:      -9.0      0.806      1.586
REMARK  3 active torsions:
REMARK  status: ('A' for Active; 'I' for Inactive)
REMARK    1  A    between atoms: C_2  and  C_3 
REMARK    2  A    between atoms: C_8  and  C_9 
REMARK       I    between atoms: C_9  and  N_10 
REMARK    3  A    between atoms: N_10  and  C_11 
ROOT
HETATM    1  C   UNL     1     -42.482  57.505 -55.832  1.00  0.00     0.104 A 
HETATM    2  N   UNL     1     -42.646  58.276 -56.923  1.00  0.00    -0.174 NA
HETATM    3  N   UNL     1     -42.919  57.419 -57.912  1.00  0.00    -0.288 N 
HETATM    4  H   UNL     1     -43.111  57.794 -58.836  1.00  0.00     0.188 HD
HETATM    5  C   UNL     1     -42.891  56.122 -57.522  1.00  0.00     0.128 A 
HETATM    6  C   UNL     1     -42.574  56.116 -56.174  1.00  0.00     0.080 A 
ENDROOT
BRANCH   6   7
HETATM    7  C   UNL     1     -42.420  54.882 -55.407  1.00  0.00     0.260 C 
HETATM    8  N   UNL     1     -41.211  54.756 -54.749  1.00  0.00    -0.323 N 
HETATM    9  H   UNL     1     -40.545  55.508 -54.869  1.00  0.00     0.169 HD
HETATM   10  O   UNL     1     -43.309  54.037 -55.431  1.00  0.00    -0.267 OA
BRANCH   8  11
HETATM   11  C   UNL     1     -40.772  53.672 -53.958  1.00  0.00     0.035 A 
HETATM   12  C   UNL     1     -40.431  52.417 -54.472  1.00  0.00     0.037 A 
HETATM   13  C   UNL     1     -40.002  51.428 -53.599  1.00  0.00    -0.050 A 
HETATM   14  C   UNL     1     -39.898  51.663 -52.227  1.00  0.00    -0.052 A 
HETATM   15  C   UNL     1     -39.539  50.045 -53.941  1.00  0.00     0.039 C 
HETATM   16  C   UNL     1     -39.359  50.461 -51.519  1.00  0.00     0.039 C 
HETATM   17  C   UNL     1     -40.223  52.897 -51.697  1.00  0.00     0.010 A 
HETATM   18  C   UNL     1     -39.599  49.363 -52.567  1.00  0.00     0.009 C 
HETATM   19  C   UNL     1     -40.667  53.900 -52.568  1.00  0.00     0.030 A 
ENDBRANCH   8  11
ENDBRANCH   6   7
BRANCH   1  20
HETATM   20  C   UNL     1     -42.261  58.153 -54.536  1.00  0.00    -0.002 A 
HETATM   21  C   UNL     1     -40.978  58.143 -53.964  1.00  0.00     0.017 A 
HETATM   22  C   UNL     1     -40.730  58.782 -52.747  1.00  0.00     0.040 A 
HETATM   23  C   UNL     1     -41.765  59.441 -52.092  1.00  0.00     0.102 A 
HETATM   24  C   UNL     1     -43.052  59.441 -52.640  1.00  0.00     0.103 A 
HETATM   25  O   UNL     1     -41.448  60.070 -50.916  1.00  0.00    -0.346 OA
HETATM   26  C   UNL     1     -43.296  58.821 -53.868  1.00  0.00     0.053 A 
HETATM   27  O   UNL     1     -44.125  60.042 -52.032  1.00  0.00    -0.346 OA
HETATM   28  C   UNL     1     -43.843  60.358 -50.663  1.00  0.00     0.202 C 
HETATM   29  C   UNL     1     -42.471  60.998 -50.533  1.00  0.00     0.202 C 
ENDBRANCH   1  20
TORSDOF 3
ENDMDL
MODEL 5
REMARK VINA RESULT:      -8.8      2.173      4.877
REMARK  3 active torsions:
REMARK  status: ('A' for Active; 'I' for Inactive)
REMARK    1  A    between atoms: C_2  and  C_3 
REMARK    2  A    between atoms: C_8  and  C_9 
REMARK       I    between atoms: C_9  and  N_10 
REMARK    3  A    between atoms: N_10  and  C_11 
ROOT
HETATM    1  C   UNL     1     -42.323  58.460 -54.030  1.00  0.00     0.104 A 
HETATM    2  N   UNL     1     -42.347  59.734 -53.593  1.00  0.00    -0.174 NA
HETATM    3  N   UNL     1     -42.148  59.648 -52.274  1.00  0.00    -0.288 N 
HETATM    4  H   UNL     1     -42.098  60.509 -51.737  1.00  0.00     0.188 HD
HETATM    5  C   UNL     1     -42.044  58.373 -51.828  1.00  0.00     0.128 A 
HETATM    6  C   UNL     1     -42.187  57.550 -52.931  1.00  0.00     0.080 A 
ENDROOT
BRANCH   6   7
HETATM    7  C   UNL     1     -42.164  56.092 -52.834  1.00  0.00     0.260 C 
HETATM    8  N   UNL     1     -40.929  55.515 -53.062  1.00  0.00    -0.323 N 
HETATM    9  H   UNL     1     -40.168  56.141 -53.289  1.00  0.00     0.169 HD
HETATM   10  O   UNL     1     -43.207  55.482 -52.620  1.00  0.00    -0.267 OA
BRANCH   8  11
HETATM   11  C   UNL     1     -40.610  54.139 -53.060  1.00  0.00     0.035 A 
HETATM   12  C   UNL     1     -40.380  53.392 -51.901  1.00  0.00     0.037 A 
HETATM   13  C   UNL     1     -40.084  52.042 -52.021  1.00  0.00    -0.050 A 
HETATM   14  C   UNL     1     -40.020  51.419 -53.269  1.00  0.00    -0.052 A 
HETATM   15  C   UNL     1     -39.860  51.053 -50.918  1.00  0.00     0.039 C 
HETATM   16  C   UNL     1     -39.744  49.956 -53.121  1.00  0.00     0.039 C 
HETATM   17  C   UNL     1     -40.249  52.136 -54.427  1.00  0.00     0.010 A 
HETATM   18  C   UNL     1     -39.203  49.896 -51.684  1.00  0.00     0.009 C 
HETATM   19  C   UNL     1     -40.539  53.501 -54.318  1.00  0.00     0.030 A 
ENDBRANCH   8  11
ENDBRANCH   6   7
BRANCH   1  20
HETATM   20  C   UNL     1     -42.418  58.207 -55.470  1.00  0.00    -0.002 A 
HETATM   21  C   UNL     1     -42.110  59.235 -56.378  1.00  0.00     0.017 A 
HETATM   22  C   UNL     1     -42.159  59.013 -57.756  1.00  0.00     0.040 A 
HETATM   23  C   UNL     1     -42.514  57.758 -58.240  1.00  0.00     0.102 A 
HETATM   24  C   UNL     1     -42.845  56.732 -57.347  1.00  0.00     0.103 A 
HETATM   25  O   UNL     1     -42.517  57.600 -59.601  1.00  0.00    -0.346 OA
HETATM   26  C   UNL     1     -42.774  56.946 -55.969  1.00  0.00     0.053 A 
HETATM   27  O   UNL     1     -43.235  55.482 -57.755  1.00  0.00    -0.346 OA
HETATM   28  C   UNL     1     -43.577  55.467 -59.147  1.00  0.00     0.202 C 
HETATM   29  C   UNL     1     -42.535  56.214 -59.962  1.00  0.00     0.202 C 
ENDBRANCH   1  20
TORSDOF 3
ENDMDL
MODEL 6
REMARK VINA RESULT:      -8.7      2.400      5.468
REMARK  3 active torsions:
REMARK  status: ('A' for Active; 'I' for Inactive)
REMARK    1  A    between atoms: C_2  and  C_3 
REMARK    2  A    between atoms: C_8  and  C_9 
REMARK       I    between atoms: C_9  and  N_10 
REMARK    3  A    between atoms: N_10  and  C_11 
ROOT
HETATM    1  C   UNL     1     -42.571  58.000 -55.521  1.00  0.00     0.104 A 
HETATM    2  N   UNL     1     -42.378  59.323 -55.359  1.00  0.00    -0.174 NA
HETATM    3  N   UNL     1     -41.716  59.434 -54.203  1.00  0.00    -0.288 N 
HETATM    4  H   UNL     1     -41.436  60.360 -53.895  1.00  0.00     0.188 HD
HETATM    5  C   UNL     1     -41.513  58.247 -53.584  1.00  0.00     0.128 A 
HETATM    6  C   UNL     1     -42.084  57.273 -54.386  1.00  0.00     0.080 A 
ENDROOT
BRANCH   6   7
HETATM    7  C   UNL     1     -42.091  55.858 -54.023  1.00  0.00     0.260 C 
HETATM    8  N   UNL     1     -40.844  55.318 -53.770  1.00  0.00    -0.323 N 
HETATM    9  H   UNL     1     -40.050  55.935 -53.875  1.00  0.00     0.169 HD
HETATM   10  O   UNL     1     -43.151  55.240 -54.015  1.00  0.00    -0.267 OA
BRANCH   8  11
HETATM   11  C   UNL     1     -40.541  53.983 -53.425  1.00  0.00     0.035 A 
HETATM   12  C   UNL     1     -40.541  53.495 -52.114  1.00  0.00     0.037 A 
HETATM   13  C   UNL     1     -40.237  52.159 -51.895  1.00  0.00    -0.050 A 
HETATM   14  C   UNL     1     -39.939  51.297 -52.953  1.00  0.00    -0.052 A 
HETATM   15  C   UNL     1     -40.233  51.425 -50.589  1.00  0.00     0.039 C 
HETATM   16  C   UNL     1     -39.706  49.906 -52.457  1.00  0.00     0.039 C 
HETATM   17  C   UNL     1     -39.939  51.756 -54.256  1.00  0.00     0.010 A 
HETATM   18  C   UNL     1     -39.450  50.158 -50.963  1.00  0.00     0.009 C 
HETATM   19  C   UNL     1     -40.235  53.105 -54.488  1.00  0.00     0.030 A 
ENDBRANCH   8  11
ENDBRANCH   6   7
BRANCH   1  20
HETATM   20  C   UNL     1     -43.195  57.525 -56.759  1.00  0.00    -0.002 A 
HETATM   21  C   UNL     1     -42.518  56.595 -57.566  1.00  0.00     0.017 A 
HETATM   22  C   UNL     1     -43.102  56.099 -58.734  1.00  0.00     0.040 A 
HETATM   23  C   UNL     1     -44.373  56.526 -59.103  1.00  0.00     0.102 A 
HETATM   24  C   UNL     1     -45.050  57.468 -58.320  1.00  0.00     0.103 A 
HETATM   25  O   UNL     1     -44.900  55.980 -60.245  1.00  0.00    -0.346 OA
HETATM   26  C   UNL     1     -44.476  57.948 -57.141  1.00  0.00     0.053 A 
HETATM   27  O   UNL     1     -46.290  57.957 -58.642  1.00  0.00    -0.346 OA
HETATM   28  C   UNL     1     -46.639  57.652 -59.999  1.00  0.00     0.202 C 
HETATM   29  C   UNL     1     -46.312  56.204 -60.323  1.00  0.00     0.202 C 
ENDBRANCH   1  20
TORSDOF 3
ENDMDL
MODEL 7
REMARK VINA RESULT:      -8.6      2.499      4.542
REMARK  3 active torsions:
REMARK  status: ('A' for Active; 'I' for Inactive)
REMARK    1  A    between atoms: C_2  and  C_3 
REMARK    2  A    between atoms: C_8  and  C_9 
REMARK       I    between atoms: C_9  and  N_10 
REMARK    3  A    between atoms: N_10  and  C_11 
ROOT
HETATM    1  C   UNL     1     -42.396  58.119 -52.034  1.00  0.00     0.104 A 
HETATM    2  N   UNL     1     -42.236  59.295 -51.398  1.00  0.00    -0.174 NA
HETATM    3  N   UNL     1     -41.494  59.006 -50.324  1.00  0.00    -0.288 N 
HETATM    4  H   UNL     1     -41.222  59.766 -49.707  1.00  0.00     0.188 HD
HETATM    5  C   UNL     1     -41.205  57.687 -50.209  1.00  0.00     0.128 A 
HETATM    6  C   UNL     1     -41.802  57.051 -51.284  1.00  0.00     0.080 A 
ENDROOT
BRANCH   6   7
HETATM    7  C   UNL     1     -41.735  55.605 -51.480  1.00  0.00     0.260 C 
HETATM    8  N   UNL     1     -40.820  55.190 -52.430  1.00  0.00    -0.323 N 
HETATM    9  H   UNL     1     -40.300  55.913 -52.910  1.00  0.00     0.169 HD
HETATM   10  O   UNL     1     -42.499  54.873 -50.859  1.00  0.00    -0.267 OA
BRANCH   8  11
HETATM   11  C   UNL     1     -40.556  53.867 -52.847  1.00  0.00     0.035 A 
HETATM   12  C   UNL     1     -40.183  52.835 -51.981  1.00  0.00     0.037 A 
HETATM   13  C   UNL     1     -39.958  51.569 -52.504  1.00  0.00    -0.050 A 
HETATM   14  C   UNL     1     -40.104  51.308 -53.868  1.00  0.00    -0.052 A 
HETATM   15  C   UNL     1     -39.608  50.320 -51.755  1.00  0.00     0.039 C 
HETATM   16  C   UNL     1     -39.863  49.862 -54.162  1.00  0.00     0.039 C 
HETATM   17  C   UNL     1     -40.478  52.312 -54.741  1.00  0.00     0.010 A 
HETATM   18  C   UNL     1     -39.116  49.417 -52.895  1.00  0.00     0.009 C 
HETATM   19  C   UNL     1     -40.697  53.595 -54.225  1.00  0.00     0.030 A 
ENDBRANCH   8  11
ENDBRANCH   6   7
BRANCH   1  20
HETATM   20  C   UNL     1     -43.095  58.104 -53.322  1.00  0.00    -0.002 A 
HETATM   21  C   UNL     1     -44.417  58.575 -53.400  1.00  0.00     0.017 A 
HETATM   22  C   UNL     1     -45.097  58.604 -54.620  1.00  0.00     0.040 A 
HETATM   23  C   UNL     1     -44.458  58.166 -55.775  1.00  0.00     0.102 A 
HETATM   24  C   UNL     1     -43.150  57.674 -55.708  1.00  0.00     0.103 A 
HETATM   25  O   UNL     1     -45.172  58.246 -56.943  1.00  0.00    -0.346 OA
HETATM   26  C   UNL     1     -42.461  57.665 -54.493  1.00  0.00     0.053 A 
HETATM   27  O   UNL     1     -42.473  57.196 -56.801  1.00  0.00    -0.346 OA
HETATM   28  C   UNL     1     -43.357  56.956 -57.903  1.00  0.00     0.202 C 
HETATM   29  C   UNL     1     -44.315  58.121 -58.084  1.00  0.00     0.202 C 
ENDBRANCH   1  20
TORSDOF 3
ENDMDL
MODEL 8
REMARK VINA RESULT:      -8.2      1.776      1.906
REMARK  3 active torsions:
REMARK  status: ('A' for Active; 'I' for Inactive)
REMARK    1  A    between atoms: C_2  and  C_3 
REMARK    2  A    between atoms: C_8  and  C_9 
REMARK       I    between atoms: C_9  and  N_10 
REMARK    3  A    between atoms: N_10  and  C_11 
ROOT
HETATM    1  C   UNL     1     -43.555  57.410 -55.527  1.00  0.00     0.104 A 
HETATM    2  N   UNL     1     -44.266  57.805 -56.600  1.00  0.00    -0.174 NA
HETATM    3  N   UNL     1     -43.968  56.918 -57.554  1.00  0.00    -0.288 N 
HETATM    4  H   UNL     1     -44.426  57.009 -58.457  1.00  0.00     0.188 HD
HETATM    5  C   UNL     1     -43.059  55.994 -57.164  1.00  0.00     0.128 A 
HETATM    6  C   UNL     1     -42.725  56.288 -55.854  1.00  0.00     0.080 A 
ENDROOT
BRANCH   6   7
HETATM    7  C   UNL     1     -41.737  55.520 -55.100  1.00  0.00     0.260 C 
HETATM    8  N   UNL     1     -42.163  54.270 -54.692  1.00  0.00    -0.323 N 
HETATM    9  H   UNL     1     -43.111  54.010 -54.930  1.00  0.00     0.169 HD
HETATM   10  O   UNL     1     -40.650  56.023 -54.836  1.00  0.00    -0.267 OA
BRANCH   8  11
HETATM   11  C   UNL     1     -41.442  53.322 -53.933  1.00  0.00     0.035 A 
HETATM   12  C   UNL     1     -40.970  52.109 -54.444  1.00  0.00     0.037 A 
HETATM   13  C   UNL     1     -40.262  51.258 -53.607  1.00  0.00    -0.050 A 
HETATM   14  C   UNL     1     -40.009  51.592 -52.275  1.00  0.00    -0.052 A 
HETATM   15  C   UNL     1     -39.626  49.949 -53.960  1.00  0.00     0.039 C 
HETATM   16  C   UNL     1     -39.182  50.539 -51.609  1.00  0.00     0.039 C 
HETATM   17  C   UNL     1     -40.460  52.788 -51.751  1.00  0.00     0.010 A 
HETATM   18  C   UNL     1     -39.378  49.354 -52.567  1.00  0.00     0.009 C 
HETATM   19  C   UNL     1     -41.184  53.650 -52.584  1.00  0.00     0.030 A 
ENDBRANCH   8  11
ENDBRANCH   6   7
BRANCH   1  20
HETATM   20  C   UNL     1     -43.732  58.127 -54.261  1.00  0.00    -0.002 A 
HETATM   21  C   UNL     1     -44.420  57.508 -53.203  1.00  0.00     0.017 A 
HETATM   22  C   UNL     1     -44.575  58.153 -51.974  1.00  0.00     0.040 A 
HETATM   23  C   UNL     1     -44.039  59.424 -51.790  1.00  0.00     0.102 A 
HETATM   24  C   UNL     1     -43.371  60.060 -52.842  1.00  0.00     0.103 A 
HETATM   25  O   UNL     1     -44.203  59.989 -50.552  1.00  0.00    -0.346 OA
HETATM   26  C   UNL     1     -43.196  59.407 -54.064  1.00  0.00     0.053 A 
HETATM   27  O   UNL     1     -42.847  61.323 -52.741  1.00  0.00    -0.346 OA
HETATM   28  C   UNL     1     -43.349  62.009 -51.587  1.00  0.00     0.202 C 
HETATM   29  C   UNL     1     -43.319  61.101 -50.369  1.00  0.00     0.202 C 
ENDBRANCH   1  20
TORSDOF 3
ENDMDL
MODEL 9
REMARK VINA RESULT:      -8.1      2.472      3.633
REMARK  3 active torsions:
REMARK  status: ('A' for Active; 'I' for Inactive)
REMARK    1  A    between atoms: C_2  and  C_3 
REMARK    2  A    between atoms: C_8  and  C_9 
REMARK       I    between atoms: C_9  and  N_10 
REMARK    3  A    between atoms: N_10  and  C_11 
ROOT
HETATM    1  C   UNL     1     -43.185  60.004 -53.895  1.00  0.00     0.104 A 
HETATM    2  N   UNL     1     -42.944  61.215 -54.432  1.00  0.00    -0.174 NA
HETATM    3  N   UNL     1     -42.329  60.960 -55.591  1.00  0.00    -0.288 N 
HETATM    4  H   UNL     1     -42.078  61.744 -56.186  1.00  0.00     0.188 HD
HETATM    5  C   UNL     1     -42.116  59.640 -55.808  1.00  0.00     0.128 A 
HETATM    6  C   UNL     1     -42.625  58.967 -54.711  1.00  0.00     0.080 A 
ENDROOT
BRANCH   6   7
HETATM    7  C   UNL     1     -42.546  57.515 -54.572  1.00  0.00     0.260 C 
HETATM    8  N   UNL     1     -41.338  57.043 -54.094  1.00  0.00    -0.323 N 
HETATM    9  H   UNL     1     -40.621  57.732 -53.905  1.00  0.00     0.169 HD
HETATM   10  O   UNL     1     -43.494  56.819 -54.921  1.00  0.00    -0.267 OA
BRANCH   8  11
HETATM   11  C   UNL     1     -40.964  55.698 -53.882  1.00  0.00     0.035 A 
HETATM   12  C   UNL     1     -40.968  55.074 -52.631  1.00  0.00     0.037 A 
HETATM   13  C   UNL     1     -40.591  53.742 -52.544  1.00  0.00    -0.050 A 
HETATM   14  C   UNL     1     -40.216  53.016 -53.677  1.00  0.00    -0.052 A 
HETATM   15  C   UNL     1     -40.577  52.873 -51.323  1.00  0.00     0.039 C 
HETATM   16  C   UNL     1     -39.913  51.595 -53.322  1.00  0.00     0.039 C 
HETATM   17  C   UNL     1     -40.210  53.610 -54.924  1.00  0.00     0.010 A 
HETATM   18  C   UNL     1     -39.710  51.700 -51.803  1.00  0.00     0.009 C 
HETATM   19  C   UNL     1     -40.580  54.957 -55.021  1.00  0.00     0.030 A 
ENDBRANCH   8  11
ENDBRANCH   6   7
BRANCH   1  20
HETATM   20  C   UNL     1     -43.945  59.926 -52.644  1.00  0.00    -0.002 A 
HETATM   21  C   UNL     1     -44.646  58.749 -52.331  1.00  0.00     0.017 A 
HETATM   22  C   UNL     1     -45.353  58.633 -51.132  1.00  0.00     0.040 A 
HETATM   23  C   UNL     1     -45.360  59.693 -50.231  1.00  0.00     0.102 A 
HETATM   24  C   UNL     1     -44.684  60.878 -50.541  1.00  0.00     0.103 A 
HETATM   25  O   UNL     1     -46.049  59.503 -49.062  1.00  0.00    -0.346 OA
HETATM   26  C   UNL     1     -43.959  60.987 -51.729  1.00  0.00     0.053 A 
HETATM   27  O   UNL     1     -44.677  61.973 -49.715  1.00  0.00    -0.346 OA
HETATM   28  C   UNL     1     -45.687  61.874 -48.703  1.00  0.00     0.202 C 
HETATM   29  C   UNL     1     -45.691  60.487 -48.084  1.00  0.00     0.202 C 
ENDBRANCH   1  20
TORSDOF 3
ENDMDL
MODEL 10
REMARK VINA RESULT:      -7.9      2.429      3.291
REMARK  3 active torsions:
REMARK  status: ('A' for Active; 'I' for Inactive)
REMARK    1  A    between atoms: C_2  and  C_3 
REMARK    2  A    between atoms: C_8  and  C_9 
REMARK       I    between atoms: C_9  and  N_10 
REMARK    3  A    between atoms: N_10  and  C_11 
ROOT
HETATM    1  C   UNL     1     -44.555  59.037 -53.951  1.00  0.00     0.104 A 
HETATM    2  N   UNL     1     -45.538  59.501 -54.746  1.00  0.00    -0.174 NA
HETATM    3  N   UNL     1     -45.568  58.657 -55.782  1.00  0.00    -0.288 N 
HETATM    4  H   UNL     1     -46.269  58.803 -56.502  1.00  0.00     0.188 HD
HETATM    5  C   UNL     1     -44.617  57.695 -55.720  1.00  0.00     0.128 A 
HETATM    6  C   UNL     1     -43.899  57.916 -54.557  1.00  0.00     0.080 A 
ENDROOT
BRANCH   6   7
HETATM    7  C   UNL     1     -42.760  57.089 -54.166  1.00  0.00     0.260 C 
HETATM    8  N   UNL     1     -43.081  55.798 -53.792  1.00  0.00    -0.323 N 
HETATM    9  H   UNL     1     -44.062  55.550 -53.805  1.00  0.00     0.169 HD
HETATM   10  O   UNL     1     -41.635  57.579 -54.139  1.00  0.00    -0.267 OA
BRANCH   8  11
HETATM   11  C   UNL     1     -42.201  54.788 -53.346  1.00  0.00     0.035 A 
HETATM   12  C   UNL     1     -41.699  53.772 -54.165  1.00  0.00     0.037 A 
HETATM   13  C   UNL     1     -40.830  52.838 -53.618  1.00  0.00    -0.050 A 
HETATM   14  C   UNL     1     -40.446  52.898 -52.277  1.00  0.00    -0.052 A 
HETATM   15  C   UNL     1     -40.138  51.711 -54.323  1.00  0.00     0.039 C 
HETATM   16  C   UNL     1     -39.464  51.817 -51.955  1.00  0.00     0.039 C 
HETATM   17  C   UNL     1     -40.925  53.897 -51.451  1.00  0.00     0.010 A 
HETATM   18  C   UNL     1     -39.677  50.856 -53.134  1.00  0.00     0.009 C 
HETATM   19  C   UNL     1     -41.810  54.839 -51.990  1.00  0.00     0.030 A 
ENDBRANCH   8  11
ENDBRANCH   6   7
BRANCH   1  20
HETATM   20  C   UNL     1     -44.322  59.693 -52.661  1.00  0.00    -0.002 A 
HETATM   21  C   UNL     1     -43.107  60.361 -52.431  1.00  0.00     0.017 A 
HETATM   22  C   UNL     1     -42.870  61.024 -51.225  1.00  0.00     0.040 A 
HETATM   23  C   UNL     1     -43.850  61.028 -50.237  1.00  0.00     0.102 A 
HETATM   24  C   UNL     1     -45.056  60.348 -50.445  1.00  0.00     0.103 A 
HETATM   25  O   UNL     1     -43.565  61.719 -49.088  1.00  0.00    -0.346 OA
HETATM   26  C   UNL     1     -45.302  59.705 -51.660  1.00  0.00     0.053 A 
HETATM   27  O   UNL     1     -46.050  60.284 -49.503  1.00  0.00    -0.346 OA
HETATM   28  C   UNL     1     -45.578  60.690 -48.212  1.00  0.00     0.202 C 
HETATM   29  C   UNL     1     -44.750  61.959 -48.320  1.00  0.00     0.202 C 
ENDBRANCH   1  20
TORSDOF 3
ENDMDL
