MODEL 1
REMARK VINA RESULT:      -7.9      0.000      0.000
REMARK  4 active torsions:
REMARK  status: ('A' for Active; 'I' for Inactive)
REMARK    1  A    between atoms: C_2  and  C_3 
REMARK    2  A    between atoms: C_5  and  C_6 
REMARK       I    between atoms: C_6  and  N_7 
REMARK    3  A    between atoms: N_7  and  C_8 
REMARK    4  A    between atoms: C_10  and  C_11 
ROOT
HETATM    1  C   UNL     1     -42.281  55.716 -55.947  1.00  0.00     0.035 A 
HETATM    2  C   UNL     1     -42.858  55.214 -57.119  1.00  0.00     0.042 A 
HETATM    3  C   UNL     1     -43.437  56.073 -58.070  1.00  0.00    -0.021 A 
HETATM    4  C   UNL     1     -43.434  57.451 -57.823  1.00  0.00     0.012 A 
HETATM    5  C   UNL     1     -42.859  57.962 -56.659  1.00  0.00     0.003 A 
HETATM    6  C   UNL     1     -42.281  57.098 -55.730  1.00  0.00     0.029 A 
ENDROOT
BRANCH   1   7
HETATM    7  N   UNL     1     -41.673  54.914 -54.964  1.00  0.00    -0.321 N 
HETATM    8  C   UNL     1     -42.238  54.365 -53.825  1.00  0.00     0.280 C 
HETATM    9  O   UNL     1     -43.397  54.534 -53.457  1.00  0.00    -0.265 OA
HETATM   10  H   UNL     1     -40.684  54.717 -55.073  1.00  0.00     0.169 HD
BRANCH   8  11
HETATM   11  C   UNL     1     -41.290  53.555 -53.072  1.00  0.00     0.149 A 
HETATM   12  O   UNL     1     -40.830  52.389 -53.635  1.00  0.00    -0.309 OA
HETATM   13  C   UNL     1     -39.998  51.801 -52.734  1.00  0.00     0.054 A 
HETATM   14  C   UNL     1     -39.895  52.583 -51.606  1.00  0.00     0.042 A 
HETATM   15  C   UNL     1     -40.724  53.720 -51.816  1.00  0.00    -0.020 A 
HETATM   16  C   UNL     1     -40.941  54.846 -50.874  1.00  0.00     0.051 C 
BRANCH  13  17
HETATM   17  C   UNL     1     -39.408  50.498 -53.127  1.00  0.00     0.060 C 
HETATM   18  C   UNL     1     -39.941  50.022 -54.467  1.00  0.00     0.012 C 
ENDBRANCH  13  17
ENDBRANCH   8  11
ENDBRANCH   1   7
BRANCH   3  19
HETATM   19  C   UNL     1     -44.017  55.554 -59.300  1.00  0.00     0.010 A 
HETATM   20  C   UNL     1     -44.298  56.191 -60.533  1.00  0.00     0.152 A 
HETATM   21  N   UNL     1     -44.841  55.368 -61.434  1.00  0.00    -0.187 NA
HETATM   22  N   UNL     1     -44.907  54.196 -60.785  1.00  0.00    -0.289 N 
HETATM   23  H   UNL     1     -45.290  53.394 -61.275  1.00  0.00     0.188 HD
HETATM   24  C   UNL     1     -44.434  54.255 -59.506  1.00  0.00     0.123 A 
ENDBRANCH   3  19
TORSDOF 4
ENDMDL
MODEL 2
REMARK VINA RESULT:      -7.9      1.011      2.326
REMARK  4 active torsions:
REMARK  status: ('A' for Active; 'I' for Inactive)
REMARK    1  A    between atoms: C_2  and  C_3 
REMARK    2  A    between atoms: C_5  and  C_6 
REMARK       I    between atoms: C_6  and  N_7 
REMARK    3  A    between atoms: N_7  and  C_8 
REMARK    4  A    between atoms: C_10  and  C_11 
ROOT
HETATM    1  C   UNL     1     -42.302  56.013 -55.868  1.00  0.00     0.035 A 
HETATM    2  C   UNL     1     -42.856  55.416 -57.005  1.00  0.00     0.042 A 
HETATM    3  C   UNL     1     -43.406  56.194 -58.040  1.00  0.00    -0.021 A 
HETATM    4  C   UNL     1     -43.397  57.589 -57.912  1.00  0.00     0.012 A 
HETATM    5  C   UNL     1     -42.843  58.194 -56.782  1.00  0.00     0.003 A 
HETATM    6  C   UNL     1     -42.294  57.409 -55.770  1.00  0.00     0.029 A 
ENDROOT
BRANCH   1   7
HETATM    7  N   UNL     1     -41.723  55.294 -54.805  1.00  0.00    -0.321 N 
HETATM    8  C   UNL     1     -42.354  54.602 -53.786  1.00  0.00     0.280 C 
HETATM    9  O   UNL     1     -43.568  54.539 -53.618  1.00  0.00    -0.265 OA
HETATM   10  H   UNL     1     -40.710  55.287 -54.748  1.00  0.00     0.169 HD
BRANCH   8  11
HETATM   11  C   UNL     1     -41.407  53.947 -52.893  1.00  0.00     0.149 A 
HETATM   12  O   UNL     1     -41.227  54.466 -51.633  1.00  0.00    -0.309 OA
HETATM   13  C   UNL     1     -40.279  53.713 -51.013  1.00  0.00     0.054 A 
HETATM   14  C   UNL     1     -39.860  52.701 -51.847  1.00  0.00     0.042 A 
HETATM   15  C   UNL     1     -40.586  52.842 -53.062  1.00  0.00    -0.020 A 
HETATM   16  C   UNL     1     -40.475  51.982 -54.267  1.00  0.00     0.051 C 
BRANCH  13  17
HETATM   17  C   UNL     1     -39.901  54.121 -49.638  1.00  0.00     0.060 C 
HETATM   18  C   UNL     1     -41.047  54.816 -48.924  1.00  0.00     0.012 C 
ENDBRANCH  13  17
ENDBRANCH   8  11
ENDBRANCH   1   7
BRANCH   3  19
HETATM   19  C   UNL     1     -43.962  55.576 -59.234  1.00  0.00     0.010 A 
HETATM   20  C   UNL     1     -44.240  56.116 -60.514  1.00  0.00     0.152 A 
HETATM   21  N   UNL     1     -44.758  55.219 -61.357  1.00  0.00    -0.187 NA
HETATM   22  N   UNL     1     -44.811  54.096 -60.624  1.00  0.00    -0.289 N 
HETATM   23  H   UNL     1     -45.174  53.253 -61.057  1.00  0.00     0.188 HD
HETATM   24  C   UNL     1     -44.353  54.258 -59.348  1.00  0.00     0.123 A 
ENDBRANCH   3  19
TORSDOF 4
ENDMDL
MODEL 3
REMARK VINA RESULT:      -7.9      2.532      8.039
REMARK  4 active torsions:
REMARK  status: ('A' for Active; 'I' for Inactive)
REMARK    1  A    between atoms: C_2  and  C_3 
REMARK    2  A    between atoms: C_5  and  C_6 
REMARK       I    between atoms: C_6  and  N_7 
REMARK    3  A    between atoms: N_7  and  C_8 
REMARK    4  A    between atoms: C_10  and  C_11 
ROOT
HETATM    1  C   UNL     1     -40.965  53.852 -53.813  1.00  0.00     0.035 A 
HETATM    2  C   UNL     1     -41.074  54.245 -52.474  1.00  0.00     0.042 A 
HETATM    3  C   UNL     1     -40.548  53.450 -51.439  1.00  0.00    -0.021 A 
HETATM    4  C   UNL     1     -39.914  52.246 -51.769  1.00  0.00     0.012 A 
HETATM    5  C   UNL     1     -39.799  51.848 -53.102  1.00  0.00     0.003 A 
HETATM    6  C   UNL     1     -40.317  52.651 -54.117  1.00  0.00     0.029 A 
ENDROOT
BRANCH   1   7
HETATM    7  N   UNL     1     -41.456  54.606 -54.895  1.00  0.00    -0.321 N 
HETATM    8  C   UNL     1     -42.770  54.863 -55.244  1.00  0.00     0.280 C 
HETATM    9  O   UNL     1     -43.757  54.420 -54.664  1.00  0.00    -0.265 OA
HETATM   10  H   UNL     1     -40.771  55.005 -55.529  1.00  0.00     0.169 HD
BRANCH   8  11
HETATM   11  C   UNL     1     -42.874  55.725 -56.415  1.00  0.00     0.149 A 
HETATM   12  O   UNL     1     -43.196  55.154 -57.622  1.00  0.00    -0.309 OA
HETATM   13  C   UNL     1     -43.195  56.145 -58.555  1.00  0.00     0.054 A 
HETATM   14  C   UNL     1     -42.900  57.351 -57.962  1.00  0.00     0.042 A 
HETATM   15  C   UNL     1     -42.695  57.090 -56.578  1.00  0.00    -0.020 A 
HETATM   16  C   UNL     1     -42.349  58.083 -55.530  1.00  0.00     0.051 C 
BRANCH  13  17
HETATM   17  C   UNL     1     -43.488  55.742 -59.952  1.00  0.00     0.060 C 
HETATM   18  C   UNL     1     -44.573  54.681 -60.015  1.00  0.00     0.012 C 
ENDBRANCH  13  17
ENDBRANCH   8  11
ENDBRANCH   1   7
BRANCH   3  19
HETATM   19  C   UNL     1     -40.640  53.868 -50.048  1.00  0.00     0.010 A 
HETATM   20  C   UNL     1     -41.058  55.093 -49.473  1.00  0.00     0.152 A 
HETATM   21  N   UNL     1     -40.996  55.092 -48.139  1.00  0.00    -0.187 NA
HETATM   22  N   UNL     1     -40.541  53.863 -47.850  1.00  0.00    -0.289 N 
HETATM   23  H   UNL     1     -40.412  53.613 -46.874  1.00  0.00     0.188 HD
HETATM   24  C   UNL     1     -40.307  53.095 -48.954  1.00  0.00     0.123 A 
ENDBRANCH   3  19
TORSDOF 4
ENDMDL
MODEL 4
REMARK VINA RESULT:      -7.8      2.534      7.506
REMARK  4 active torsions:
REMARK  status: ('A' for Active; 'I' for Inactive)
REMARK    1  A    between atoms: C_2  and  C_3 
REMARK    2  A    between atoms: C_5  and  C_6 
REMARK       I    between atoms: C_6  and  N_7 
REMARK    3  A    between atoms: N_7  and  C_8 
REMARK    4  A    between atoms: C_10  and  C_11 
ROOT
HETATM    1  C   UNL     1     -41.059  54.563 -53.553  1.00  0.00     0.035 A 
HETATM    2  C   UNL     1     -40.653  53.224 -53.580  1.00  0.00     0.042 A 
HETATM    3  C   UNL     1     -40.272  52.556 -52.402  1.00  0.00    -0.021 A 
HETATM    4  C   UNL     1     -40.299  53.258 -51.190  1.00  0.00     0.012 A 
HETATM    5  C   UNL     1     -40.705  54.593 -51.153  1.00  0.00     0.003 A 
HETATM    6  C   UNL     1     -41.088  55.238 -52.328  1.00  0.00     0.029 A 
ENDROOT
BRANCH   1   7
HETATM    7  N   UNL     1     -41.466  55.284 -54.691  1.00  0.00    -0.321 N 
HETATM    8  C   UNL     1     -42.751  55.562 -55.123  1.00  0.00     0.280 C 
HETATM    9  O   UNL     1     -43.781  55.172 -54.582  1.00  0.00    -0.265 OA
HETATM   10  H   UNL     1     -40.736  55.637 -55.301  1.00  0.00     0.169 HD
BRANCH   8  11
HETATM   11  C   UNL     1     -42.765  56.376 -56.332  1.00  0.00     0.149 A 
HETATM   12  O   UNL     1     -43.016  55.761 -57.534  1.00  0.00    -0.309 OA
HETATM   13  C   UNL     1     -42.938  56.712 -58.504  1.00  0.00     0.054 A 
HETATM   14  C   UNL     1     -42.664  57.938 -57.941  1.00  0.00     0.042 A 
HETATM   15  C   UNL     1     -42.553  57.731 -56.538  1.00  0.00    -0.020 A 
HETATM   16  C   UNL     1     -42.261  58.762 -55.510  1.00  0.00     0.051 C 
BRANCH  13  17
HETATM   17  C   UNL     1     -43.145  56.255 -59.900  1.00  0.00     0.060 C 
HETATM   18  C   UNL     1     -44.150  55.120 -59.976  1.00  0.00     0.012 C 
ENDBRANCH  13  17
ENDBRANCH   8  11
ENDBRANCH   1   7
BRANCH   3  19
HETATM   19  C   UNL     1     -39.872  51.157 -52.424  1.00  0.00     0.010 A 
HETATM   20  C   UNL     1     -39.703  50.258 -53.506  1.00  0.00     0.152 A 
HETATM   21  N   UNL     1     -39.324  49.038 -53.116  1.00  0.00    -0.187 NA
HETATM   22  N   UNL     1     -39.242  49.149 -51.781  1.00  0.00    -0.289 N 
HETATM   23  H   UNL     1     -38.961  48.334 -51.245  1.00  0.00     0.188 HD
HETATM   24  C   UNL     1     -39.565  50.392 -51.318  1.00  0.00     0.123 A 
ENDBRANCH   3  19
TORSDOF 4
ENDMDL
MODEL 5
REMARK VINA RESULT:      -7.5      2.729      7.780
REMARK  4 active torsions:
REMARK  status: ('A' for Active; 'I' for Inactive)
REMARK    1  A    between atoms: C_2  and  C_3 
REMARK    2  A    between atoms: C_5  and  C_6 
REMARK       I    between atoms: C_6  and  N_7 
REMARK    3  A    between atoms: N_7  and  C_8 
REMARK    4  A    between atoms: C_10  and  C_11 
ROOT
HETATM    1  C   UNL     1     -41.334  54.921 -54.988  1.00  0.00     0.035 A 
HETATM    2  C   UNL     1     -40.931  53.589 -54.844  1.00  0.00     0.042 A 
HETATM    3  C   UNL     1     -40.569  53.070 -53.588  1.00  0.00    -0.021 A 
HETATM    4  C   UNL     1     -40.611  53.916 -52.472  1.00  0.00     0.012 A 
HETATM    5  C   UNL     1     -41.015  55.245 -52.605  1.00  0.00     0.003 A 
HETATM    6  C   UNL     1     -41.380  55.741 -53.856  1.00  0.00     0.029 A 
ENDROOT
BRANCH   1   7
HETATM    7  N   UNL     1     -41.723  55.497 -56.212  1.00  0.00    -0.321 N 
HETATM    8  C   UNL     1     -42.879  56.199 -56.508  1.00  0.00     0.280 C 
HETATM    9  O   UNL     1     -43.805  56.401 -55.728  1.00  0.00    -0.265 OA
HETATM   10  H   UNL     1     -41.096  55.375 -57.000  1.00  0.00     0.169 HD
BRANCH   8  11
HETATM   11  C   UNL     1     -42.900  56.676 -57.884  1.00  0.00     0.149 A 
HETATM   12  O   UNL     1     -42.390  57.922 -58.155  1.00  0.00    -0.309 OA
HETATM   13  C   UNL     1     -42.555  58.151 -59.485  1.00  0.00     0.054 A 
HETATM   14  C   UNL     1     -43.144  57.060 -60.083  1.00  0.00     0.042 A 
HETATM   15  C   UNL     1     -43.368  56.100 -59.056  1.00  0.00    -0.020 A 
HETATM   16  C   UNL     1     -43.986  54.759 -59.215  1.00  0.00     0.051 C 
BRANCH  13  17
HETATM   17  C   UNL     1     -42.099  59.468 -59.994  1.00  0.00     0.060 C 
HETATM   18  C   UNL     1     -42.697  60.615 -59.198  1.00  0.00     0.012 C 
ENDBRANCH  13  17
ENDBRANCH   8  11
ENDBRANCH   1   7
BRANCH   3  19
HETATM   19  C   UNL     1     -40.171  51.679 -53.433  1.00  0.00     0.010 A 
HETATM   20  C   UNL     1     -40.231  50.591 -54.338  1.00  0.00     0.152 A 
HETATM   21  N   UNL     1     -39.767  49.452 -53.816  1.00  0.00    -0.187 NA
HETATM   22  N   UNL     1     -39.403  49.804 -52.573  1.00  0.00    -0.289 N 
HETATM   23  H   UNL     1     -39.008  49.093 -51.966  1.00  0.00     0.188 HD
HETATM   24  C   UNL     1     -39.629  51.121 -52.293  1.00  0.00     0.123 A 
ENDBRANCH   3  19
TORSDOF 4
ENDMDL
MODEL 6
REMARK VINA RESULT:      -7.5      2.564      8.263
REMARK  4 active torsions:
REMARK  status: ('A' for Active; 'I' for Inactive)
REMARK    1  A    between atoms: C_2  and  C_3 
REMARK    2  A    between atoms: C_5  and  C_6 
REMARK       I    between atoms: C_6  and  N_7 
REMARK    3  A    between atoms: N_7  and  C_8 
REMARK    4  A    between atoms: C_10  and  C_11 
ROOT
HETATM    1  C   UNL     1     -40.916  54.082 -54.376  1.00  0.00     0.035 A 
HETATM    2  C   UNL     1     -41.069  54.405 -53.024  1.00  0.00     0.042 A 
HETATM    3  C   UNL     1     -40.590  53.552 -52.014  1.00  0.00    -0.021 A 
HETATM    4  C   UNL     1     -39.955  52.360 -52.384  1.00  0.00     0.012 A 
HETATM    5  C   UNL     1     -39.794  52.031 -53.731  1.00  0.00     0.003 A 
HETATM    6  C   UNL     1     -40.267  52.892 -54.720  1.00  0.00     0.029 A 
ENDROOT
BRANCH   1   7
HETATM    7  N   UNL     1     -41.359  54.898 -55.435  1.00  0.00    -0.321 N 
HETATM    8  C   UNL     1     -42.584  54.886 -56.080  1.00  0.00     0.280 C 
HETATM    9  O   UNL     1     -43.499  54.100 -55.850  1.00  0.00    -0.265 OA
HETATM   10  H   UNL     1     -40.701  55.577 -55.802  1.00  0.00     0.169 HD
BRANCH   8  11
HETATM   11  C   UNL     1     -42.680  55.917 -57.105  1.00  0.00     0.149 A 
HETATM   12  O   UNL     1     -42.157  57.158 -56.837  1.00  0.00    -0.309 OA
HETATM   13  C   UNL     1     -42.400  57.946 -57.919  1.00  0.00     0.054 A 
HETATM   14  C   UNL     1     -43.052  57.223 -58.892  1.00  0.00     0.042 A 
HETATM   15  C   UNL     1     -43.234  55.910 -58.376  1.00  0.00    -0.020 A 
HETATM   16  C   UNL     1     -43.893  54.770 -59.063  1.00  0.00     0.051 C 
BRANCH  13  17
HETATM   17  C   UNL     1     -41.945  59.355 -57.831  1.00  0.00     0.060 C 
HETATM   18  C   UNL     1     -42.952  60.310 -58.449  1.00  0.00     0.012 C 
ENDBRANCH  13  17
ENDBRANCH   8  11
ENDBRANCH   1   7
BRANCH   3  19
HETATM   19  C   UNL     1     -40.728  53.897 -50.607  1.00  0.00     0.010 A 
HETATM   20  C   UNL     1     -40.567  53.111 -49.439  1.00  0.00     0.152 A 
HETATM   21  N   UNL     1     -40.787  53.797 -48.314  1.00  0.00    -0.187 NA
HETATM   22  N   UNL     1     -41.086  55.029 -48.754  1.00  0.00    -0.289 N 
HETATM   23  H   UNL     1     -41.293  55.749 -48.069  1.00  0.00     0.188 HD
HETATM   24  C   UNL     1     -41.070  55.140 -50.115  1.00  0.00     0.123 A 
ENDBRANCH   3  19
TORSDOF 4
ENDMDL
MODEL 7
REMARK VINA RESULT:      -7.1      3.663      7.453
REMARK  4 active torsions:
REMARK  status: ('A' for Active; 'I' for Inactive)
REMARK    1  A    between atoms: C_2  and  C_3 
REMARK    2  A    between atoms: C_5  and  C_6 
REMARK       I    between atoms: C_6  and  N_7 
REMARK    3  A    between atoms: N_7  and  C_8 
REMARK    4  A    between atoms: C_10  and  C_11 
ROOT
HETATM    1  C   UNL     1     -41.488  54.819 -52.081  1.00  0.00     0.035 A 
HETATM    2  C   UNL     1     -41.193  53.642 -52.776  1.00  0.00     0.042 A 
HETATM    3  C   UNL     1     -40.313  52.683 -52.242  1.00  0.00    -0.021 A 
HETATM    4  C   UNL     1     -39.726  52.929 -50.994  1.00  0.00     0.012 A 
HETATM    5  C   UNL     1     -40.017  54.099 -50.292  1.00  0.00     0.003 A 
HETATM    6  C   UNL     1     -40.898  55.035 -50.831  1.00  0.00     0.029 A 
ENDROOT
BRANCH   1   7
HETATM    7  N   UNL     1     -42.370  55.811 -52.552  1.00  0.00    -0.321 N 
HETATM    8  C   UNL     1     -43.532  56.283 -51.965  1.00  0.00     0.280 C 
HETATM    9  O   UNL     1     -44.019  55.864 -50.919  1.00  0.00    -0.265 OA
HETATM   10  H   UNL     1     -42.155  56.233 -53.449  1.00  0.00     0.169 HD
BRANCH   8  11
HETATM   11  C   UNL     1     -44.151  57.348 -52.743  1.00  0.00     0.149 A 
HETATM   12  O   UNL     1     -44.519  57.084 -54.040  1.00  0.00    -0.309 OA
HETATM   13  C   UNL     1     -45.033  58.232 -54.560  1.00  0.00     0.054 A 
HETATM   14  C   UNL     1     -45.023  59.227 -53.609  1.00  0.00     0.042 A 
HETATM   15  C   UNL     1     -44.458  58.664 -52.431  1.00  0.00    -0.020 A 
HETATM   16  C   UNL     1     -44.236  59.355 -51.135  1.00  0.00     0.051 C 
BRANCH  13  17
HETATM   17  C   UNL     1     -45.468  58.182 -55.977  1.00  0.00     0.060 C 
HETATM   18  C   UNL     1     -44.308  57.882 -56.910  1.00  0.00     0.012 C 
ENDBRANCH  13  17
ENDBRANCH   8  11
ENDBRANCH   1   7
BRANCH   3  19
HETATM   19  C   UNL     1     -40.023  51.447 -52.952  1.00  0.00     0.010 A 
HETATM   20  C   UNL     1     -39.576  50.189 -52.480  1.00  0.00     0.152 A 
HETATM   21  N   UNL     1     -39.420  49.290 -53.456  1.00  0.00    -0.187 NA
HETATM   22  N   UNL     1     -39.771  49.966 -54.561  1.00  0.00    -0.289 N 
HETATM   23  H   UNL     1     -39.739  49.484 -55.453  1.00  0.00     0.188 HD
HETATM   24  C   UNL     1     -40.134  51.259 -54.315  1.00  0.00     0.123 A 
ENDBRANCH   3  19
TORSDOF 4
ENDMDL
MODEL 8
REMARK VINA RESULT:      -7.1      2.658      7.865
REMARK  4 active torsions:
REMARK  status: ('A' for Active; 'I' for Inactive)
REMARK    1  A    between atoms: C_2  and  C_3 
REMARK    2  A    between atoms: C_5  and  C_6 
REMARK       I    between atoms: C_6  and  N_7 
REMARK    3  A    between atoms: N_7  and  C_8 
REMARK    4  A    between atoms: C_10  and  C_11 
ROOT
HETATM    1  C   UNL     1     -43.059  54.974 -55.207  1.00  0.00     0.035 A 
HETATM    2  C   UNL     1     -42.097  53.989 -54.956  1.00  0.00     0.042 A 
HETATM    3  C   UNL     1     -41.762  53.619 -53.641  1.00  0.00    -0.021 A 
HETATM    4  C   UNL     1     -42.407  54.260 -52.576  1.00  0.00     0.012 A 
HETATM    5  C   UNL     1     -43.370  55.241 -52.816  1.00  0.00     0.003 A 
HETATM    6  C   UNL     1     -43.697  55.590 -54.125  1.00  0.00     0.029 A 
ENDROOT
BRANCH   1   7
HETATM    7  N   UNL     1     -43.451  55.380 -56.497  1.00  0.00    -0.321 N 
HETATM    8  C   UNL     1     -43.138  56.551 -57.166  1.00  0.00     0.280 C 
HETATM    9  O   UNL     1     -42.478  57.477 -56.703  1.00  0.00    -0.265 OA
HETATM   10  H   UNL     1     -44.060  54.755 -57.014  1.00  0.00     0.169 HD
BRANCH   8  11
HETATM   11  C   UNL     1     -43.701  56.589 -58.509  1.00  0.00     0.149 A 
HETATM   12  O   UNL     1     -45.049  56.368 -58.662  1.00  0.00    -0.309 OA
HETATM   13  C   UNL     1     -45.322  56.416 -59.994  1.00  0.00     0.054 A 
HETATM   14  C   UNL     1     -44.173  56.689 -60.701  1.00  0.00     0.042 A 
HETATM   15  C   UNL     1     -43.122  56.806 -59.750  1.00  0.00    -0.020 A 
HETATM   16  C   UNL     1     -41.693  57.092 -60.037  1.00  0.00     0.051 C 
BRANCH  13  17
HETATM   17  C   UNL     1     -46.729  56.168 -60.393  1.00  0.00     0.060 C 
HETATM   18  C   UNL     1     -47.397  57.431 -60.907  1.00  0.00     0.012 C 
ENDBRANCH  13  17
ENDBRANCH   8  11
ENDBRANCH   1   7
BRANCH   3  19
HETATM   19  C   UNL     1     -40.779  52.579 -53.379  1.00  0.00     0.010 A 
HETATM   20  C   UNL     1     -40.316  51.514 -54.190  1.00  0.00     0.152 A 
HETATM   21  N   UNL     1     -39.397  50.758 -53.584  1.00  0.00    -0.187 NA
HETATM   22  N   UNL     1     -39.261  51.337 -52.381  1.00  0.00    -0.289 N 
HETATM   23  H   UNL     1     -38.599  50.936 -51.724  1.00  0.00     0.188 HD
HETATM   24  C   UNL     1     -40.068  52.424 -52.206  1.00  0.00     0.123 A 
ENDBRANCH   3  19
TORSDOF 4
ENDMDL
MODEL 9
REMARK VINA RESULT:      -7.1      4.492      6.755
REMARK  4 active torsions:
REMARK  status: ('A' for Active; 'I' for Inactive)
REMARK    1  A    between atoms: C_2  and  C_3 
REMARK    2  A    between atoms: C_5  and  C_6 
REMARK       I    between atoms: C_6  and  N_7 
REMARK    3  A    between atoms: N_7  and  C_8 
REMARK    4  A    between atoms: C_10  and  C_11 
ROOT
HETATM    1  C   UNL     1     -41.535  57.749 -51.570  1.00  0.00     0.035 A 
HETATM    2  C   UNL     1     -42.741  58.450 -51.459  1.00  0.00     0.042 A 
HETATM    3  C   UNL     1     -42.795  59.707 -50.832  1.00  0.00    -0.021 A 
HETATM    4  C   UNL     1     -41.615  60.251 -50.309  1.00  0.00     0.012 A 
HETATM    5  C   UNL     1     -40.407  59.561 -50.417  1.00  0.00     0.003 A 
HETATM    6  C   UNL     1     -40.369  58.319 -51.050  1.00  0.00     0.029 A 
ENDROOT
BRANCH   1   7
HETATM    7  N   UNL     1     -41.409  56.495 -52.198  1.00  0.00    -0.321 N 
HETATM    8  C   UNL     1     -41.725  55.243 -51.698  1.00  0.00     0.280 C 
HETATM    9  O   UNL     1     -42.141  55.016 -50.566  1.00  0.00    -0.265 OA
HETATM   10  H   UNL     1     -41.017  56.483 -53.134  1.00  0.00     0.169 HD
BRANCH   8  11
HETATM   11  C   UNL     1     -41.490  54.184 -52.671  1.00  0.00     0.149 A 
HETATM   12  O   UNL     1     -40.474  53.290 -52.436  1.00  0.00    -0.309 OA
HETATM   13  C   UNL     1     -40.432  52.432 -53.491  1.00  0.00     0.054 A 
HETATM   14  C   UNL     1     -41.423  52.745 -54.393  1.00  0.00     0.042 A 
HETATM   15  C   UNL     1     -42.114  53.874 -53.870  1.00  0.00    -0.020 A 
HETATM   16  C   UNL     1     -43.264  54.577 -54.493  1.00  0.00     0.051 C 
BRANCH  13  17
HETATM   17  C   UNL     1     -39.374  51.393 -53.460  1.00  0.00     0.060 C 
HETATM   18  C   UNL     1     -39.754  50.181 -54.293  1.00  0.00     0.012 C 
ENDBRANCH  13  17
ENDBRANCH   8  11
ENDBRANCH   1   7
BRANCH   3  19
HETATM   19  C   UNL     1     -44.044  60.449 -50.736  1.00  0.00     0.010 A 
HETATM   20  C   UNL     1     -45.307  60.074 -50.215  1.00  0.00     0.152 A 
HETATM   21  N   UNL     1     -46.219  61.045 -50.311  1.00  0.00    -0.187 NA
HETATM   22  N   UNL     1     -45.545  62.050 -50.891  1.00  0.00    -0.289 N 
HETATM   23  H   UNL     1     -46.035  62.921 -51.069  1.00  0.00     0.188 HD
HETATM   24  C   UNL     1     -44.245  61.743 -51.170  1.00  0.00     0.123 A 
ENDBRANCH   3  19
TORSDOF 4
ENDMDL
MODEL 10
REMARK VINA RESULT:      -7.0      3.883      7.542
REMARK  4 active torsions:
REMARK  status: ('A' for Active; 'I' for Inactive)
REMARK    1  A    between atoms: C_2  and  C_3 
REMARK    2  A    between atoms: C_5  and  C_6 
REMARK       I    between atoms: C_6  and  N_7 
REMARK    3  A    between atoms: N_7  and  C_8 
REMARK    4  A    between atoms: C_10  and  C_11 
ROOT
HETATM    1  C   UNL     1     -40.888  54.927 -52.431  1.00  0.00     0.035 A 
HETATM    2  C   UNL     1     -40.558  53.727 -53.071  1.00  0.00     0.042 A 
HETATM    3  C   UNL     1     -40.289  52.560 -52.334  1.00  0.00    -0.021 A 
HETATM    4  C   UNL     1     -40.351  52.617 -50.936  1.00  0.00     0.012 A 
HETATM    5  C   UNL     1     -40.682  53.808 -50.289  1.00  0.00     0.003 A 
HETATM    6  C   UNL     1     -40.954  54.954 -51.034  1.00  0.00     0.029 A 
ENDROOT
BRANCH   1   7
HETATM    7  N   UNL     1     -41.182  56.125 -53.109  1.00  0.00    -0.321 N 
HETATM    8  C   UNL     1     -42.420  56.682 -53.381  1.00  0.00     0.280 C 
HETATM    9  O   UNL     1     -43.502  56.177 -53.099  1.00  0.00    -0.265 OA
HETATM   10  H   UNL     1     -40.397  56.655 -53.474  1.00  0.00     0.169 HD
BRANCH   8  11
HETATM   11  C   UNL     1     -42.312  57.960 -54.072  1.00  0.00     0.149 A 
HETATM   12  O   UNL     1     -42.481  57.985 -55.435  1.00  0.00    -0.309 OA
HETATM   13  C   UNL     1     -42.298  59.269 -55.846  1.00  0.00     0.054 A 
HETATM   14  C   UNL     1     -42.036  60.078 -54.764  1.00  0.00     0.042 A 
HETATM   15  C   UNL     1     -42.046  59.242 -53.613  1.00  0.00    -0.020 A 
HETATM   16  C   UNL     1     -41.810  59.662 -52.209  1.00  0.00     0.051 C 
BRANCH  13  17
HETATM   17  C   UNL     1     -42.403  59.521 -57.305  1.00  0.00     0.060 C 
HETATM   18  C   UNL     1     -41.617  60.753 -57.719  1.00  0.00     0.012 C 
ENDBRANCH  13  17
ENDBRANCH   8  11
ENDBRANCH   1   7
BRANCH   3  19
HETATM   19  C   UNL     1     -39.969  51.306 -52.999  1.00  0.00     0.010 A 
HETATM   20  C   UNL     1     -39.586  50.048 -52.472  1.00  0.00     0.152 A 
HETATM   21  N   UNL     1     -39.371  49.130 -53.417  1.00  0.00    -0.187 NA
HETATM   22  N   UNL     1     -39.620  49.792 -54.557  1.00  0.00    -0.289 N 
HETATM   23  H   UNL     1     -39.527  49.292 -55.436  1.00  0.00     0.188 HD
HETATM   24  C   UNL     1     -39.975  51.095 -54.363  1.00  0.00     0.123 A 
ENDBRANCH   3  19
TORSDOF 4
ENDMDL
