MODEL 1
REMARK VINA RESULT:      -9.0      0.000      0.000
REMARK  11 active torsions:
REMARK  status: ('A' for Active; 'I' for Inactive)
REMARK    1  A    between atoms: N_13  and  C_14 
REMARK    2  A    between atoms: C_14  and  C_15 
REMARK    3  A    between atoms: N_20  and  C_21 
REMARK    4  A    between atoms: C_21  and  C_22 
REMARK    5  A    between atoms: C_22  and  O_23 
REMARK    6  A    between atoms: C_22  and  C_24 
REMARK    7  A    between atoms: C_24  and  N_25 
REMARK    8  A    between atoms: N_25  and  C_27 
REMARK    9  A    between atoms: N_25  and  C_34 
REMARK   10  A    between atoms: C_27  and  C_28 
REMARK   11  A    between atoms: C_34  and  C_35 
ROOT
HETATM    1  C   UNL     1     -47.569  59.265 -59.152  1.00  0.00     0.163 C 
HETATM    2  N   UNL     1     -46.555  58.224 -59.218  1.00  0.00    -0.285 N 
HETATM    3  C   UNL     1     -46.524  57.336 -60.295  1.00  0.00     0.332 A 
HETATM    4  O   UNL     1     -47.349  57.395 -61.210  1.00  0.00    -0.246 OA
HETATM    5  N   UNL     1     -45.500  56.366 -60.292  1.00  0.00    -0.269 N 
HETATM    6  C   UNL     1     -45.443  55.430 -61.401  1.00  0.00     0.164 C 
HETATM    7  C   UNL     1     -44.521  56.224 -59.307  1.00  0.00     0.282 A 
HETATM    8  O   UNL     1     -43.620  55.389 -59.337  1.00  0.00    -0.265 OA
HETATM    9  C   UNL     1     -44.640  57.167 -58.252  1.00  0.00     0.166 A 
HETATM   10  C   UNL     1     -45.617  58.112 -58.221  1.00  0.00     0.186 A 
HETATM   11  N   UNL     1     -45.519  58.901 -57.121  1.00  0.00    -0.044 NA
HETATM   12  C   UNL     1     -44.485  58.441 -56.451  1.00  0.00     0.705 A 
HETATM   13  N   UNL     1     -44.009  58.903 -55.281  1.00  0.00    -0.218 N 
HETATM   14  N   UNL     1     -43.883  57.398 -57.131  1.00  0.00    -0.170 N 
HETATM   15  H   UNL     1     -43.436  58.336 -54.663  1.00  0.00     0.178 HD
ENDROOT
BRANCH  14  16
HETATM   16  C   UNL     1     -42.633  56.735 -56.788  1.00  0.00     0.181 C 
BRANCH  16  17
HETATM   17  C   UNL     1     -42.845  55.540 -55.846  1.00  0.00     0.163 C 
BRANCH  17  18
HETATM   18  O   UNL     1     -43.519  54.475 -56.534  1.00  0.00    -0.392 OA
HETATM   19  H   UNL     1     -43.786  54.763 -57.429  1.00  0.00     0.210 HD
ENDBRANCH  17  18
BRANCH  17  20
HETATM   20  C   UNL     1     -41.532  54.911 -55.326  1.00  0.00     0.268 C 
BRANCH  20  21
HETATM   21  N   UNL     1     -41.635  53.905 -54.198  1.00  0.00    -0.061 N 
HETATM   22  H   UNL     1     -41.955  53.020 -54.600  1.00  0.00     0.280 HD
BRANCH  21  23
HETATM   23  C   UNL     1     -40.335  53.593 -53.476  1.00  0.00     0.273 C 
BRANCH  23  24
HETATM   24  C   UNL     1     -40.057  52.143 -53.189  1.00  0.00    -0.033 A 
HETATM   25  C   UNL     1     -40.108  51.185 -54.215  1.00  0.00     0.009 A 
HETATM   26  C   UNL     1     -39.867  49.837 -53.943  1.00  0.00     0.001 A 
HETATM   27  C   UNL     1     -39.563  49.431 -52.648  1.00  0.00     0.000 A 
HETATM   28  C   UNL     1     -39.487  50.369 -51.624  1.00  0.00     0.001 A 
HETATM   29  C   UNL     1     -39.727  51.718 -51.892  1.00  0.00     0.009 A 
ENDBRANCH  23  24
ENDBRANCH  21  23
BRANCH  21  30
HETATM   30  C   UNL     1     -42.728  54.291 -53.210  1.00  0.00     0.273 C 
BRANCH  30  31
HETATM   31  C   UNL     1     -42.207  54.844 -51.910  1.00  0.00    -0.033 A 
HETATM   32  C   UNL     1     -41.672  56.140 -51.837  1.00  0.00     0.009 A 
HETATM   33  C   UNL     1     -41.170  56.626 -50.628  1.00  0.00     0.001 A 
HETATM   34  C   UNL     1     -41.199  55.829 -49.485  1.00  0.00     0.000 A 
HETATM   35  C   UNL     1     -41.733  54.545 -49.544  1.00  0.00     0.001 A 
HETATM   36  C   UNL     1     -42.237  54.055 -50.749  1.00  0.00     0.009 A 
ENDBRANCH  30  31
ENDBRANCH  21  30
ENDBRANCH  20  21
ENDBRANCH  17  20
ENDBRANCH  16  17
ENDBRANCH  14  16
BRANCH  13  37
HETATM   37  C   UNL     1     -44.863  59.792 -54.493  1.00  0.00     0.203 C 
BRANCH  37  38
HETATM   38  C   UNL     1     -45.094  59.306 -53.096  1.00  0.00     0.070 A 
HETATM   39  O   UNL     1     -45.913  60.062 -52.299  1.00  0.00    -0.325 OA
HETATM   40  C   UNL     1     -45.962  59.449 -51.089  1.00  0.00     0.142 A 
HETATM   41  C   UNL     1     -45.183  58.316 -51.089  1.00  0.00     0.027 A 
HETATM   42  C   UNL     1     -44.621  58.222 -52.385  1.00  0.00     0.036 A 
ENDBRANCH  37  38
ENDBRANCH  13  37
TORSDOF 11
ENDMDL
MODEL 2
REMARK VINA RESULT:      -8.8      2.837      3.275
REMARK  11 active torsions:
REMARK  status: ('A' for Active; 'I' for Inactive)
REMARK    1  A    between atoms: N_13  and  C_14 
REMARK    2  A    between atoms: C_14  and  C_15 
REMARK    3  A    between atoms: N_20  and  C_21 
REMARK    4  A    between atoms: C_21  and  C_22 
REMARK    5  A    between atoms: C_22  and  O_23 
REMARK    6  A    between atoms: C_22  and  C_24 
REMARK    7  A    between atoms: C_24  and  N_25 
REMARK    8  A    between atoms: N_25  and  C_27 
REMARK    9  A    between atoms: N_25  and  C_34 
REMARK   10  A    between atoms: C_27  and  C_28 
REMARK   11  A    between atoms: C_34  and  C_35 
ROOT
HETATM    1  C   UNL     1     -42.341  62.704 -57.715  1.00  0.00     0.163 C 
HETATM    2  N   UNL     1     -42.323  61.321 -58.166  1.00  0.00    -0.285 N 
HETATM    3  C   UNL     1     -42.382  61.022 -59.528  1.00  0.00     0.332 A 
HETATM    4  O   UNL     1     -42.460  61.905 -60.385  1.00  0.00    -0.246 OA
HETATM    5  N   UNL     1     -42.342  59.657 -59.884  1.00  0.00    -0.269 N 
HETATM    6  C   UNL     1     -42.400  59.317 -61.294  1.00  0.00     0.164 C 
HETATM    7  C   UNL     1     -42.249  58.590 -58.989  1.00  0.00     0.282 A 
HETATM    8  O   UNL     1     -42.189  57.408 -59.321  1.00  0.00    -0.265 OA
HETATM    9  C   UNL     1     -42.202  58.994 -57.629  1.00  0.00     0.166 A 
HETATM   10  C   UNL     1     -42.242  60.300 -57.251  1.00  0.00     0.186 A 
HETATM   11  N   UNL     1     -42.173  60.435 -55.902  1.00  0.00    -0.044 NA
HETATM   12  C   UNL     1     -42.105  59.210 -55.430  1.00  0.00     0.705 A 
HETATM   13  N   UNL     1     -42.034  58.844 -54.138  1.00  0.00    -0.218 N 
HETATM   14  N   UNL     1     -42.076  58.288 -56.460  1.00  0.00    -0.170 N 
HETATM   15  H   UNL     1     -42.303  57.919 -53.817  1.00  0.00     0.178 HD
ENDROOT
BRANCH  14  16
HETATM   16  C   UNL     1     -41.852  56.853 -56.344  1.00  0.00     0.181 C 
BRANCH  16  17
HETATM   17  C   UNL     1     -43.154  56.076 -56.095  1.00  0.00     0.163 C 
BRANCH  17  18
HETATM   18  O   UNL     1     -43.931  56.005 -57.300  1.00  0.00    -0.392 OA
HETATM   19  H   UNL     1     -44.068  55.073 -57.562  1.00  0.00     0.210 HD
ENDBRANCH  17  18
BRANCH  17  20
HETATM   20  C   UNL     1     -42.936  54.605 -55.672  1.00  0.00     0.268 C 
BRANCH  20  21
HETATM   21  N   UNL     1     -42.427  54.347 -54.269  1.00  0.00    -0.061 N 
HETATM   22  H   UNL     1     -42.868  53.485 -53.934  1.00  0.00     0.280 HD
BRANCH  21  23
HETATM   23  C   UNL     1     -40.928  54.129 -54.145  1.00  0.00     0.273 C 
BRANCH  23  24
HETATM   24  C   UNL     1     -40.483  52.768 -53.685  1.00  0.00    -0.033 A 
HETATM   25  C   UNL     1     -40.552  51.661 -54.545  1.00  0.00     0.009 A 
HETATM   26  C   UNL     1     -40.154  50.395 -54.110  1.00  0.00     0.001 A 
HETATM   27  C   UNL     1     -39.674  50.221 -52.816  1.00  0.00     0.000 A 
HETATM   28  C   UNL     1     -39.578  51.312 -51.958  1.00  0.00     0.001 A 
HETATM   29  C   UNL     1     -39.974  52.579 -52.390  1.00  0.00     0.009 A 
ENDBRANCH  23  24
ENDBRANCH  21  23
BRANCH  21  30
HETATM   30  C   UNL     1     -42.905  55.420 -53.300  1.00  0.00     0.273 C 
BRANCH  30  31
HETATM   31  C   UNL     1     -42.353  55.272 -51.907  1.00  0.00    -0.033 A 
HETATM   32  C   UNL     1     -41.327  56.111 -51.442  1.00  0.00     0.009 A 
HETATM   33  C   UNL     1     -40.810  55.942 -50.156  1.00  0.00     0.001 A 
HETATM   34  C   UNL     1     -41.309  54.942 -49.325  1.00  0.00     0.000 A 
HETATM   35  C   UNL     1     -42.331  54.109 -49.772  1.00  0.00     0.001 A 
HETATM   36  C   UNL     1     -42.852  54.273 -51.055  1.00  0.00     0.009 A 
ENDBRANCH  30  31
ENDBRANCH  21  30
ENDBRANCH  20  21
ENDBRANCH  17  20
ENDBRANCH  16  17
ENDBRANCH  14  16
BRANCH  13  37
HETATM   37  C   UNL     1     -42.369  59.841 -53.120  1.00  0.00     0.203 C 
BRANCH  37  38
HETATM   38  C   UNL     1     -41.529  59.733 -51.887  1.00  0.00     0.070 A 
HETATM   39  O   UNL     1     -40.193  59.483 -52.062  1.00  0.00    -0.325 OA
HETATM   40  C   UNL     1     -39.640  59.409 -50.824  1.00  0.00     0.142 A 
HETATM   41  C   UNL     1     -40.597  59.599 -49.855  1.00  0.00     0.027 A 
HETATM   42  C   UNL     1     -41.818  59.809 -50.540  1.00  0.00     0.036 A 
ENDBRANCH  37  38
ENDBRANCH  13  37
TORSDOF 11
ENDMDL
MODEL 3
REMARK VINA RESULT:      -8.5      1.487      3.704
REMARK  11 active torsions:
REMARK  status: ('A' for Active; 'I' for Inactive)
REMARK    1  A    between atoms: N_13  and  C_14 
REMARK    2  A    between atoms: C_14  and  C_15 
REMARK    3  A    between atoms: N_20  and  C_21 
REMARK    4  A    between atoms: C_21  and  C_22 
REMARK    5  A    between atoms: C_22  and  O_23 
REMARK    6  A    between atoms: C_22  and  C_24 
REMARK    7  A    between atoms: C_24  and  N_25 
REMARK    8  A    between atoms: N_25  and  C_27 
REMARK    9  A    between atoms: N_25  and  C_34 
REMARK   10  A    between atoms: C_27  and  C_28 
REMARK   11  A    between atoms: C_34  and  C_35 
ROOT
HETATM    1  C   UNL     1     -47.604  58.928 -59.072  1.00  0.00     0.163 C 
HETATM    2  N   UNL     1     -46.487  57.998 -59.128  1.00  0.00    -0.285 N 
HETATM    3  C   UNL     1     -46.414  57.041 -60.142  1.00  0.00     0.332 A 
HETATM    4  O   UNL     1     -47.286  56.946 -61.009  1.00  0.00    -0.246 OA
HETATM    5  N   UNL     1     -45.290  56.188 -60.135  1.00  0.00    -0.269 N 
HETATM    6  C   UNL     1     -45.188  55.185 -61.180  1.00  0.00     0.164 C 
HETATM    7  C   UNL     1     -44.253  56.224 -59.202  1.00  0.00     0.282 A 
HETATM    8  O   UNL     1     -43.268  55.489 -59.229  1.00  0.00    -0.265 OA
HETATM    9  C   UNL     1     -44.420  57.223 -58.208  1.00  0.00     0.166 A 
HETATM   10  C   UNL     1     -45.493  58.059 -58.182  1.00  0.00     0.186 A 
HETATM   11  N   UNL     1     -45.425  58.933 -57.146  1.00  0.00    -0.044 NA
HETATM   12  C   UNL     1     -44.313  58.635 -56.508  1.00  0.00     0.705 A 
HETATM   13  N   UNL     1     -43.832  59.230 -55.403  1.00  0.00    -0.218 N 
HETATM   14  N   UNL     1     -43.637  57.615 -57.151  1.00  0.00    -0.170 N 
HETATM   15  H   UNL     1     -43.170  58.773 -54.783  1.00  0.00     0.178 HD
ENDROOT
BRANCH  14  16
HETATM   16  C   UNL     1     -42.305  57.115 -56.839  1.00  0.00     0.181 C 
BRANCH  16  17
HETATM   17  C   UNL     1     -42.340  55.713 -56.211  1.00  0.00     0.163 C 
BRANCH  17  18
HETATM   18  O   UNL     1     -41.037  55.348 -55.731  1.00  0.00    -0.392 OA
HETATM   19  H   UNL     1     -40.486  55.011 -56.465  1.00  0.00     0.210 HD
ENDBRANCH  17  18
BRANCH  17  20
HETATM   20  C   UNL     1     -43.265  55.601 -54.977  1.00  0.00     0.268 C 
BRANCH  20  21
HETATM   21  N   UNL     1     -42.609  55.482 -53.617  1.00  0.00    -0.061 N 
HETATM   22  H   UNL     1     -41.596  55.523 -53.757  1.00  0.00     0.280 HD
BRANCH  21  23
HETATM   23  C   UNL     1     -42.942  56.588 -52.629  1.00  0.00     0.273 C 
BRANCH  23  24
HETATM   24  C   UNL     1     -41.806  57.481 -52.212  1.00  0.00    -0.033 A 
HETATM   25  C   UNL     1     -41.029  58.150 -53.172  1.00  0.00     0.009 A 
HETATM   26  C   UNL     1     -39.965  58.965 -52.783  1.00  0.00     0.001 A 
HETATM   27  C   UNL     1     -39.668  59.129 -51.434  1.00  0.00     0.000 A 
HETATM   28  C   UNL     1     -40.441  58.491 -50.470  1.00  0.00     0.001 A 
HETATM   29  C   UNL     1     -41.507  57.676 -50.854  1.00  0.00     0.009 A 
ENDBRANCH  23  24
ENDBRANCH  21  23
BRANCH  21  30
HETATM   30  C   UNL     1     -42.852  54.110 -53.003  1.00  0.00     0.273 C 
BRANCH  30  31
HETATM   31  C   UNL     1     -41.601  53.289 -52.832  1.00  0.00    -0.033 A 
HETATM   32  C   UNL     1     -41.112  52.488 -53.876  1.00  0.00     0.009 A 
HETATM   33  C   UNL     1     -39.965  51.715 -53.691  1.00  0.00     0.001 A 
HETATM   34  C   UNL     1     -39.295  51.734 -52.470  1.00  0.00     0.000 A 
HETATM   35  C   UNL     1     -39.765  52.531 -51.430  1.00  0.00     0.001 A 
HETATM   36  C   UNL     1     -40.911  53.306 -51.609  1.00  0.00     0.009 A 
ENDBRANCH  30  31
ENDBRANCH  21  30
ENDBRANCH  20  21
ENDBRANCH  17  20
ENDBRANCH  16  17
ENDBRANCH  14  16
BRANCH  13  37
HETATM   37  C   UNL     1     -44.737  60.078 -54.627  1.00  0.00     0.203 C 
BRANCH  37  38
HETATM   38  C   UNL     1     -44.305  60.259 -53.205  1.00  0.00     0.070 A 
HETATM   39  O   UNL     1     -43.221  61.066 -52.980  1.00  0.00    -0.325 OA
HETATM   40  C   UNL     1     -43.002  61.069 -51.640  1.00  0.00     0.142 A 
HETATM   41  C   UNL     1     -43.921  60.272 -50.999  1.00  0.00     0.027 A 
HETATM   42  C   UNL     1     -44.764  59.748 -52.009  1.00  0.00     0.036 A 
ENDBRANCH  37  38
ENDBRANCH  13  37
TORSDOF 11
ENDMDL
MODEL 4
REMARK VINA RESULT:      -8.4      2.213      5.760
REMARK  11 active torsions:
REMARK  status: ('A' for Active; 'I' for Inactive)
REMARK    1  A    between atoms: N_13  and  C_14 
REMARK    2  A    between atoms: C_14  and  C_15 
REMARK    3  A    between atoms: N_20  and  C_21 
REMARK    4  A    between atoms: C_21  and  C_22 
REMARK    5  A    between atoms: C_22  and  O_23 
REMARK    6  A    between atoms: C_22  and  C_24 
REMARK    7  A    between atoms: C_24  and  N_25 
REMARK    8  A    between atoms: N_25  and  C_27 
REMARK    9  A    between atoms: N_25  and  C_34 
REMARK   10  A    between atoms: C_27  and  C_28 
REMARK   11  A    between atoms: C_34  and  C_35 
ROOT
HETATM    1  C   UNL     1     -43.992  54.974 -59.537  1.00  0.00     0.163 C 
HETATM    2  N   UNL     1     -44.082  56.223 -58.798  1.00  0.00    -0.285 N 
HETATM    3  C   UNL     1     -44.819  57.294 -59.306  1.00  0.00     0.332 A 
HETATM    4  O   UNL     1     -45.405  57.223 -60.389  1.00  0.00    -0.246 OA
HETATM    5  N   UNL     1     -44.870  58.465 -58.520  1.00  0.00    -0.269 N 
HETATM    6  C   UNL     1     -45.632  59.593 -59.025  1.00  0.00     0.164 C 
HETATM    7  C   UNL     1     -44.247  58.637 -57.284  1.00  0.00     0.282 A 
HETATM    8  O   UNL     1     -44.326  59.656 -56.601  1.00  0.00    -0.265 OA
HETATM    9  C   UNL     1     -43.517  57.498 -56.855  1.00  0.00     0.166 A 
HETATM   10  C   UNL     1     -43.443  56.356 -57.589  1.00  0.00     0.186 A 
HETATM   11  N   UNL     1     -42.698  55.406 -56.968  1.00  0.00    -0.044 NA
HETATM   12  C   UNL     1     -42.289  55.959 -55.847  1.00  0.00     0.705 A 
HETATM   13  N   UNL     1     -41.508  55.398 -54.907  1.00  0.00    -0.218 N 
HETATM   14  N   UNL     1     -42.804  57.235 -55.712  1.00  0.00    -0.170 N 
HETATM   15  H   UNL     1     -40.971  55.949 -54.244  1.00  0.00     0.178 HD
ENDROOT
BRANCH  14  16
HETATM   16  C   UNL     1     -42.704  58.100 -54.545  1.00  0.00     0.181 C 
BRANCH  16  17
HETATM   17  C   UNL     1     -41.445  58.981 -54.578  1.00  0.00     0.163 C 
BRANCH  17  18
HETATM   18  O   UNL     1     -41.769  60.297 -55.053  1.00  0.00    -0.392 OA
HETATM   19  H   UNL     1     -41.129  60.951 -54.708  1.00  0.00     0.210 HD
ENDBRANCH  17  18
BRANCH  17  20
HETATM   20  C   UNL     1     -40.800  59.206 -53.190  1.00  0.00     0.268 C 
BRANCH  20  21
HETATM   21  N   UNL     1     -41.675  59.009 -51.970  1.00  0.00    -0.061 N 
HETATM   22  H   UNL     1     -42.524  58.523 -52.273  1.00  0.00     0.280 HD
BRANCH  21  23
HETATM   23  C   UNL     1     -41.075  58.158 -50.863  1.00  0.00     0.273 C 
BRANCH  23  24
HETATM   24  C   UNL     1     -41.722  56.822 -50.617  1.00  0.00    -0.033 A 
HETATM   25  C   UNL     1     -41.134  55.890 -49.747  1.00  0.00     0.009 A 
HETATM   26  C   UNL     1     -41.726  54.644 -49.533  1.00  0.00     0.001 A 
HETATM   27  C   UNL     1     -42.916  54.317 -50.177  1.00  0.00     0.000 A 
HETATM   28  C   UNL     1     -43.523  55.238 -51.025  1.00  0.00     0.001 A 
HETATM   29  C   UNL     1     -42.933  56.485 -51.240  1.00  0.00     0.009 A 
ENDBRANCH  23  24
ENDBRANCH  21  23
BRANCH  21  30
HETATM   30  C   UNL     1     -42.174  60.341 -51.426  1.00  0.00     0.273 C 
BRANCH  30  31
HETATM   31  C   UNL     1     -43.672  60.489 -51.460  1.00  0.00    -0.033 A 
HETATM   32  C   UNL     1     -44.438  60.380 -50.288  1.00  0.00     0.009 A 
HETATM   33  C   UNL     1     -45.828  60.495 -50.344  1.00  0.00     0.001 A 
HETATM   34  C   UNL     1     -46.465  60.723 -51.561  1.00  0.00     0.000 A 
HETATM   35  C   UNL     1     -45.716  60.841 -52.729  1.00  0.00     0.001 A 
HETATM   36  C   UNL     1     -44.327  60.727 -52.680  1.00  0.00     0.009 A 
ENDBRANCH  30  31
ENDBRANCH  21  30
ENDBRANCH  20  21
ENDBRANCH  17  20
ENDBRANCH  16  17
ENDBRANCH  14  16
BRANCH  13  37
HETATM   37  C   UNL     1     -40.771  54.183 -55.258  1.00  0.00     0.203 C 
BRANCH  37  38
HETATM   38  C   UNL     1     -40.410  53.346 -54.071  1.00  0.00     0.070 A 
HETATM   39  O   UNL     1     -39.968  52.073 -54.317  1.00  0.00    -0.325 OA
HETATM   40  C   UNL     1     -39.720  51.501 -53.111  1.00  0.00     0.142 A 
HETATM   41  C   UNL     1     -40.002  52.380 -52.093  1.00  0.00     0.027 A 
HETATM   42  C   UNL     1     -40.448  53.573 -52.711  1.00  0.00     0.036 A 
ENDBRANCH  37  38
ENDBRANCH  13  37
TORSDOF 11
ENDMDL
MODEL 5
REMARK VINA RESULT:      -8.3      3.291      5.677
REMARK  11 active torsions:
REMARK  status: ('A' for Active; 'I' for Inactive)
REMARK    1  A    between atoms: N_13  and  C_14 
REMARK    2  A    between atoms: C_14  and  C_15 
REMARK    3  A    between atoms: N_20  and  C_21 
REMARK    4  A    between atoms: C_21  and  C_22 
REMARK    5  A    between atoms: C_22  and  O_23 
REMARK    6  A    between atoms: C_22  and  C_24 
REMARK    7  A    between atoms: C_24  and  N_25 
REMARK    8  A    between atoms: N_25  and  C_27 
REMARK    9  A    between atoms: N_25  and  C_34 
REMARK   10  A    between atoms: C_27  and  C_28 
REMARK   11  A    between atoms: C_34  and  C_35 
ROOT
HETATM    1  C   UNL     1     -45.882  62.165 -54.593  1.00  0.00     0.163 C 
HETATM    2  N   UNL     1     -44.601  61.477 -54.551  1.00  0.00    -0.285 N 
HETATM    3  C   UNL     1     -43.856  61.298 -55.718  1.00  0.00     0.332 A 
HETATM    4  O   UNL     1     -44.256  61.702 -56.813  1.00  0.00    -0.246 OA
HETATM    5  N   UNL     1     -42.617  60.636 -55.589  1.00  0.00    -0.269 N 
HETATM    6  C   UNL     1     -41.822  60.437 -56.788  1.00  0.00     0.164 C 
HETATM    7  C   UNL     1     -42.079  60.149 -54.397  1.00  0.00     0.282 A 
HETATM    8  O   UNL     1     -40.985  59.599 -54.302  1.00  0.00    -0.265 OA
HETATM    9  C   UNL     1     -42.911  60.373 -53.269  1.00  0.00     0.166 A 
HETATM   10  C   UNL     1     -44.113  61.003 -53.358  1.00  0.00     0.186 A 
HETATM   11  N   UNL     1     -44.717  61.107 -52.147  1.00  0.00    -0.044 NA
HETATM   12  C   UNL     1     -43.900  60.525 -51.296  1.00  0.00     0.705 A 
HETATM   13  N   UNL     1     -44.084  60.374 -49.972  1.00  0.00    -0.218 N 
HETATM   14  N   UNL     1     -42.752  60.095 -51.934  1.00  0.00    -0.170 N 
HETATM   15  H   UNL     1     -43.603  59.661 -49.433  1.00  0.00     0.178 HD
ENDROOT
BRANCH  14  16
HETATM   16  C   UNL     1     -41.556  59.546 -51.309  1.00  0.00     0.181 C 
BRANCH  16  17
HETATM   17  C   UNL     1     -41.473  58.018 -51.447  1.00  0.00     0.163 C 
BRANCH  17  18
HETATM   18  O   UNL     1     -40.713  57.460 -50.365  1.00  0.00    -0.392 OA
HETATM   19  H   UNL     1     -41.310  57.090 -49.684  1.00  0.00     0.210 HD
ENDBRANCH  17  18
BRANCH  17  20
HETATM   20  C   UNL     1     -42.845  57.307 -51.380  1.00  0.00     0.268 C 
BRANCH  20  21
HETATM   21  N   UNL     1     -43.267  56.483 -52.578  1.00  0.00    -0.061 N 
HETATM   22  H   UNL     1     -42.539  56.581 -53.293  1.00  0.00     0.280 HD
BRANCH  21  23
HETATM   23  C   UNL     1     -43.415  54.991 -52.330  1.00  0.00     0.273 C 
BRANCH  23  24
HETATM   24  C   UNL     1     -42.243  54.127 -52.710  1.00  0.00    -0.033 A 
HETATM   25  C   UNL     1     -42.075  53.688 -54.033  1.00  0.00     0.009 A 
HETATM   26  C   UNL     1     -40.997  52.872 -54.380  1.00  0.00     0.001 A 
HETATM   27  C   UNL     1     -40.070  52.492 -53.414  1.00  0.00     0.000 A 
HETATM   28  C   UNL     1     -40.210  52.937 -52.104  1.00  0.00     0.001 A 
HETATM   29  C   UNL     1     -41.287  53.753 -51.753  1.00  0.00     0.009 A 
ENDBRANCH  23  24
ENDBRANCH  21  23
BRANCH  21  30
HETATM   30  C   UNL     1     -44.518  57.055 -53.231  1.00  0.00     0.273 C 
BRANCH  30  31
HETATM   31  C   UNL     1     -44.394  57.250 -54.719  1.00  0.00    -0.033 A 
HETATM   32  C   UNL     1     -43.277  56.771 -55.421  1.00  0.00     0.009 A 
HETATM   33  C   UNL     1     -43.167  56.984 -56.796  1.00  0.00     0.001 A 
HETATM   34  C   UNL     1     -44.166  57.671 -57.483  1.00  0.00     0.000 A 
HETATM   35  C   UNL     1     -45.282  58.145 -56.798  1.00  0.00     0.001 A 
HETATM   36  C   UNL     1     -45.398  57.934 -55.424  1.00  0.00     0.009 A 
ENDBRANCH  30  31
ENDBRANCH  21  30
ENDBRANCH  20  21
ENDBRANCH  17  20
ENDBRANCH  16  17
ENDBRANCH  14  16
BRANCH  13  37
HETATM   37  C   UNL     1     -45.430  60.581 -49.436  1.00  0.00     0.203 C 
BRANCH  37  38
HETATM   38  C   UNL     1     -45.466  60.662 -47.942  1.00  0.00     0.070 A 
HETATM   39  O   UNL     1     -46.273  59.768 -47.288  1.00  0.00    -0.325 OA
HETATM   40  C   UNL     1     -46.164  60.035 -45.961  1.00  0.00     0.142 A 
HETATM   41  C   UNL     1     -45.307  61.089 -45.750  1.00  0.00     0.027 A 
HETATM   42  C   UNL     1     -44.855  61.495 -47.028  1.00  0.00     0.036 A 
ENDBRANCH  37  38
ENDBRANCH  13  37
TORSDOF 11
ENDMDL
MODEL 6
REMARK VINA RESULT:      -8.2      2.406      7.669
REMARK  11 active torsions:
REMARK  status: ('A' for Active; 'I' for Inactive)
REMARK    1  A    between atoms: N_13  and  C_14 
REMARK    2  A    between atoms: C_14  and  C_15 
REMARK    3  A    between atoms: N_20  and  C_21 
REMARK    4  A    between atoms: C_21  and  C_22 
REMARK    5  A    between atoms: C_22  and  O_23 
REMARK    6  A    between atoms: C_22  and  C_24 
REMARK    7  A    between atoms: C_24  and  N_25 
REMARK    8  A    between atoms: N_25  and  C_27 
REMARK    9  A    between atoms: N_25  and  C_34 
REMARK   10  A    between atoms: C_27  and  C_28 
REMARK   11  A    between atoms: C_34  and  C_35 
ROOT
HETATM    1  C   UNL     1     -40.710  53.616 -49.512  1.00  0.00     0.163 C 
HETATM    2  N   UNL     1     -40.885  53.404 -50.940  1.00  0.00    -0.285 N 
HETATM    3  C   UNL     1     -40.089  52.480 -51.621  1.00  0.00     0.332 A 
HETATM    4  O   UNL     1     -39.215  51.828 -51.046  1.00  0.00    -0.246 OA
HETATM    5  N   UNL     1     -40.334  52.322 -53.001  1.00  0.00    -0.269 N 
HETATM    6  C   UNL     1     -39.521  51.367 -53.733  1.00  0.00     0.164 C 
HETATM    7  C   UNL     1     -41.301  53.008 -53.736  1.00  0.00     0.282 A 
HETATM    8  O   UNL     1     -41.517  52.836 -54.934  1.00  0.00    -0.265 OA
HETATM    9  C   UNL     1     -42.054  53.928 -52.959  1.00  0.00     0.166 A 
HETATM   10  C   UNL     1     -41.842  54.110 -51.629  1.00  0.00     0.186 A 
HETATM   11  N   UNL     1     -42.689  55.031 -51.105  1.00  0.00    -0.044 NA
HETATM   12  C   UNL     1     -43.426  55.443 -52.114  1.00  0.00     0.705 A 
HETATM   13  N   UNL     1     -44.401  56.369 -52.078  1.00  0.00    -0.218 N 
HETATM   14  N   UNL     1     -43.101  54.759 -53.271  1.00  0.00    -0.170 N 
HETATM   15  H   UNL     1     -44.707  56.871 -52.906  1.00  0.00     0.178 HD
ENDROOT
BRANCH  14  16
HETATM   16  C   UNL     1     -43.793  54.825 -54.550  1.00  0.00     0.181 C 
BRANCH  16  17
HETATM   17  C   UNL     1     -43.222  55.916 -55.469  1.00  0.00     0.163 C 
BRANCH  17  18
HETATM   18  O   UNL     1     -43.252  55.482 -56.837  1.00  0.00    -0.392 OA
HETATM   19  H   UNL     1     -43.099  54.517 -56.893  1.00  0.00     0.210 HD
ENDBRANCH  17  18
BRANCH  17  20
HETATM   20  C   UNL     1     -44.026  57.236 -55.451  1.00  0.00     0.268 C 
BRANCH  20  21
HETATM   21  N   UNL     1     -43.303  58.491 -55.011  1.00  0.00    -0.061 N 
HETATM   22  H   UNL     1     -43.846  58.910 -54.250  1.00  0.00     0.280 HD
BRANCH  21  23
HETATM   23  C   UNL     1     -41.901  58.283 -54.464  1.00  0.00     0.273 C 
BRANCH  23  24
HETATM   24  C   UNL     1     -41.656  58.742 -53.052  1.00  0.00    -0.033 A 
HETATM   25  C   UNL     1     -40.942  57.936 -52.149  1.00  0.00     0.009 A 
HETATM   26  C   UNL     1     -40.731  58.356 -50.835  1.00  0.00     0.001 A 
HETATM   27  C   UNL     1     -41.219  59.587 -50.408  1.00  0.00     0.000 A 
HETATM   28  C   UNL     1     -41.909  60.406 -51.296  1.00  0.00     0.001 A 
HETATM   29  C   UNL     1     -42.122  59.990 -52.611  1.00  0.00     0.009 A 
ENDBRANCH  23  24
ENDBRANCH  21  23
BRANCH  21  30
HETATM   30  C   UNL     1     -43.310  59.548 -56.108  1.00  0.00     0.273 C 
BRANCH  30  31
HETATM   31  C   UNL     1     -43.219  58.981 -57.500  1.00  0.00    -0.033 A 
HETATM   32  C   UNL     1     -41.984  58.594 -58.045  1.00  0.00     0.009 A 
HETATM   33  C   UNL     1     -41.917  58.094 -59.347  1.00  0.00     0.001 A 
HETATM   34  C   UNL     1     -43.074  57.972 -60.113  1.00  0.00     0.000 A 
HETATM   35  C   UNL     1     -44.305  58.345 -59.580  1.00  0.00     0.001 A 
HETATM   36  C   UNL     1     -44.379  58.845 -58.280  1.00  0.00     0.009 A 
ENDBRANCH  30  31
ENDBRANCH  21  30
ENDBRANCH  20  21
ENDBRANCH  17  20
ENDBRANCH  16  17
ENDBRANCH  14  16
BRANCH  13  37
HETATM   37  C   UNL     1     -44.477  57.244 -50.908  1.00  0.00     0.203 C 
BRANCH  37  38
HETATM   38  C   UNL     1     -45.101  58.572 -51.202  1.00  0.00     0.070 A 
HETATM   39  O   UNL     1     -45.267  58.905 -52.521  1.00  0.00    -0.325 OA
HETATM   40  C   UNL     1     -45.826  60.142 -52.549  1.00  0.00     0.142 A 
HETATM   41  C   UNL     1     -46.015  60.615 -51.272  1.00  0.00     0.027 A 
HETATM   42  C   UNL     1     -45.547  59.602 -50.401  1.00  0.00     0.036 A 
ENDBRANCH  37  38
ENDBRANCH  13  37
TORSDOF 11
ENDMDL
MODEL 7
REMARK VINA RESULT:      -8.1      2.453      7.947
REMARK  11 active torsions:
REMARK  status: ('A' for Active; 'I' for Inactive)
REMARK    1  A    between atoms: N_13  and  C_14 
REMARK    2  A    between atoms: C_14  and  C_15 
REMARK    3  A    between atoms: N_20  and  C_21 
REMARK    4  A    between atoms: C_21  and  C_22 
REMARK    5  A    between atoms: C_22  and  O_23 
REMARK    6  A    between atoms: C_22  and  C_24 
REMARK    7  A    between atoms: C_24  and  N_25 
REMARK    8  A    between atoms: N_25  and  C_27 
REMARK    9  A    between atoms: N_25  and  C_34 
REMARK   10  A    between atoms: C_27  and  C_28 
REMARK   11  A    between atoms: C_34  and  C_35 
ROOT
HETATM    1  C   UNL     1     -40.458  52.744 -49.260  1.00  0.00     0.163 C 
HETATM    2  N   UNL     1     -40.346  52.488 -50.687  1.00  0.00    -0.285 N 
HETATM    3  C   UNL     1     -39.963  51.228 -51.152  1.00  0.00     0.332 A 
HETATM    4  O   UNL     1     -39.702  50.303 -50.379  1.00  0.00    -0.246 OA
HETATM    5  N   UNL     1     -39.894  51.057 -52.551  1.00  0.00    -0.269 N 
HETATM    6  C   UNL     1     -39.501  49.756 -53.060  1.00  0.00     0.164 C 
HETATM    7  C   UNL     1     -40.175  52.039 -53.501  1.00  0.00     0.282 A 
HETATM    8  O   UNL     1     -40.135  51.863 -54.716  1.00  0.00    -0.265 OA
HETATM    9  C   UNL     1     -40.548  53.286 -52.933  1.00  0.00     0.166 A 
HETATM   10  C   UNL     1     -40.620  53.487 -51.590  1.00  0.00     0.186 A 
HETATM   11  N   UNL     1     -41.006  54.753 -51.290  1.00  0.00    -0.044 NA
HETATM   12  C   UNL     1     -41.162  55.355 -52.449  1.00  0.00     0.705 A 
HETATM   13  N   UNL     1     -41.528  56.633 -52.654  1.00  0.00    -0.218 N 
HETATM   14  N   UNL     1     -40.932  54.478 -53.493  1.00  0.00    -0.170 N 
HETATM   15  H   UNL     1     -41.325  57.126 -53.518  1.00  0.00     0.178 HD
ENDROOT
BRANCH  14  16
HETATM   16  C   UNL     1     -41.152  54.728 -54.911  1.00  0.00     0.181 C 
BRANCH  16  17
HETATM   17  C   UNL     1     -42.545  54.276 -55.376  1.00  0.00     0.163 C 
BRANCH  17  18
HETATM   18  O   UNL     1     -43.522  54.549 -54.361  1.00  0.00    -0.392 OA
HETATM   19  H   UNL     1     -43.100  54.967 -53.584  1.00  0.00     0.210 HD
ENDBRANCH  17  18
BRANCH  17  20
HETATM   20  C   UNL     1     -43.057  55.016 -56.633  1.00  0.00     0.268 C 
BRANCH  20  21
HETATM   21  N   UNL     1     -42.959  56.527 -56.646  1.00  0.00    -0.061 N 
HETATM   22  H   UNL     1     -42.060  56.783 -56.229  1.00  0.00     0.280 HD
BRANCH  21  23
HETATM   23  C   UNL     1     -42.985  57.174 -58.021  1.00  0.00     0.273 C 
BRANCH  23  24
HETATM   24  C   UNL     1     -44.056  56.702 -58.966  1.00  0.00    -0.033 A 
HETATM   25  C   UNL     1     -45.344  57.261 -58.927  1.00  0.00     0.009 A 
HETATM   26  C   UNL     1     -46.342  56.810 -59.794  1.00  0.00     0.001 A 
HETATM   27  C   UNL     1     -46.064  55.804 -60.714  1.00  0.00     0.000 A 
HETATM   28  C   UNL     1     -44.788  55.256 -60.780  1.00  0.00     0.001 A 
HETATM   29  C   UNL     1     -43.787  55.704 -59.915  1.00  0.00     0.009 A 
ENDBRANCH  23  24
ENDBRANCH  21  23
BRANCH  21  30
HETATM   30  C   UNL     1     -43.997  57.157 -55.727  1.00  0.00     0.273 C 
BRANCH  30  31
HETATM   31  C   UNL     1     -43.620  58.529 -55.232  1.00  0.00    -0.033 A 
HETATM   32  C   UNL     1     -42.279  58.865 -54.985  1.00  0.00     0.009 A 
HETATM   33  C   UNL     1     -41.951  60.133 -54.502  1.00  0.00     0.001 A 
HETATM   34  C   UNL     1     -42.950  61.075 -54.265  1.00  0.00     0.000 A 
HETATM   35  C   UNL     1     -44.282  60.755 -54.514  1.00  0.00     0.001 A 
HETATM   36  C   UNL     1     -44.616  59.490 -54.997  1.00  0.00     0.009 A 
ENDBRANCH  30  31
ENDBRANCH  21  30
ENDBRANCH  20  21
ENDBRANCH  17  20
ENDBRANCH  16  17
ENDBRANCH  14  16
BRANCH  13  37
HETATM   37  C   UNL     1     -41.458  57.559 -51.523  1.00  0.00     0.203 C 
BRANCH  37  38
HETATM   38  C   UNL     1     -42.709  58.358 -51.334  1.00  0.00     0.070 A 
HETATM   39  O   UNL     1     -42.564  59.658 -50.925  1.00  0.00    -0.325 OA
HETATM   40  C   UNL     1     -43.814  60.175 -50.803  1.00  0.00     0.142 A 
HETATM   41  C   UNL     1     -44.761  59.230 -51.118  1.00  0.00     0.027 A 
HETATM   42  C   UNL     1     -44.049  58.055 -51.461  1.00  0.00     0.036 A 
ENDBRANCH  37  38
ENDBRANCH  13  37
TORSDOF 11
ENDMDL
MODEL 8
REMARK VINA RESULT:      -8.1      2.853      8.676
REMARK  11 active torsions:
REMARK  status: ('A' for Active; 'I' for Inactive)
REMARK    1  A    between atoms: N_13  and  C_14 
REMARK    2  A    between atoms: C_14  and  C_15 
REMARK    3  A    between atoms: N_20  and  C_21 
REMARK    4  A    between atoms: C_21  and  C_22 
REMARK    5  A    between atoms: C_22  and  O_23 
REMARK    6  A    between atoms: C_22  and  C_24 
REMARK    7  A    between atoms: C_24  and  N_25 
REMARK    8  A    between atoms: N_25  and  C_27 
REMARK    9  A    between atoms: N_25  and  C_34 
REMARK   10  A    between atoms: C_27  and  C_28 
REMARK   11  A    between atoms: C_34  and  C_35 
ROOT
HETATM    1  C   UNL     1     -41.599  54.986 -49.177  1.00  0.00     0.163 C 
HETATM    2  N   UNL     1     -41.427  54.364 -50.480  1.00  0.00    -0.285 N 
HETATM    3  C   UNL     1     -40.549  53.290 -50.641  1.00  0.00     0.332 A 
HETATM    4  O   UNL     1     -39.890  52.844 -49.698  1.00  0.00    -0.246 OA
HETATM    5  N   UNL     1     -40.452  52.733 -51.933  1.00  0.00    -0.269 N 
HETATM    6  C   UNL     1     -39.548  51.614 -52.127  1.00  0.00     0.164 C 
HETATM    7  C   UNL     1     -41.159  53.165 -53.056  1.00  0.00     0.282 A 
HETATM    8  O   UNL     1     -41.081  52.648 -54.168  1.00  0.00    -0.265 OA
HETATM    9  C   UNL     1     -42.019  54.264 -52.795  1.00  0.00     0.166 A 
HETATM   10  C   UNL     1     -42.133  54.828 -51.563  1.00  0.00     0.186 A 
HETATM   11  N   UNL     1     -43.022  55.854 -51.560  1.00  0.00    -0.044 NA
HETATM   12  C   UNL     1     -43.456  55.946 -52.799  1.00  0.00     0.705 A 
HETATM   13  N   UNL     1     -44.346  56.831 -53.280  1.00  0.00    -0.218 N 
HETATM   14  N   UNL     1     -42.898  54.957 -53.588  1.00  0.00    -0.170 N 
HETATM   15  H   UNL     1     -44.402  57.066 -54.266  1.00  0.00     0.178 HD
ENDROOT
BRANCH  14  16
HETATM   16  C   UNL     1     -43.245  54.638 -54.967  1.00  0.00     0.181 C 
BRANCH  16  17
HETATM   17  C   UNL     1     -42.362  55.385 -55.979  1.00  0.00     0.163 C 
BRANCH  17  18
HETATM   18  O   UNL     1     -41.146  54.658 -56.212  1.00  0.00    -0.392 OA
HETATM   19  H   UNL     1     -40.937  54.088 -55.446  1.00  0.00     0.210 HD
ENDBRANCH  17  18
BRANCH  17  20
HETATM   20  C   UNL     1     -43.006  55.544 -57.375  1.00  0.00     0.268 C 
BRANCH  20  21
HETATM   21  N   UNL     1     -43.043  56.934 -57.976  1.00  0.00    -0.061 N 
HETATM   22  H   UNL     1     -44.017  57.249 -57.969  1.00  0.00     0.280 HD
BRANCH  21  23
HETATM   23  C   UNL     1     -42.252  57.993 -57.227  1.00  0.00     0.273 C 
BRANCH  23  24
HETATM   24  C   UNL     1     -42.889  59.352 -57.113  1.00  0.00    -0.033 A 
HETATM   25  C   UNL     1     -44.235  59.484 -56.736  1.00  0.00     0.009 A 
HETATM   26  C   UNL     1     -44.828  60.745 -56.648  1.00  0.00     0.001 A 
HETATM   27  C   UNL     1     -44.084  61.887 -56.925  1.00  0.00     0.000 A 
HETATM   28  C   UNL     1     -42.744  61.774 -57.278  1.00  0.00     0.001 A 
HETATM   29  C   UNL     1     -42.146  60.516 -57.367  1.00  0.00     0.009 A 
ENDBRANCH  23  24
ENDBRANCH  21  23
BRANCH  21  30
HETATM   30  C   UNL     1     -42.663  56.910 -59.451  1.00  0.00     0.273 C 
BRANCH  30  31
HETATM   31  C   UNL     1     -42.933  58.205 -60.170  1.00  0.00    -0.033 A 
HETATM   32  C   UNL     1     -44.243  58.687 -60.327  1.00  0.00     0.009 A 
HETATM   33  C   UNL     1     -44.475  59.877 -61.019  1.00  0.00     0.001 A 
HETATM   34  C   UNL     1     -43.411  60.596 -61.556  1.00  0.00     0.000 A 
HETATM   35  C   UNL     1     -42.107  60.132 -61.401  1.00  0.00     0.001 A 
HETATM   36  C   UNL     1     -41.868  58.945 -60.710  1.00  0.00     0.009 A 
ENDBRANCH  30  31
ENDBRANCH  21  30
ENDBRANCH  20  21
ENDBRANCH  17  20
ENDBRANCH  16  17
ENDBRANCH  14  16
BRANCH  13  37
HETATM   37  C   UNL     1     -44.653  58.010 -52.469  1.00  0.00     0.203 C 
BRANCH  37  38
HETATM   38  C   UNL     1     -43.895  59.230 -52.888  1.00  0.00     0.070 A 
HETATM   39  O   UNL     1     -42.599  59.050 -53.297  1.00  0.00    -0.325 OA
HETATM   40  C   UNL     1     -42.109  60.278 -53.607  1.00  0.00     0.142 A 
HETATM   41  C   UNL     1     -43.063  61.245 -53.398  1.00  0.00     0.027 A 
HETATM   42  C   UNL     1     -44.218  60.571 -52.934  1.00  0.00     0.036 A 
ENDBRANCH  37  38
ENDBRANCH  13  37
TORSDOF 11
ENDMDL
MODEL 9
REMARK VINA RESULT:      -8.0      2.284      8.400
REMARK  11 active torsions:
REMARK  status: ('A' for Active; 'I' for Inactive)
REMARK    1  A    between atoms: N_13  and  C_14 
REMARK    2  A    between atoms: C_14  and  C_15 
REMARK    3  A    between atoms: N_20  and  C_21 
REMARK    4  A    between atoms: C_21  and  C_22 
REMARK    5  A    between atoms: C_22  and  O_23 
REMARK    6  A    between atoms: C_22  and  C_24 
REMARK    7  A    between atoms: C_24  and  N_25 
REMARK    8  A    between atoms: N_25  and  C_27 
REMARK    9  A    between atoms: N_25  and  C_34 
REMARK   10  A    between atoms: C_27  and  C_28 
REMARK   11  A    between atoms: C_34  and  C_35 
ROOT
HETATM    1  C   UNL     1     -41.118  53.865 -49.263  1.00  0.00     0.163 C 
HETATM    2  N   UNL     1     -40.804  53.544 -50.647  1.00  0.00    -0.285 N 
HETATM    3  C   UNL     1     -40.346  52.271 -50.991  1.00  0.00     0.332 A 
HETATM    4  O   UNL     1     -40.184  51.388 -50.145  1.00  0.00    -0.246 OA
HETATM    5  N   UNL     1     -40.080  52.036 -52.356  1.00  0.00    -0.269 N 
HETATM    6  C   UNL     1     -39.605  50.719 -52.742  1.00  0.00     0.164 C 
HETATM    7  C   UNL     1     -40.239  52.966 -53.384  1.00  0.00     0.282 A 
HETATM    8  O   UNL     1     -40.027  52.734 -54.572  1.00  0.00    -0.265 OA
HETATM    9  C   UNL     1     -40.701  54.232 -52.935  1.00  0.00     0.166 A 
HETATM   10  C   UNL     1     -40.962  54.494 -51.626  1.00  0.00     0.186 A 
HETATM   11  N   UNL     1     -41.401  55.765 -51.446  1.00  0.00    -0.044 NA
HETATM   12  C   UNL     1     -41.401  56.310 -52.644  1.00  0.00     0.705 A 
HETATM   13  N   UNL     1     -41.750  57.569 -52.960  1.00  0.00    -0.218 N 
HETATM   14  N   UNL     1     -41.018  55.388 -53.601  1.00  0.00    -0.170 N 
HETATM   15  H   UNL     1     -41.435  58.025 -53.811  1.00  0.00     0.178 HD
ENDROOT
BRANCH  14  16
HETATM   16  C   UNL     1     -41.041  55.567 -55.047  1.00  0.00     0.181 C 
BRANCH  16  17
HETATM   17  C   UNL     1     -42.395  55.184 -55.662  1.00  0.00     0.163 C 
BRANCH  17  18
HETATM   18  O   UNL     1     -42.980  54.089 -54.940  1.00  0.00    -0.392 OA
HETATM   19  H   UNL     1     -43.772  53.758 -55.407  1.00  0.00     0.210 HD
ENDBRANCH  17  18
BRANCH  17  20
HETATM   20  C   UNL     1     -43.453  56.311 -55.602  1.00  0.00     0.268 C 
BRANCH  20  21
HETATM   21  N   UNL     1     -43.438  57.345 -56.708  1.00  0.00    -0.061 N 
HETATM   22  H   UNL     1     -44.408  57.626 -56.882  1.00  0.00     0.280 HD
BRANCH  21  23
HETATM   23  C   UNL     1     -42.679  58.625 -56.400  1.00  0.00     0.273 C 
BRANCH  23  24
HETATM   24  C   UNL     1     -43.389  59.638 -55.545  1.00  0.00    -0.033 A 
HETATM   25  C   UNL     1     -44.789  59.629 -55.434  1.00  0.00     0.009 A 
HETATM   26  C   UNL     1     -45.447  60.582 -54.653  1.00  0.00     0.001 A 
HETATM   27  C   UNL     1     -44.717  61.547 -53.967  1.00  0.00     0.000 A 
HETATM   28  C   UNL     1     -43.328  61.555 -54.048  1.00  0.00     0.001 A 
HETATM   29  C   UNL     1     -42.666  60.605 -54.828  1.00  0.00     0.009 A 
ENDBRANCH  23  24
ENDBRANCH  21  23
BRANCH  21  30
HETATM   30  C   UNL     1     -42.975  56.739 -58.026  1.00  0.00     0.273 C 
BRANCH  30  31
HETATM   31  C   UNL     1     -44.100  56.405 -58.971  1.00  0.00    -0.033 A 
HETATM   32  C   UNL     1     -43.989  55.343 -59.882  1.00  0.00     0.009 A 
HETATM   33  C   UNL     1     -45.032  55.065 -60.767  1.00  0.00     0.001 A 
HETATM   34  C   UNL     1     -46.191  55.837 -60.751  1.00  0.00     0.000 A 
HETATM   35  C   UNL     1     -46.316  56.888 -59.847  1.00  0.00     0.001 A 
HETATM   36  C   UNL     1     -45.278  57.171 -58.960  1.00  0.00     0.009 A 
ENDBRANCH  30  31
ENDBRANCH  21  30
ENDBRANCH  20  21
ENDBRANCH  17  20
ENDBRANCH  16  17
ENDBRANCH  14  16
BRANCH  13  37
HETATM   37  C   UNL     1     -41.850  58.548 -51.877  1.00  0.00     0.203 C 
BRANCH  37  38
HETATM   38  C   UNL     1     -43.261  58.898 -51.523  1.00  0.00     0.070 A 
HETATM   39  O   UNL     1     -43.452  60.006 -50.740  1.00  0.00    -0.325 OA
HETATM   40  C   UNL     1     -44.790  60.118 -50.533  1.00  0.00     0.142 A 
HETATM   41  C   UNL     1     -45.462  59.097 -51.161  1.00  0.00     0.027 A 
HETATM   42  C   UNL     1     -44.477  58.307 -51.801  1.00  0.00     0.036 A 
ENDBRANCH  37  38
ENDBRANCH  13  37
TORSDOF 11
ENDMDL
MODEL 10
REMARK VINA RESULT:      -8.0      2.600      8.445
REMARK  11 active torsions:
REMARK  status: ('A' for Active; 'I' for Inactive)
REMARK    1  A    between atoms: N_13  and  C_14 
REMARK    2  A    between atoms: C_14  and  C_15 
REMARK    3  A    between atoms: N_20  and  C_21 
REMARK    4  A    between atoms: C_21  and  C_22 
REMARK    5  A    between atoms: C_22  and  O_23 
REMARK    6  A    between atoms: C_22  and  C_24 
REMARK    7  A    between atoms: C_24  and  N_25 
REMARK    8  A    between atoms: N_25  and  C_27 
REMARK    9  A    between atoms: N_25  and  C_34 
REMARK   10  A    between atoms: C_27  and  C_28 
REMARK   11  A    between atoms: C_34  and  C_35 
ROOT
HETATM    1  C   UNL     1     -41.579  54.961 -49.237  1.00  0.00     0.163 C 
HETATM    2  N   UNL     1     -41.422  54.328 -50.537  1.00  0.00    -0.285 N 
HETATM    3  C   UNL     1     -40.549  53.250 -50.698  1.00  0.00     0.332 A 
HETATM    4  O   UNL     1     -39.881  52.809 -49.759  1.00  0.00    -0.246 OA
HETATM    5  N   UNL     1     -40.467  52.682 -51.987  1.00  0.00    -0.269 N 
HETATM    6  C   UNL     1     -39.568  51.559 -52.181  1.00  0.00     0.164 C 
HETATM    7  C   UNL     1     -41.184  53.107 -53.105  1.00  0.00     0.282 A 
HETATM    8  O   UNL     1     -41.119  52.581 -54.214  1.00  0.00    -0.265 OA
HETATM    9  C   UNL     1     -42.039  54.210 -52.844  1.00  0.00     0.166 A 
HETATM   10  C   UNL     1     -42.139  54.785 -51.616  1.00  0.00     0.186 A 
HETATM   11  N   UNL     1     -43.025  55.813 -51.612  1.00  0.00    -0.044 NA
HETATM   12  C   UNL     1     -43.472  55.896 -52.847  1.00  0.00     0.705 A 
HETATM   13  N   UNL     1     -44.364  56.780 -53.326  1.00  0.00    -0.218 N 
HETATM   14  N   UNL     1     -42.925  54.899 -53.634  1.00  0.00    -0.170 N 
HETATM   15  H   UNL     1     -44.430  57.007 -54.313  1.00  0.00     0.178 HD
ENDROOT
BRANCH  14  16
HETATM   16  C   UNL     1     -43.287  54.570 -55.006  1.00  0.00     0.181 C 
BRANCH  16  17
HETATM   17  C   UNL     1     -42.473  55.373 -56.033  1.00  0.00     0.163 C 
BRANCH  17  18
HETATM   18  O   UNL     1     -41.175  54.786 -56.210  1.00  0.00    -0.392 OA
HETATM   19  H   UNL     1     -40.820  55.004 -57.095  1.00  0.00     0.210 HD
ENDBRANCH  17  18
BRANCH  17  20
HETATM   20  C   UNL     1     -43.097  55.396 -57.448  1.00  0.00     0.268 C 
BRANCH  20  21
HETATM   21  N   UNL     1     -43.546  56.735 -57.994  1.00  0.00    -0.061 N 
HETATM   22  H   UNL     1     -42.720  57.209 -58.368  1.00  0.00     0.280 HD
BRANCH  21  23
HETATM   23  C   UNL     1     -44.550  56.675 -59.133  1.00  0.00     0.273 C 
BRANCH  23  24
HETATM   24  C   UNL     1     -44.821  57.966 -59.858  1.00  0.00    -0.033 A 
HETATM   25  C   UNL     1     -43.775  58.685 -60.459  1.00  0.00     0.009 A 
HETATM   26  C   UNL     1     -44.026  59.891 -61.116  1.00  0.00     0.001 A 
HETATM   27  C   UNL     1     -45.323  60.388 -61.190  1.00  0.00     0.000 A 
HETATM   28  C   UNL     1     -46.373  59.677 -60.619  1.00  0.00     0.001 A 
HETATM   29  C   UNL     1     -46.126  58.471 -59.961  1.00  0.00     0.009 A 
ENDBRANCH  23  24
ENDBRANCH  21  23
BRANCH  21  30
HETATM   30  C   UNL     1     -44.038  57.650 -56.881  1.00  0.00     0.273 C 
BRANCH  30  31
HETATM   31  C   UNL     1     -43.579  59.078 -57.020  1.00  0.00    -0.033 A 
HETATM   32  C   UNL     1     -44.496  60.141 -56.976  1.00  0.00     0.009 A 
HETATM   33  C   UNL     1     -44.055  61.456 -57.132  1.00  0.00     0.001 A 
HETATM   34  C   UNL     1     -42.703  61.724 -57.330  1.00  0.00     0.000 A 
HETATM   35  C   UNL     1     -41.784  60.680 -57.367  1.00  0.00     0.001 A 
HETATM   36  C   UNL     1     -42.217  59.363 -57.211  1.00  0.00     0.009 A 
ENDBRANCH  30  31
ENDBRANCH  21  30
ENDBRANCH  20  21
ENDBRANCH  17  20
ENDBRANCH  16  17
ENDBRANCH  14  16
BRANCH  13  37
HETATM   37  C   UNL     1     -44.660  57.965 -52.521  1.00  0.00     0.203 C 
BRANCH  37  38
HETATM   38  C   UNL     1     -43.918  59.185 -52.970  1.00  0.00     0.070 A 
HETATM   39  O   UNL     1     -42.586  59.036 -53.254  1.00  0.00    -0.325 OA
HETATM   40  C   UNL     1     -42.121  60.259 -53.619  1.00  0.00     0.142 A 
HETATM   41  C   UNL     1     -43.128  61.193 -53.566  1.00  0.00     0.027 A 
HETATM   42  C   UNL     1     -44.289  60.502 -53.148  1.00  0.00     0.036 A 
ENDBRANCH  37  38
ENDBRANCH  13  37
TORSDOF 11
ENDMDL
