MODEL 1
REMARK VINA RESULT:      -8.1      0.000      0.000
REMARK  4 active torsions:
REMARK  status: ('A' for Active; 'I' for Inactive)
REMARK    1  A    between atoms: C_4  and  C_5 
REMARK    2  A    between atoms: C_8  and  C_9 
REMARK       I    between atoms: C_9  and  N_10 
REMARK    3  A    between atoms: N_10  and  C_11 
REMARK    4  A    between atoms: C_14  and  N_15 
ROOT
HETATM    1  C   UNL     1     -42.125  56.546 -55.900  1.00  0.00     0.252 C 
HETATM    2  N   UNL     1     -42.422  56.595 -57.251  1.00  0.00    -0.352 N 
HETATM    3  O   UNL     1     -42.181  57.521 -55.160  1.00  0.00    -0.268 OA
HETATM    4  H   UNL     1     -42.116  55.785 -57.776  1.00  0.00     0.163 HD
ENDROOT
BRANCH   1   5
HETATM    5  C   UNL     1     -41.704  55.226 -55.335  1.00  0.00     0.032 A 
HETATM    6  C   UNL     1     -42.602  54.202 -55.010  1.00  0.00     0.018 A 
HETATM    7  C   UNL     1     -42.124  52.979 -54.517  1.00  0.00     0.015 A 
HETATM    8  C   UNL     1     -40.752  52.755 -54.322  1.00  0.00    -0.002 A 
HETATM    9  C   UNL     1     -39.866  53.798 -54.622  1.00  0.00     0.015 A 
HETATM   10  C   UNL     1     -40.336  55.017 -55.122  1.00  0.00     0.018 A 
BRANCH   8  11
HETATM   11  C   UNL     1     -40.251  51.477 -53.825  1.00  0.00     0.086 A 
HETATM   12  O   UNL     1     -40.064  51.381 -52.473  1.00  0.00    -0.315 OA
HETATM   13  C   UNL     1     -39.623  50.120 -52.208  1.00  0.00     0.050 A 
HETATM   14  C   UNL     1     -39.366  49.789 -50.792  1.00  0.00     0.076 C 
HETATM   15  C   UNL     1     -39.515  49.401 -53.376  1.00  0.00     0.035 A 
HETATM   16  C   UNL     1     -39.921  50.271 -54.417  1.00  0.00     0.040 A 
ENDBRANCH   8  11
ENDBRANCH   1   5
BRANCH   2  17
HETATM   17  C   UNL     1     -42.517  57.816 -58.058  1.00  0.00     0.084 C 
HETATM   18  C   UNL     1     -42.239  57.459 -59.530  1.00  0.00     0.027 C 
HETATM   19  C   UNL     1     -43.402  56.684 -60.164  1.00  0.00     0.035 C 
HETATM   20  C   UNL     1     -44.759  57.373 -60.004  1.00  0.00     0.183 C 
HETATM   21  C   UNL     1     -45.019  57.857 -58.581  1.00  0.00     0.035 C 
HETATM   22  C   UNL     1     -43.830  58.616 -57.988  1.00  0.00     0.027 C 
BRANCH  20  23
HETATM   23  N   UNL     1     -44.830  58.542 -60.932  1.00  0.00    -0.075 N 
HETATM   24  H   UNL     1     -45.608  59.178 -60.723  1.00  0.00     0.274 HD
HETATM   25  H   UNL     1     -43.961  59.093 -60.905  1.00  0.00     0.274 HD
HETATM   26  H   UNL     1     -44.950  58.227 -61.905  1.00  0.00     0.274 HD
ENDBRANCH  20  23
ENDBRANCH   2  17
TORSDOF 4
ENDMDL
MODEL 2
REMARK VINA RESULT:      -7.9      1.546      2.085
REMARK  4 active torsions:
REMARK  status: ('A' for Active; 'I' for Inactive)
REMARK    1  A    between atoms: C_4  and  C_5 
REMARK    2  A    between atoms: C_8  and  C_9 
REMARK       I    between atoms: C_9  and  N_10 
REMARK    3  A    between atoms: N_10  and  C_11 
REMARK    4  A    between atoms: C_14  and  N_15 
ROOT
HETATM    1  C   UNL     1     -43.140  56.948 -56.952  1.00  0.00     0.252 C 
HETATM    2  N   UNL     1     -43.903  56.510 -58.021  1.00  0.00    -0.352 N 
HETATM    3  O   UNL     1     -42.910  58.130 -56.726  1.00  0.00    -0.268 OA
HETATM    4  H   UNL     1     -43.820  55.520 -58.215  1.00  0.00     0.163 HD
ENDROOT
BRANCH   1   5
HETATM    5  C   UNL     1     -42.566  55.907 -56.043  1.00  0.00     0.032 A 
HETATM    6  C   UNL     1     -43.036  54.590 -55.982  1.00  0.00     0.018 A 
HETATM    7  C   UNL     1     -42.421  53.663 -55.128  1.00  0.00     0.015 A 
HETATM    8  C   UNL     1     -41.341  54.029 -54.309  1.00  0.00    -0.002 A 
HETATM    9  C   UNL     1     -40.899  55.357 -54.356  1.00  0.00     0.015 A 
HETATM   10  C   UNL     1     -41.504  56.284 -55.212  1.00  0.00     0.018 A 
BRANCH   8  11
HETATM   11  C   UNL     1     -40.688  53.062 -53.432  1.00  0.00     0.086 A 
HETATM   12  O   UNL     1     -40.473  51.815 -53.954  1.00  0.00    -0.315 OA
HETATM   13  C   UNL     1     -39.838  51.075 -53.003  1.00  0.00     0.050 A 
HETATM   14  C   UNL     1     -39.493  49.685 -53.363  1.00  0.00     0.076 C 
HETATM   15  C   UNL     1     -39.648  51.827 -51.867  1.00  0.00     0.035 A 
HETATM   16  C   UNL     1     -40.192  53.106 -52.142  1.00  0.00     0.040 A 
ENDBRANCH   8  11
ENDBRANCH   1   5
BRANCH   2  17
HETATM   17  C   UNL     1     -44.262  57.311 -59.195  1.00  0.00     0.084 C 
HETATM   18  C   UNL     1     -44.240  56.403 -60.438  1.00  0.00     0.027 C 
HETATM   19  C   UNL     1     -45.428  55.432 -60.463  1.00  0.00     0.035 C 
HETATM   20  C   UNL     1     -46.786  56.116 -60.297  1.00  0.00     0.183 C 
HETATM   21  C   UNL     1     -46.811  57.123 -59.150  1.00  0.00     0.035 C 
HETATM   22  C   UNL     1     -45.604  58.063 -59.163  1.00  0.00     0.027 C 
BRANCH  20  23
HETATM   23  N   UNL     1     -47.140  56.822 -61.566  1.00  0.00    -0.075 N 
HETATM   24  H   UNL     1     -47.131  56.206 -62.387  1.00  0.00     0.274 HD
HETATM   25  H   UNL     1     -48.074  57.250 -61.507  1.00  0.00     0.274 HD
HETATM   26  H   UNL     1     -46.476  57.586 -61.753  1.00  0.00     0.274 HD
ENDBRANCH  20  23
ENDBRANCH   2  17
TORSDOF 4
ENDMDL
MODEL 3
REMARK VINA RESULT:      -7.5      2.003      2.582
REMARK  4 active torsions:
REMARK  status: ('A' for Active; 'I' for Inactive)
REMARK    1  A    between atoms: C_4  and  C_5 
REMARK    2  A    between atoms: C_8  and  C_9 
REMARK       I    between atoms: C_9  and  N_10 
REMARK    3  A    between atoms: N_10  and  C_11 
REMARK    4  A    between atoms: C_14  and  N_15 
ROOT
HETATM    1  C   UNL     1     -43.234  57.193 -56.984  1.00  0.00     0.252 C 
HETATM    2  N   UNL     1     -43.762  56.555 -58.093  1.00  0.00    -0.352 N 
HETATM    3  O   UNL     1     -43.282  58.406 -56.816  1.00  0.00    -0.268 OA
HETATM    4  H   UNL     1     -43.453  55.598 -58.211  1.00  0.00     0.163 HD
ENDROOT
BRANCH   1   5
HETATM    5  C   UNL     1     -42.564  56.340 -55.953  1.00  0.00     0.032 A 
HETATM    6  C   UNL     1     -41.750  56.853 -54.936  1.00  0.00     0.018 A 
HETATM    7  C   UNL     1     -41.184  55.990 -53.986  1.00  0.00     0.015 A 
HETATM    8  C   UNL     1     -41.402  54.604 -54.038  1.00  0.00    -0.002 A 
HETATM    9  C   UNL     1     -42.192  54.099 -55.078  1.00  0.00     0.015 A 
HETATM   10  C   UNL     1     -42.766  54.956 -56.023  1.00  0.00     0.018 A 
BRANCH   8  11
HETATM   11  C   UNL     1     -40.829  53.705 -53.039  1.00  0.00     0.086 A 
HETATM   12  O   UNL     1     -40.871  54.132 -51.740  1.00  0.00    -0.315 OA
HETATM   13  C   UNL     1     -40.318  53.156 -50.968  1.00  0.00     0.050 A 
HETATM   14  C   UNL     1     -40.272  53.404 -49.514  1.00  0.00     0.076 C 
HETATM   15  C   UNL     1     -39.909  52.104 -51.756  1.00  0.00     0.035 A 
HETATM   16  C   UNL     1     -40.239  52.455 -53.088  1.00  0.00     0.040 A 
ENDBRANCH   8  11
ENDBRANCH   1   5
BRANCH   2  17
HETATM   17  C   UNL     1     -44.144  57.208 -59.349  1.00  0.00     0.084 C 
HETATM   18  C   UNL     1     -44.172  56.150 -60.467  1.00  0.00     0.027 C 
HETATM   19  C   UNL     1     -45.373  55.205 -60.336  1.00  0.00     0.035 C 
HETATM   20  C   UNL     1     -46.716  55.930 -60.221  1.00  0.00     0.183 C 
HETATM   21  C   UNL     1     -46.693  57.073 -59.211  1.00  0.00     0.035 C 
HETATM   22  C   UNL     1     -45.473  57.982 -59.375  1.00  0.00     0.027 C 
BRANCH  20  23
HETATM   23  N   UNL     1     -47.096  56.476 -61.559  1.00  0.00    -0.075 N 
HETATM   24  H   UNL     1     -46.399  56.282 -62.288  1.00  0.00     0.274 HD
HETATM   25  H   UNL     1     -47.996  56.091 -61.878  1.00  0.00     0.274 HD
HETATM   26  H   UNL     1     -47.211  57.498 -61.514  1.00  0.00     0.274 HD
ENDBRANCH  20  23
ENDBRANCH   2  17
TORSDOF 4
ENDMDL
MODEL 4
REMARK VINA RESULT:      -7.5      3.545      4.721
REMARK  4 active torsions:
REMARK  status: ('A' for Active; 'I' for Inactive)
REMARK    1  A    between atoms: C_4  and  C_5 
REMARK    2  A    between atoms: C_8  and  C_9 
REMARK       I    between atoms: C_9  and  N_10 
REMARK    3  A    between atoms: N_10  and  C_11 
REMARK    4  A    between atoms: C_14  and  N_15 
ROOT
HETATM    1  C   UNL     1     -41.965  57.394 -54.498  1.00  0.00     0.252 C 
HETATM    2  N   UNL     1     -42.219  58.244 -53.435  1.00  0.00    -0.352 N 
HETATM    3  O   UNL     1     -42.115  57.716 -55.671  1.00  0.00    -0.268 OA
HETATM    4  H   UNL     1     -42.275  57.783 -52.535  1.00  0.00     0.163 HD
ENDROOT
BRANCH   1   5
HETATM    5  C   UNL     1     -41.497  56.010 -54.176  1.00  0.00     0.032 A 
HETATM    6  C   UNL     1     -41.535  55.460 -52.889  1.00  0.00     0.018 A 
HETATM    7  C   UNL     1     -41.110  54.141 -52.675  1.00  0.00     0.015 A 
HETATM    8  C   UNL     1     -40.623  53.351 -53.728  1.00  0.00    -0.002 A 
HETATM    9  C   UNL     1     -40.560  53.922 -55.005  1.00  0.00     0.015 A 
HETATM   10  C   UNL     1     -40.991  55.234 -55.227  1.00  0.00     0.018 A 
BRANCH   8  11
HETATM   11  C   UNL     1     -40.195  51.972 -53.511  1.00  0.00     0.086 A 
HETATM   12  O   UNL     1     -39.965  51.604 -52.213  1.00  0.00    -0.315 OA
HETATM   13  C   UNL     1     -39.604  50.290 -52.216  1.00  0.00     0.050 A 
HETATM   14  C   UNL     1     -39.319  49.675 -50.905  1.00  0.00     0.076 C 
HETATM   15  C   UNL     1     -39.589  49.807 -53.505  1.00  0.00     0.035 A 
HETATM   16  C   UNL     1     -39.971  50.886 -54.338  1.00  0.00     0.040 A 
ENDBRANCH   8  11
ENDBRANCH   1   5
BRANCH   2  17
HETATM   17  C   UNL     1     -42.991  59.489 -53.506  1.00  0.00     0.084 C 
HETATM   18  C   UNL     1     -44.468  59.172 -53.210  1.00  0.00     0.027 C 
HETATM   19  C   UNL     1     -44.702  58.852 -51.728  1.00  0.00     0.035 C 
HETATM   20  C   UNL     1     -44.160  59.919 -50.775  1.00  0.00     0.183 C 
HETATM   21  C   UNL     1     -42.737  60.354 -51.115  1.00  0.00     0.035 C 
HETATM   22  C   UNL     1     -42.550  60.654 -52.603  1.00  0.00     0.027 C 
BRANCH  20  23
HETATM   23  N   UNL     1     -45.053  61.116 -50.816  1.00  0.00    -0.075 N 
HETATM   24  H   UNL     1     -45.707  61.159 -50.026  1.00  0.00     0.274 HD
HETATM   25  H   UNL     1     -44.508  61.989 -50.818  1.00  0.00     0.274 HD
HETATM   26  H   UNL     1     -45.617  61.118 -51.677  1.00  0.00     0.274 HD
ENDBRANCH  20  23
ENDBRANCH   2  17
TORSDOF 4
ENDMDL
MODEL 5
REMARK VINA RESULT:      -7.2     14.274     17.382
REMARK  4 active torsions:
REMARK  status: ('A' for Active; 'I' for Inactive)
REMARK    1  A    between atoms: C_4  and  C_5 
REMARK    2  A    between atoms: C_8  and  C_9 
REMARK       I    between atoms: C_9  and  N_10 
REMARK    3  A    between atoms: N_10  and  C_11 
REMARK    4  A    between atoms: C_14  and  N_15 
ROOT
HETATM    1  C   UNL     1     -35.042  41.920 -53.139  1.00  0.00     0.252 C 
HETATM    2  N   UNL     1     -33.958  41.152 -52.748  1.00  0.00    -0.352 N 
HETATM    3  O   UNL     1     -35.688  42.618 -52.366  1.00  0.00    -0.268 OA
HETATM    4  H   UNL     1     -33.669  40.460 -53.429  1.00  0.00     0.163 HD
ENDROOT
BRANCH   1   5
HETATM    5  C   UNL     1     -35.436  41.871 -54.581  1.00  0.00     0.032 A 
HETATM    6  C   UNL     1     -34.515  41.868 -55.635  1.00  0.00     0.018 A 
HETATM    7  C   UNL     1     -34.964  41.785 -56.961  1.00  0.00     0.015 A 
HETATM    8  C   UNL     1     -36.333  41.722 -57.266  1.00  0.00    -0.002 A 
HETATM    9  C   UNL     1     -37.247  41.758 -56.205  1.00  0.00     0.015 A 
HETATM   10  C   UNL     1     -36.804  41.831 -54.879  1.00  0.00     0.018 A 
BRANCH   8  11
HETATM   11  C   UNL     1     -36.803  41.619 -58.645  1.00  0.00     0.086 A 
HETATM   12  O   UNL     1     -36.860  40.359 -59.175  1.00  0.00    -0.315 OA
HETATM   13  C   UNL     1     -37.341  40.469 -60.445  1.00  0.00     0.050 A 
HETATM   14  C   UNL     1     -37.499  39.214 -61.207  1.00  0.00     0.076 C 
HETATM   15  C   UNL     1     -37.587  41.789 -60.745  1.00  0.00     0.035 A 
HETATM   16  C   UNL     1     -37.243  42.530 -59.587  1.00  0.00     0.040 A 
ENDBRANCH   8  11
ENDBRANCH   1   5
BRANCH   2  17
HETATM   17  C   UNL     1     -33.623  40.791 -51.367  1.00  0.00     0.084 C 
HETATM   18  C   UNL     1     -34.631  39.737 -50.873  1.00  0.00     0.027 C 
HETATM   19  C   UNL     1     -34.394  38.367 -51.522  1.00  0.00     0.035 C 
HETATM   20  C   UNL     1     -32.955  37.865 -51.392  1.00  0.00     0.183 C 
HETATM   21  C   UNL     1     -31.919  38.926 -51.752  1.00  0.00     0.035 C 
HETATM   22  C   UNL     1     -32.200  40.276 -51.089  1.00  0.00     0.027 C 
BRANCH  20  23
HETATM   23  N   UNL     1     -32.715  37.413 -49.988  1.00  0.00    -0.075 N 
HETATM   24  H   UNL     1     -33.581  37.204 -49.478  1.00  0.00     0.274 HD
HETATM   25  H   UNL     1     -32.127  36.570 -49.963  1.00  0.00     0.274 HD
HETATM   26  H   UNL     1     -32.217  38.138 -49.454  1.00  0.00     0.274 HD
ENDBRANCH  20  23
ENDBRANCH   2  17
TORSDOF 4
ENDMDL
MODEL 6
REMARK VINA RESULT:      -7.2      4.350      5.477
REMARK  4 active torsions:
REMARK  status: ('A' for Active; 'I' for Inactive)
REMARK    1  A    between atoms: C_4  and  C_5 
REMARK    2  A    between atoms: C_8  and  C_9 
REMARK       I    between atoms: C_9  and  N_10 
REMARK    3  A    between atoms: N_10  and  C_11 
REMARK    4  A    between atoms: C_14  and  N_15 
ROOT
HETATM    1  C   UNL     1     -41.841  58.395 -53.462  1.00  0.00     0.252 C 
HETATM    2  N   UNL     1     -42.809  58.850 -52.583  1.00  0.00    -0.352 N 
HETATM    3  O   UNL     1     -41.316  59.103 -54.314  1.00  0.00    -0.268 OA
HETATM    4  H   UNL     1     -43.311  58.117 -52.098  1.00  0.00     0.163 HD
ENDROOT
BRANCH   1   5
HETATM    5  C   UNL     1     -41.437  56.958 -53.358  1.00  0.00     0.032 A 
HETATM    6  C   UNL     1     -40.931  56.218 -54.433  1.00  0.00     0.018 A 
HETATM    7  C   UNL     1     -40.541  54.883 -54.245  1.00  0.00     0.015 A 
HETATM    8  C   UNL     1     -40.664  54.256 -52.995  1.00  0.00    -0.002 A 
HETATM    9  C   UNL     1     -41.201  54.997 -51.936  1.00  0.00     0.015 A 
HETATM   10  C   UNL     1     -41.583  56.331 -52.114  1.00  0.00     0.018 A 
BRANCH   8  11
HETATM   11  C   UNL     1     -40.243  52.872 -52.794  1.00  0.00     0.086 A 
HETATM   12  O   UNL     1     -40.223  52.074 -53.905  1.00  0.00    -0.315 OA
HETATM   13  C   UNL     1     -39.784  50.843 -53.520  1.00  0.00     0.050 A 
HETATM   14  C   UNL     1     -39.671  49.817 -54.575  1.00  0.00     0.076 C 
HETATM   15  C   UNL     1     -39.530  50.834 -52.167  1.00  0.00     0.035 A 
HETATM   16  C   UNL     1     -39.822  52.138 -51.699  1.00  0.00     0.040 A 
ENDBRANCH   8  11
ENDBRANCH   1   5
BRANCH   2  17
HETATM   17  C   UNL     1     -43.578  60.090 -52.731  1.00  0.00     0.084 C 
HETATM   18  C   UNL     1     -45.078  59.744 -52.731  1.00  0.00     0.027 C 
HETATM   19  C   UNL     1     -45.575  59.341 -51.336  1.00  0.00     0.035 C 
HETATM   20  C   UNL     1     -45.238  60.359 -50.245  1.00  0.00     0.183 C 
HETATM   21  C   UNL     1     -43.786  60.825 -50.292  1.00  0.00     0.035 C 
HETATM   22  C   UNL     1     -43.333  61.208 -51.703  1.00  0.00     0.027 C 
BRANCH  20  23
HETATM   23  N   UNL     1     -46.132  61.549 -50.389  1.00  0.00    -0.075 N 
HETATM   24  H   UNL     1     -46.646  61.563 -51.277  1.00  0.00     0.274 HD
HETATM   25  H   UNL     1     -46.823  61.590 -49.628  1.00  0.00     0.274 HD
HETATM   26  H   UNL     1     -45.586  62.420 -50.341  1.00  0.00     0.274 HD
ENDBRANCH  20  23
ENDBRANCH   2  17
TORSDOF 4
ENDMDL
MODEL 7
REMARK VINA RESULT:      -7.2     14.083     16.575
REMARK  4 active torsions:
REMARK  status: ('A' for Active; 'I' for Inactive)
REMARK    1  A    between atoms: C_4  and  C_5 
REMARK    2  A    between atoms: C_8  and  C_9 
REMARK       I    between atoms: C_9  and  N_10 
REMARK    3  A    between atoms: N_10  and  C_11 
REMARK    4  A    between atoms: C_14  and  N_15 
ROOT
HETATM    1  C   UNL     1     -35.319  41.777 -53.169  1.00  0.00     0.252 C 
HETATM    2  N   UNL     1     -34.957  41.513 -54.478  1.00  0.00    -0.352 N 
HETATM    3  O   UNL     1     -36.270  42.487 -52.861  1.00  0.00    -0.268 OA
HETATM    4  H   UNL     1     -34.033  41.111 -54.584  1.00  0.00     0.163 HD
ENDROOT
BRANCH   1   5
HETATM    5  C   UNL     1     -34.486  41.165 -52.087  1.00  0.00     0.032 A 
HETATM    6  C   UNL     1     -33.094  41.041 -52.160  1.00  0.00     0.018 A 
HETATM    7  C   UNL     1     -32.380  40.486 -51.087  1.00  0.00     0.015 A 
HETATM    8  C   UNL     1     -33.035  40.031 -49.932  1.00  0.00    -0.002 A 
HETATM    9  C   UNL     1     -34.431  40.132 -49.883  1.00  0.00     0.015 A 
HETATM   10  C   UNL     1     -35.148  40.692 -50.947  1.00  0.00     0.018 A 
BRANCH   8  11
HETATM   11  C   UNL     1     -32.293  39.469 -48.807  1.00  0.00     0.086 A 
HETATM   12  O   UNL     1     -31.447  40.320 -48.151  1.00  0.00    -0.315 OA
HETATM   13  C   UNL     1     -30.874  39.624 -47.130  1.00  0.00     0.050 A 
HETATM   14  C   UNL     1     -29.924  40.361 -46.273  1.00  0.00     0.076 C 
HETATM   15  C   UNL     1     -31.334  38.327 -47.124  1.00  0.00     0.035 A 
HETATM   16  C   UNL     1     -32.249  38.226 -48.201  1.00  0.00     0.040 A 
ENDBRANCH   8  11
ENDBRANCH   1   5
BRANCH   2  17
HETATM   17  C   UNL     1     -35.407  42.264 -55.654  1.00  0.00     0.084 C 
HETATM   18  C   UNL     1     -34.659  41.739 -56.893  1.00  0.00     0.027 C 
HETATM   19  C   UNL     1     -35.152  40.349 -57.317  1.00  0.00     0.035 C 
HETATM   20  C   UNL     1     -36.669  40.265 -57.505  1.00  0.00     0.183 C 
HETATM   21  C   UNL     1     -37.448  40.893 -56.354  1.00  0.00     0.035 C 
HETATM   22  C   UNL     1     -36.915  42.273 -55.961  1.00  0.00     0.027 C 
BRANCH  20  23
HETATM   23  N   UNL     1     -37.046  40.956 -58.776  1.00  0.00    -0.075 N 
HETATM   24  H   UNL     1     -37.881  40.557 -59.220  1.00  0.00     0.274 HD
HETATM   25  H   UNL     1     -37.225  41.956 -58.617  1.00  0.00     0.274 HD
HETATM   26  H   UNL     1     -36.280  40.897 -59.461  1.00  0.00     0.274 HD
ENDBRANCH  20  23
ENDBRANCH   2  17
TORSDOF 4
ENDMDL
MODEL 8
REMARK VINA RESULT:      -6.8      2.179      2.817
REMARK  4 active torsions:
REMARK  status: ('A' for Active; 'I' for Inactive)
REMARK    1  A    between atoms: C_4  and  C_5 
REMARK    2  A    between atoms: C_8  and  C_9 
REMARK       I    between atoms: C_9  and  N_10 
REMARK    3  A    between atoms: N_10  and  C_11 
REMARK    4  A    between atoms: C_14  and  N_15 
ROOT
HETATM    1  C   UNL     1     -41.783  58.410 -53.974  1.00  0.00     0.252 C 
HETATM    2  N   UNL     1     -42.719  58.688 -54.955  1.00  0.00    -0.352 N 
HETATM    3  O   UNL     1     -41.258  59.271 -53.278  1.00  0.00    -0.268 OA
HETATM    4  H   UNL     1     -42.892  57.923 -55.596  1.00  0.00     0.163 HD
ENDROOT
BRANCH   1   5
HETATM    5  C   UNL     1     -41.397  56.978 -53.776  1.00  0.00     0.032 A 
HETATM    6  C   UNL     1     -40.970  56.142 -54.815  1.00  0.00     0.018 A 
HETATM    7  C   UNL     1     -40.591  54.819 -54.542  1.00  0.00     0.015 A 
HETATM    8  C   UNL     1     -40.646  54.297 -53.240  1.00  0.00    -0.002 A 
HETATM    9  C   UNL     1     -41.104  55.134 -52.214  1.00  0.00     0.015 A 
HETATM   10  C   UNL     1     -41.474  56.457 -52.478  1.00  0.00     0.018 A 
BRANCH   8  11
HETATM   11  C   UNL     1     -40.236  52.926 -52.951  1.00  0.00     0.086 A 
HETATM   12  O   UNL     1     -40.184  52.069 -54.017  1.00  0.00    -0.315 OA
HETATM   13  C   UNL     1     -39.761  50.861 -53.552  1.00  0.00     0.050 A 
HETATM   14  C   UNL     1     -39.619  49.779 -54.546  1.00  0.00     0.076 C 
HETATM   15  C   UNL     1     -39.548  50.924 -52.194  1.00  0.00     0.035 A 
HETATM   16  C   UNL     1     -39.851  52.252 -51.806  1.00  0.00     0.040 A 
ENDBRANCH   8  11
ENDBRANCH   1   5
BRANCH   2  17
HETATM   17  C   UNL     1     -42.978  60.010 -55.534  1.00  0.00     0.084 C 
HETATM   18  C   UNL     1     -41.889  60.313 -56.580  1.00  0.00     0.027 C 
HETATM   19  C   UNL     1     -42.065  59.476 -57.853  1.00  0.00     0.035 C 
HETATM   20  C   UNL     1     -43.465  59.571 -58.464  1.00  0.00     0.183 C 
HETATM   21  C   UNL     1     -44.577  59.403 -57.433  1.00  0.00     0.035 C 
HETATM   22  C   UNL     1     -44.355  60.249 -56.178  1.00  0.00     0.027 C 
BRANCH  20  23
HETATM   23  N   UNL     1     -43.623  60.899 -59.130  1.00  0.00    -0.075 N 
HETATM   24  H   UNL     1     -43.823  61.661 -58.471  1.00  0.00     0.274 HD
HETATM   25  H   UNL     1     -42.776  61.156 -59.655  1.00  0.00     0.274 HD
HETATM   26  H   UNL     1     -44.396  60.875 -59.809  1.00  0.00     0.274 HD
ENDBRANCH  20  23
ENDBRANCH   2  17
TORSDOF 4
ENDMDL
MODEL 9
REMARK VINA RESULT:      -6.7      4.395      5.532
REMARK  4 active torsions:
REMARK  status: ('A' for Active; 'I' for Inactive)
REMARK    1  A    between atoms: C_4  and  C_5 
REMARK    2  A    between atoms: C_8  and  C_9 
REMARK       I    between atoms: C_9  and  N_10 
REMARK    3  A    between atoms: N_10  and  C_11 
REMARK    4  A    between atoms: C_14  and  N_15 
ROOT
HETATM    1  C   UNL     1     -44.356  57.375 -53.469  1.00  0.00     0.252 C 
HETATM    2  N   UNL     1     -44.288  58.341 -52.480  1.00  0.00    -0.352 N 
HETATM    3  O   UNL     1     -45.140  57.426 -54.410  1.00  0.00    -0.268 OA
HETATM    4  H   UNL     1     -43.768  58.061 -51.658  1.00  0.00     0.163 HD
ENDROOT
BRANCH   1   5
HETATM    5  C   UNL     1     -43.425  56.209 -53.358  1.00  0.00     0.032 A 
HETATM    6  C   UNL     1     -42.623  55.757 -54.413  1.00  0.00     0.018 A 
HETATM    7  C   UNL     1     -41.749  54.678 -54.219  1.00  0.00     0.015 A 
HETATM    8  C   UNL     1     -41.667  54.017 -52.983  1.00  0.00    -0.002 A 
HETATM    9  C   UNL     1     -42.497  54.458 -51.944  1.00  0.00     0.015 A 
HETATM   10  C   UNL     1     -43.365  55.540 -52.129  1.00  0.00     0.018 A 
BRANCH   8  11
HETATM   11  C   UNL     1     -40.746  52.904 -52.773  1.00  0.00     0.086 A 
HETATM   12  O   UNL     1     -40.655  51.990 -53.788  1.00  0.00    -0.315 OA
HETATM   13  C   UNL     1     -39.736  51.055 -53.417  1.00  0.00     0.050 A 
HETATM   14  C   UNL     1     -39.468  49.969 -54.380  1.00  0.00     0.076 C 
HETATM   15  C   UNL     1     -39.239  51.349 -52.169  1.00  0.00     0.035 A 
HETATM   16  C   UNL     1     -39.885  52.539 -51.754  1.00  0.00     0.040 A 
ENDBRANCH   8  11
ENDBRANCH   1   5
BRANCH   2  17
HETATM   17  C   UNL     1     -45.309  59.358 -52.211  1.00  0.00     0.084 C 
HETATM   18  C   UNL     1     -45.198  59.793 -50.738  1.00  0.00     0.027 C 
HETATM   19  C   UNL     1     -43.955  60.656 -50.485  1.00  0.00     0.035 C 
HETATM   20  C   UNL     1     -43.835  61.854 -51.430  1.00  0.00     0.183 C 
HETATM   21  C   UNL     1     -44.067  61.486 -52.892  1.00  0.00     0.035 C 
HETATM   22  C   UNL     1     -45.311  60.618 -53.094  1.00  0.00     0.027 C 
BRANCH  20  23
HETATM   23  N   UNL     1     -44.830  62.896 -51.032  1.00  0.00    -0.075 N 
HETATM   24  H   UNL     1     -45.456  63.170 -51.797  1.00  0.00     0.274 HD
HETATM   25  H   UNL     1     -45.416  62.573 -50.250  1.00  0.00     0.274 HD
HETATM   26  H   UNL     1     -44.352  63.749 -50.711  1.00  0.00     0.274 HD
ENDBRANCH  20  23
ENDBRANCH   2  17
TORSDOF 4
ENDMDL
MODEL 10
REMARK VINA RESULT:      -6.7      2.257      3.138
REMARK  4 active torsions:
REMARK  status: ('A' for Active; 'I' for Inactive)
REMARK    1  A    between atoms: C_4  and  C_5 
REMARK    2  A    between atoms: C_8  and  C_9 
REMARK       I    between atoms: C_9  and  N_10 
REMARK    3  A    between atoms: N_10  and  C_11 
REMARK    4  A    between atoms: C_14  and  N_15 
ROOT
HETATM    1  C   UNL     1     -44.153  57.105 -55.632  1.00  0.00     0.252 C 
HETATM    2  N   UNL     1     -43.800  56.883 -56.952  1.00  0.00    -0.352 N 
HETATM    3  O   UNL     1     -45.065  57.849 -55.293  1.00  0.00    -0.268 OA
HETATM    4  H   UNL     1     -42.899  56.436 -57.075  1.00  0.00     0.163 HD
ENDROOT
BRANCH   1   5
HETATM    5  C   UNL     1     -43.358  56.398 -54.579  1.00  0.00     0.032 A 
HETATM    6  C   UNL     1     -42.294  56.988 -53.887  1.00  0.00     0.018 A 
HETATM    7  C   UNL     1     -41.621  56.269 -52.888  1.00  0.00     0.015 A 
HETATM    8  C   UNL     1     -41.980  54.950 -52.570  1.00  0.00    -0.002 A 
HETATM    9  C   UNL     1     -43.026  54.359 -53.290  1.00  0.00     0.015 A 
HETATM   10  C   UNL     1     -43.706  55.074 -54.282  1.00  0.00     0.018 A 
BRANCH   8  11
HETATM   11  C   UNL     1     -41.292  54.206 -51.518  1.00  0.00     0.086 A 
HETATM   12  O   UNL     1     -40.964  52.909 -51.806  1.00  0.00    -0.315 OA
HETATM   13  C   UNL     1     -40.314  52.400 -50.722  1.00  0.00     0.050 A 
HETATM   14  C   UNL     1     -39.852  51.001 -50.821  1.00  0.00     0.076 C 
HETATM   15  C   UNL     1     -40.227  53.351 -49.732  1.00  0.00     0.035 A 
HETATM   16  C   UNL     1     -40.853  54.514 -50.243  1.00  0.00     0.040 A 
ENDBRANCH   8  11
ENDBRANCH   1   5
BRANCH   2  17
HETATM   17  C   UNL     1     -44.204  57.711 -58.092  1.00  0.00     0.084 C 
HETATM   18  C   UNL     1     -43.364  59.002 -58.088  1.00  0.00     0.027 C 
HETATM   19  C   UNL     1     -41.911  58.743 -58.508  1.00  0.00     0.035 C 
HETATM   20  C   UNL     1     -41.778  57.996 -59.837  1.00  0.00     0.183 C 
HETATM   21  C   UNL     1     -42.694  56.779 -59.931  1.00  0.00     0.035 C 
HETATM   22  C   UNL     1     -44.128  57.082 -59.494  1.00  0.00     0.027 C 
BRANCH  20  23
HETATM   23  N   UNL     1     -42.099  58.928 -60.960  1.00  0.00    -0.075 N 
HETATM   24  H   UNL     1     -42.234  59.898 -60.654  1.00  0.00     0.274 HD
HETATM   25  H   UNL     1     -41.355  58.926 -61.671  1.00  0.00     0.274 HD
HETATM   26  H   UNL     1     -42.964  58.638 -61.437  1.00  0.00     0.274 HD
ENDBRANCH  20  23
ENDBRANCH   2  17
TORSDOF 4
ENDMDL
