MODEL 1
REMARK VINA RESULT:      -8.1      0.000      0.000
REMARK  6 active torsions:
REMARK  status: ('A' for Active; 'I' for Inactive)
REMARK    1  A    between atoms: C_5  and  N_6 
REMARK       I    between atoms: N_6  and  C_7 
REMARK       I    between atoms: C_7  and  N_8 
REMARK    2  A    between atoms: N_8  and  C_9 
REMARK    3  A    between atoms: C_9  and  C_10 
REMARK       I    between atoms: C_10  and  N_11 
REMARK    4  A    between atoms: N_11  and  N_12 
REMARK       I    between atoms: N_12  and  C_13 
REMARK       I    between atoms: C_13  and  N_14 
REMARK    5  A    between atoms: N_14  and  C_15 
REMARK    6  A    between atoms: C_17  and  C_18 
ROOT
HETATM    1  C   UNL     1     -43.068  57.507 -57.896  1.00  0.00     0.253 C 
HETATM    2  N   UNL     1     -42.476  56.534 -57.113  1.00  0.00    -0.265 N 
HETATM    3  O   UNL     1     -44.001  57.267 -58.663  1.00  0.00    -0.270 OA
HETATM    4  H   UNL     1     -41.863  56.826 -56.349  1.00  0.00     0.190 HD
ENDROOT
BRANCH   2   5
HETATM    5  N   UNL     1     -43.107  55.290 -57.010  1.00  0.00    -0.249 N 
HETATM    6  C   UNL     1     -43.066  54.521 -55.864  1.00  0.00     0.339 C 
HETATM    7  N   UNL     1     -42.505  55.167 -54.787  1.00  0.00    -0.308 N 
HETATM    8  O   UNL     1     -43.518  53.382 -55.882  1.00  0.00    -0.245 OA
HETATM    9  H   UNL     1     -42.073  56.050 -55.020  1.00  0.00     0.170 HD
HETATM   10  H   UNL     1     -43.329  54.805 -57.877  1.00  0.00     0.192 HD
BRANCH   7  11
HETATM   11  C   UNL     1     -42.372  54.707 -53.466  1.00  0.00     0.037 A 
HETATM   12  C   UNL     1     -41.250  54.026 -52.986  1.00  0.00     0.045 A 
HETATM   13  C   UNL     1     -41.189  53.580 -51.654  1.00  0.00     0.050 A 
HETATM   14  C   UNL     1     -42.269  53.840 -50.798  1.00  0.00     0.016 A 
HETATM   15  C   UNL     1     -43.392  54.516 -51.268  1.00  0.00     0.003 A 
HETATM   16  C   UNL     1     -43.443  54.944 -52.596  1.00  0.00     0.029 A 
BRANCH  13  17
HETATM   17  C   UNL     1     -39.969  52.860 -51.134  1.00  0.00     0.417 C 
HETATM   18  F   UNL     1     -40.244  51.915 -50.193  1.00  0.00    -0.166 F 
HETATM   19  F   UNL     1     -39.286  52.219 -52.123  1.00  0.00    -0.166 F 
HETATM   20  F   UNL     1     -39.071  53.707 -50.554  1.00  0.00    -0.166 F 
ENDBRANCH  13  17
ENDBRANCH   7  11
ENDBRANCH   2   5
BRANCH   1  21
HETATM   21  C   UNL     1     -42.358  58.865 -57.873  1.00  0.00     0.228 C 
BRANCH  21  22
HETATM   22  N   UNL     1     -42.010  59.377 -56.557  1.00  0.00    -0.334 N 
HETATM   23  C   UNL     1     -42.418  60.581 -56.089  1.00  0.00     0.322 C 
HETATM   24  N   UNL     1     -42.311  60.812 -54.755  1.00  0.00    -0.293 N 
HETATM   25  O   UNL     1     -42.819  61.470 -56.841  1.00  0.00    -0.247 OA
HETATM   26  H   UNL     1     -42.573  61.750 -54.489  1.00  0.00     0.172 HD
HETATM   27  H   UNL     1     -41.831  58.694 -55.822  1.00  0.00     0.164 HD
BRANCH  24  28
HETATM   28  C   UNL     1     -41.949  59.926 -53.733  1.00  0.00     0.131 A 
HETATM   29  N   UNL     1     -40.679  59.473 -53.652  1.00  0.00    -0.243 NA
HETATM   30  C   UNL     1     -40.392  58.602 -52.654  1.00  0.00     0.125 A 
HETATM   31  C   UNL     1     -41.319  58.139 -51.729  1.00  0.00    -0.044 A 
HETATM   32  C   UNL     1     -40.922  57.199 -50.636  1.00  0.00     0.049 C 
HETATM   33  C   UNL     1     -42.618  58.633 -51.827  1.00  0.00     0.012 A 
HETATM   34  C   UNL     1     -42.940  59.532 -52.842  1.00  0.00     0.051 A 
ENDBRANCH  24  28
ENDBRANCH  21  22
ENDBRANCH   1  21
TORSDOF 6
ENDMDL
MODEL 2
REMARK VINA RESULT:      -8.1      2.978      4.701
REMARK  6 active torsions:
REMARK  status: ('A' for Active; 'I' for Inactive)
REMARK    1  A    between atoms: C_5  and  N_6 
REMARK       I    between atoms: N_6  and  C_7 
REMARK       I    between atoms: C_7  and  N_8 
REMARK    2  A    between atoms: N_8  and  C_9 
REMARK    3  A    between atoms: C_9  and  C_10 
REMARK       I    between atoms: C_10  and  N_11 
REMARK    4  A    between atoms: N_11  and  N_12 
REMARK       I    between atoms: N_12  and  C_13 
REMARK       I    between atoms: C_13  and  N_14 
REMARK    5  A    between atoms: N_14  and  C_15 
REMARK    6  A    between atoms: C_17  and  C_18 
ROOT
HETATM    1  C   UNL     1     -44.988  58.803 -50.976  1.00  0.00     0.253 C 
HETATM    2  N   UNL     1     -44.389  57.607 -51.325  1.00  0.00    -0.265 N 
HETATM    3  O   UNL     1     -45.963  58.864 -50.226  1.00  0.00    -0.270 OA
HETATM    4  H   UNL     1     -43.467  57.631 -51.767  1.00  0.00     0.190 HD
ENDROOT
BRANCH   2   5
HETATM    5  N   UNL     1     -44.749  56.454 -50.621  1.00  0.00    -0.249 N 
HETATM    6  C   UNL     1     -44.015  55.286 -50.669  1.00  0.00     0.339 C 
HETATM    7  N   UNL     1     -42.812  55.418 -51.322  1.00  0.00    -0.308 N 
HETATM    8  O   UNL     1     -44.456  54.270 -50.143  1.00  0.00    -0.245 OA
HETATM    9  H   UNL     1     -42.700  56.302 -51.799  1.00  0.00     0.170 HD
HETATM   10  H   UNL     1     -45.720  56.370 -50.326  1.00  0.00     0.192 HD
BRANCH   7  11
HETATM   11  C   UNL     1     -41.800  54.458 -51.490  1.00  0.00     0.037 A 
HETATM   12  C   UNL     1     -41.547  53.793 -52.693  1.00  0.00     0.045 A 
HETATM   13  C   UNL     1     -40.525  52.830 -52.786  1.00  0.00     0.050 A 
HETATM   14  C   UNL     1     -39.745  52.552 -51.655  1.00  0.00     0.016 A 
HETATM   15  C   UNL     1     -39.991  53.209 -50.451  1.00  0.00     0.003 A 
HETATM   16  C   UNL     1     -41.016  54.154 -50.370  1.00  0.00     0.029 A 
BRANCH  13  17
HETATM   17  C   UNL     1     -40.244  52.126 -54.090  1.00  0.00     0.417 C 
HETATM   18  F   UNL     1     -39.139  51.331 -54.062  1.00  0.00    -0.166 F 
HETATM   19  F   UNL     1     -41.274  51.325 -54.479  1.00  0.00    -0.166 F 
HETATM   20  F   UNL     1     -40.044  52.998 -55.121  1.00  0.00    -0.166 F 
ENDBRANCH  13  17
ENDBRANCH   7  11
ENDBRANCH   2   5
BRANCH   1  21
HETATM   21  C   UNL     1     -44.462  60.026 -51.736  1.00  0.00     0.228 C 
BRANCH  21  22
HETATM   22  N   UNL     1     -43.562  59.747 -52.843  1.00  0.00    -0.334 N 
HETATM   23  C   UNL     1     -42.219  59.915 -52.780  1.00  0.00     0.322 C 
HETATM   24  N   UNL     1     -41.461  59.327 -53.740  1.00  0.00    -0.293 N 
HETATM   25  O   UNL     1     -41.692  60.625 -51.923  1.00  0.00    -0.247 OA
HETATM   26  H   UNL     1     -40.479  59.549 -53.665  1.00  0.00     0.172 HD
HETATM   27  H   UNL     1     -43.853  59.035 -53.512  1.00  0.00     0.164 HD
BRANCH  24  28
HETATM   28  C   UNL     1     -41.850  58.439 -54.749  1.00  0.00     0.131 A 
HETATM   29  N   UNL     1     -42.352  58.914 -55.910  1.00  0.00    -0.243 NA
HETATM   30  C   UNL     1     -42.730  58.007 -56.843  1.00  0.00     0.125 A 
HETATM   31  C   UNL     1     -42.649  56.631 -56.674  1.00  0.00    -0.044 A 
HETATM   32  C   UNL     1     -43.059  55.689 -57.760  1.00  0.00     0.049 C 
HETATM   33  C   UNL     1     -42.114  56.167 -55.473  1.00  0.00     0.012 A 
HETATM   34  C   UNL     1     -41.715  57.079 -54.498  1.00  0.00     0.051 A 
ENDBRANCH  24  28
ENDBRANCH  21  22
ENDBRANCH   1  21
TORSDOF 6
ENDMDL
MODEL 3
REMARK VINA RESULT:      -7.9      2.580      5.057
REMARK  6 active torsions:
REMARK  status: ('A' for Active; 'I' for Inactive)
REMARK    1  A    between atoms: C_5  and  N_6 
REMARK       I    between atoms: N_6  and  C_7 
REMARK       I    between atoms: C_7  and  N_8 
REMARK    2  A    between atoms: N_8  and  C_9 
REMARK    3  A    between atoms: C_9  and  C_10 
REMARK       I    between atoms: C_10  and  N_11 
REMARK    4  A    between atoms: N_11  and  N_12 
REMARK       I    between atoms: N_12  and  C_13 
REMARK       I    between atoms: C_13  and  N_14 
REMARK    5  A    between atoms: N_14  and  C_15 
REMARK    6  A    between atoms: C_17  and  C_18 
ROOT
HETATM    1  C   UNL     1     -42.579  58.162 -53.618  1.00  0.00     0.253 C 
HETATM    2  N   UNL     1     -43.053  56.922 -54.003  1.00  0.00    -0.265 N 
HETATM    3  O   UNL     1     -42.867  58.678 -52.537  1.00  0.00    -0.270 OA
HETATM    4  H   UNL     1     -42.615  56.457 -54.801  1.00  0.00     0.190 HD
ENDROOT
BRANCH   2   5
HETATM    5  N   UNL     1     -43.682  56.125 -53.042  1.00  0.00    -0.249 N 
HETATM    6  C   UNL     1     -43.162  54.921 -52.609  1.00  0.00     0.339 C 
HETATM    7  N   UNL     1     -41.892  54.672 -53.072  1.00  0.00    -0.308 N 
HETATM    8  O   UNL     1     -43.828  54.203 -51.872  1.00  0.00    -0.245 OA
HETATM    9  H   UNL     1     -41.577  55.326 -53.775  1.00  0.00     0.170 HD
HETATM   10  H   UNL     1     -44.679  56.270 -52.894  1.00  0.00     0.192 HD
BRANCH   7  11
HETATM   11  C   UNL     1     -41.050  53.587 -52.772  1.00  0.00     0.037 A 
HETATM   12  C   UNL     1     -40.918  52.455 -53.580  1.00  0.00     0.045 A 
HETATM   13  C   UNL     1     -40.068  51.397 -53.210  1.00  0.00     0.050 A 
HETATM   14  C   UNL     1     -39.335  51.496 -52.019  1.00  0.00     0.016 A 
HETATM   15  C   UNL     1     -39.462  52.620 -51.206  1.00  0.00     0.003 A 
HETATM   16  C   UNL     1     -40.318  53.658 -51.580  1.00  0.00     0.029 A 
BRANCH  13  17
HETATM   17  C   UNL     1     -39.915  50.184 -54.094  1.00  0.00     0.417 C 
HETATM   18  F   UNL     1     -39.063  50.366 -55.139  1.00  0.00    -0.166 F 
HETATM   19  F   UNL     1     -39.448  49.102 -53.411  1.00  0.00    -0.166 F 
HETATM   20  F   UNL     1     -41.098  49.789 -54.647  1.00  0.00    -0.166 F 
ENDBRANCH  13  17
ENDBRANCH   7  11
ENDBRANCH   2   5
BRANCH   1  21
HETATM   21  C   UNL     1     -41.820  58.924 -54.710  1.00  0.00     0.228 C 
BRANCH  21  22
HETATM   22  N   UNL     1     -42.390  58.852 -56.046  1.00  0.00    -0.334 N 
HETATM   23  C   UNL     1     -41.997  59.645 -57.073  1.00  0.00     0.322 C 
HETATM   24  N   UNL     1     -42.356  59.278 -58.330  1.00  0.00    -0.293 N 
HETATM   25  O   UNL     1     -41.387  60.698 -56.885  1.00  0.00    -0.247 OA
HETATM   26  H   UNL     1     -42.085  59.948 -59.034  1.00  0.00     0.172 HD
HETATM   27  H   UNL     1     -42.765  57.953 -56.346  1.00  0.00     0.164 HD
BRANCH  24  28
HETATM   28  C   UNL     1     -42.983  58.103 -58.760  1.00  0.00     0.131 A 
HETATM   29  N   UNL     1     -44.290  57.896 -58.487  1.00  0.00    -0.243 NA
HETATM   30  C   UNL     1     -44.838  56.732 -58.911  1.00  0.00     0.125 A 
HETATM   31  C   UNL     1     -44.141  55.740 -59.589  1.00  0.00    -0.044 A 
HETATM   32  C   UNL     1     -44.820  54.491 -60.051  1.00  0.00     0.049 C 
HETATM   33  C   UNL     1     -42.798  55.984 -59.870  1.00  0.00     0.012 A 
HETATM   34  C   UNL     1     -42.210  57.175 -59.448  1.00  0.00     0.051 A 
ENDBRANCH  24  28
ENDBRANCH  21  22
ENDBRANCH   1  21
TORSDOF 6
ENDMDL
MODEL 4
REMARK VINA RESULT:      -7.7      3.143      5.176
REMARK  6 active torsions:
REMARK  status: ('A' for Active; 'I' for Inactive)
REMARK    1  A    between atoms: C_5  and  N_6 
REMARK       I    between atoms: N_6  and  C_7 
REMARK       I    between atoms: C_7  and  N_8 
REMARK    2  A    between atoms: N_8  and  C_9 
REMARK    3  A    between atoms: C_9  and  C_10 
REMARK       I    between atoms: C_10  and  N_11 
REMARK    4  A    between atoms: N_11  and  N_12 
REMARK       I    between atoms: N_12  and  C_13 
REMARK       I    between atoms: C_13  and  N_14 
REMARK    5  A    between atoms: N_14  and  C_15 
REMARK    6  A    between atoms: C_17  and  C_18 
ROOT
HETATM    1  C   UNL     1     -43.080  56.980 -57.183  1.00  0.00     0.253 C 
HETATM    2  N   UNL     1     -43.450  55.827 -56.517  1.00  0.00    -0.265 N 
HETATM    3  O   UNL     1     -43.251  58.104 -56.710  1.00  0.00    -0.270 OA
HETATM    4  H   UNL     1     -43.092  54.930 -56.855  1.00  0.00     0.190 HD
ENDROOT
BRANCH   2   5
HETATM    5  N   UNL     1     -43.808  55.924 -55.169  1.00  0.00    -0.249 N 
HETATM    6  C   UNL     1     -43.246  55.135 -54.184  1.00  0.00     0.339 C 
HETATM    7  N   UNL     1     -42.184  54.381 -54.623  1.00  0.00    -0.308 N 
HETATM    8  O   UNL     1     -43.702  55.170 -53.047  1.00  0.00    -0.245 OA
HETATM    9  H   UNL     1     -42.057  54.397 -55.625  1.00  0.00     0.170 HD
HETATM   10  H   UNL     1     -44.708  56.350 -54.954  1.00  0.00     0.192 HD
BRANCH   7  11
HETATM   11  C   UNL     1     -41.348  53.533 -53.876  1.00  0.00     0.037 A 
HETATM   12  C   UNL     1     -40.998  52.239 -54.271  1.00  0.00     0.045 A 
HETATM   13  C   UNL     1     -40.168  51.437 -53.466  1.00  0.00     0.050 A 
HETATM   14  C   UNL     1     -39.679  51.958 -52.260  1.00  0.00     0.016 A 
HETATM   15  C   UNL     1     -40.025  53.246 -51.858  1.00  0.00     0.003 A 
HETATM   16  C   UNL     1     -40.858  54.027 -52.662  1.00  0.00     0.029 A 
BRANCH  13  17
HETATM   17  C   UNL     1     -39.777  50.047 -53.903  1.00  0.00     0.417 C 
HETATM   18  F   UNL     1     -38.605  49.993 -54.592  1.00  0.00    -0.166 F 
HETATM   19  F   UNL     1     -39.636  49.194 -52.851  1.00  0.00    -0.166 F 
HETATM   20  F   UNL     1     -40.710  49.475 -54.719  1.00  0.00    -0.166 F 
ENDBRANCH  13  17
ENDBRANCH   7  11
ENDBRANCH   2   5
BRANCH   1  21
HETATM   21  C   UNL     1     -42.612  56.762 -58.626  1.00  0.00     0.228 C 
BRANCH  21  22
HETATM   22  N   UNL     1     -42.442  57.964 -59.427  1.00  0.00    -0.334 N 
HETATM   23  C   UNL     1     -43.433  58.520 -60.165  1.00  0.00     0.322 C 
HETATM   24  N   UNL     1     -43.259  59.794 -60.602  1.00  0.00    -0.293 N 
HETATM   25  O   UNL     1     -44.438  57.886 -60.489  1.00  0.00    -0.247 OA
HETATM   26  H   UNL     1     -44.007  60.118 -61.197  1.00  0.00     0.172 HD
HETATM   27  H   UNL     1     -41.738  58.634 -59.120  1.00  0.00     0.164 HD
BRANCH  24  28
HETATM   28  C   UNL     1     -42.237  60.699 -60.295  1.00  0.00     0.131 A 
HETATM   29  N   UNL     1     -41.855  60.875 -59.011  1.00  0.00    -0.243 NA
HETATM   30  C   UNL     1     -40.874  61.779 -58.772  1.00  0.00     0.125 A 
HETATM   31  C   UNL     1     -40.256  62.541 -59.755  1.00  0.00    -0.044 A 
HETATM   32  C   UNL     1     -39.159  63.500 -59.418  1.00  0.00     0.049 C 
HETATM   33  C   UNL     1     -40.659  62.330 -61.071  1.00  0.00     0.012 A 
HETATM   34  C   UNL     1     -41.663  61.404 -61.346  1.00  0.00     0.051 A 
ENDBRANCH  24  28
ENDBRANCH  21  22
ENDBRANCH   1  21
TORSDOF 6
ENDMDL
MODEL 5
REMARK VINA RESULT:      -7.5      3.125      5.870
REMARK  6 active torsions:
REMARK  status: ('A' for Active; 'I' for Inactive)
REMARK    1  A    between atoms: C_5  and  N_6 
REMARK       I    between atoms: N_6  and  C_7 
REMARK       I    between atoms: C_7  and  N_8 
REMARK    2  A    between atoms: N_8  and  C_9 
REMARK    3  A    between atoms: C_9  and  C_10 
REMARK       I    between atoms: C_10  and  N_11 
REMARK    4  A    between atoms: N_11  and  N_12 
REMARK       I    between atoms: N_12  and  C_13 
REMARK       I    between atoms: C_13  and  N_14 
REMARK    5  A    between atoms: N_14  and  C_15 
REMARK    6  A    between atoms: C_17  and  C_18 
ROOT
HETATM    1  C   UNL     1     -44.219  57.685 -54.435  1.00  0.00     0.253 C 
HETATM    2  N   UNL     1     -43.292  56.945 -53.726  1.00  0.00    -0.265 N 
HETATM    3  O   UNL     1     -45.431  57.597 -54.236  1.00  0.00    -0.270 OA
HETATM    4  H   UNL     1     -42.306  57.213 -53.781  1.00  0.00     0.190 HD
ENDROOT
BRANCH   2   5
HETATM    5  N   UNL     1     -43.722  56.255 -52.588  1.00  0.00    -0.249 N 
HETATM    6  C   UNL     1     -43.151  55.070 -52.169  1.00  0.00     0.339 C 
HETATM    7  N   UNL     1     -42.014  54.731 -52.863  1.00  0.00    -0.308 N 
HETATM    8  O   UNL     1     -43.663  54.443 -51.248  1.00  0.00    -0.245 OA
HETATM    9  H   UNL     1     -41.839  55.312 -53.671  1.00  0.00     0.170 HD
HETATM   10  H   UNL     1     -44.661  56.454 -52.248  1.00  0.00     0.192 HD
BRANCH   7  11
HETATM   11  C   UNL     1     -41.154  53.640 -52.650  1.00  0.00     0.037 A 
HETATM   12  C   UNL     1     -41.001  52.580 -53.548  1.00  0.00     0.045 A 
HETATM   13  C   UNL     1     -40.133  51.510 -53.264  1.00  0.00     0.050 A 
HETATM   14  C   UNL     1     -39.403  51.524 -52.067  1.00  0.00     0.016 A 
HETATM   15  C   UNL     1     -39.550  52.576 -51.165  1.00  0.00     0.003 A 
HETATM   16  C   UNL     1     -40.423  53.626 -51.456  1.00  0.00     0.029 A 
BRANCH  13  17
HETATM   17  C   UNL     1     -39.958  50.376 -54.243  1.00  0.00     0.417 C 
HETATM   18  F   UNL     1     -39.149  49.378 -53.793  1.00  0.00    -0.166 F 
HETATM   19  F   UNL     1     -41.141  49.785 -54.568  1.00  0.00    -0.166 F 
HETATM   20  F   UNL     1     -39.413  50.786 -55.425  1.00  0.00    -0.166 F 
ENDBRANCH  13  17
ENDBRANCH   7  11
ENDBRANCH   2   5
BRANCH   1  21
HETATM   21  C   UNL     1     -43.638  58.482 -55.608  1.00  0.00     0.228 C 
BRANCH  21  22
HETATM   22  N   UNL     1     -43.683  57.827 -56.906  1.00  0.00    -0.334 N 
HETATM   23  C   UNL     1     -42.947  56.733 -57.220  1.00  0.00     0.322 C 
HETATM   24  N   UNL     1     -43.303  56.026 -58.323  1.00  0.00    -0.293 N 
HETATM   25  O   UNL     1     -41.949  56.413 -56.573  1.00  0.00    -0.247 OA
HETATM   26  H   UNL     1     -42.673  55.265 -58.530  1.00  0.00     0.172 HD
HETATM   27  H   UNL     1     -44.551  57.900 -57.436  1.00  0.00     0.164 HD
BRANCH  24  28
HETATM   28  C   UNL     1     -44.426  56.179 -59.144  1.00  0.00     0.131 A 
HETATM   29  N   UNL     1     -45.402  57.046 -58.797  1.00  0.00    -0.243 NA
HETATM   30  C   UNL     1     -46.474  57.138 -59.621  1.00  0.00     0.125 A 
HETATM   31  C   UNL     1     -46.636  56.391 -60.781  1.00  0.00    -0.044 A 
HETATM   32  C   UNL     1     -47.835  56.568 -61.657  1.00  0.00     0.049 C 
HETATM   33  C   UNL     1     -45.608  55.516 -61.123  1.00  0.00     0.012 A 
HETATM   34  C   UNL     1     -44.493  55.403 -60.295  1.00  0.00     0.051 A 
ENDBRANCH  24  28
ENDBRANCH  21  22
ENDBRANCH   1  21
TORSDOF 6
ENDMDL
MODEL 6
REMARK VINA RESULT:      -7.4      5.679      8.450
REMARK  6 active torsions:
REMARK  status: ('A' for Active; 'I' for Inactive)
REMARK    1  A    between atoms: C_5  and  N_6 
REMARK       I    between atoms: N_6  and  C_7 
REMARK       I    between atoms: C_7  and  N_8 
REMARK    2  A    between atoms: N_8  and  C_9 
REMARK    3  A    between atoms: C_9  and  C_10 
REMARK       I    between atoms: C_10  and  N_11 
REMARK    4  A    between atoms: N_11  and  N_12 
REMARK       I    between atoms: N_12  and  C_13 
REMARK       I    between atoms: C_13  and  N_14 
REMARK    5  A    between atoms: N_14  and  C_15 
REMARK    6  A    between atoms: C_17  and  C_18 
ROOT
HETATM    1  C   UNL     1     -43.219  57.198 -52.911  1.00  0.00     0.253 C 
HETATM    2  N   UNL     1     -43.567  57.883 -51.762  1.00  0.00    -0.265 N 
HETATM    3  O   UNL     1     -44.042  56.596 -53.601  1.00  0.00    -0.270 OA
HETATM    4  H   UNL     1     -42.891  58.534 -51.356  1.00  0.00     0.190 HD
ENDROOT
BRANCH   2   5
HETATM    5  N   UNL     1     -44.924  58.101 -51.505  1.00  0.00    -0.249 N 
HETATM    6  C   UNL     1     -45.377  59.089 -50.653  1.00  0.00     0.339 C 
HETATM    7  N   UNL     1     -44.389  59.945 -50.228  1.00  0.00    -0.308 N 
HETATM    8  O   UNL     1     -46.567  59.138 -50.360  1.00  0.00    -0.245 OA
HETATM    9  H   UNL     1     -43.456  59.648 -50.477  1.00  0.00     0.170 HD
HETATM   10  H   UNL     1     -45.565  57.332 -51.693  1.00  0.00     0.192 HD
BRANCH   7  11
HETATM   11  C   UNL     1     -44.513  61.089 -49.421  1.00  0.00     0.037 A 
HETATM   12  C   UNL     1     -44.916  61.061 -48.084  1.00  0.00     0.045 A 
HETATM   13  C   UNL     1     -45.033  62.248 -47.338  1.00  0.00     0.050 A 
HETATM   14  C   UNL     1     -44.726  63.471 -47.951  1.00  0.00     0.016 A 
HETATM   15  C   UNL     1     -44.325  63.509 -49.285  1.00  0.00     0.003 A 
HETATM   16  C   UNL     1     -44.222  62.323 -50.015  1.00  0.00     0.029 A 
BRANCH  13  17
HETATM   17  C   UNL     1     -45.452  62.212 -45.889  1.00  0.00     0.417 C 
HETATM   18  F   UNL     1     -46.760  62.530 -45.685  1.00  0.00    -0.166 F 
HETATM   19  F   UNL     1     -45.270  60.986 -45.327  1.00  0.00    -0.166 F 
HETATM   20  F   UNL     1     -44.738  63.082 -45.118  1.00  0.00    -0.166 F 
ENDBRANCH  13  17
ENDBRANCH   7  11
ENDBRANCH   2   5
BRANCH   1  21
HETATM   21  C   UNL     1     -41.710  57.092 -53.158  1.00  0.00     0.228 C 
BRANCH  21  22
HETATM   22  N   UNL     1     -41.074  55.872 -52.689  1.00  0.00    -0.334 N 
HETATM   23  C   UNL     1     -41.100  55.461 -51.398  1.00  0.00     0.322 C 
HETATM   24  N   UNL     1     -40.763  54.172 -51.136  1.00  0.00    -0.293 N 
HETATM   25  O   UNL     1     -41.359  56.233 -50.474  1.00  0.00    -0.247 OA
HETATM   26  H   UNL     1     -40.743  53.956 -50.150  1.00  0.00     0.172 HD
HETATM   27  H   UNL     1     -40.977  55.108 -53.357  1.00  0.00     0.164 HD
BRANCH  24  28
HETATM   28  C   UNL     1     -40.505  53.129 -52.033  1.00  0.00     0.131 A 
HETATM   29  N   UNL     1     -41.043  53.156 -53.272  1.00  0.00    -0.243 NA
HETATM   30  C   UNL     1     -40.775  52.109 -54.090  1.00  0.00     0.125 A 
HETATM   31  C   UNL     1     -40.002  51.013 -53.731  1.00  0.00    -0.044 A 
HETATM   32  C   UNL     1     -39.725  49.907 -54.698  1.00  0.00     0.049 C 
HETATM   33  C   UNL     1     -39.447  51.017 -52.453  1.00  0.00     0.012 A 
HETATM   34  C   UNL     1     -39.704  52.082 -51.591  1.00  0.00     0.051 A 
ENDBRANCH  24  28
ENDBRANCH  21  22
ENDBRANCH   1  21
TORSDOF 6
ENDMDL
MODEL 7
REMARK VINA RESULT:      -7.4      3.571      6.180
REMARK  6 active torsions:
REMARK  status: ('A' for Active; 'I' for Inactive)
REMARK    1  A    between atoms: C_5  and  N_6 
REMARK       I    between atoms: N_6  and  C_7 
REMARK       I    between atoms: C_7  and  N_8 
REMARK    2  A    between atoms: N_8  and  C_9 
REMARK    3  A    between atoms: C_9  and  C_10 
REMARK       I    between atoms: C_10  and  N_11 
REMARK    4  A    between atoms: N_11  and  N_12 
REMARK       I    between atoms: N_12  and  C_13 
REMARK       I    between atoms: C_13  and  N_14 
REMARK    5  A    between atoms: N_14  and  C_15 
REMARK    6  A    between atoms: C_17  and  C_18 
ROOT
HETATM    1  C   UNL     1     -42.982  56.647 -56.928  1.00  0.00     0.253 C 
HETATM    2  N   UNL     1     -41.801  56.439 -56.241  1.00  0.00    -0.265 N 
HETATM    3  O   UNL     1     -44.028  56.977 -56.367  1.00  0.00    -0.270 OA
HETATM    4  H   UNL     1     -40.929  56.381 -56.772  1.00  0.00     0.190 HD
ENDROOT
BRANCH   2   5
HETATM    5  N   UNL     1     -41.729  56.847 -54.905  1.00  0.00    -0.249 N 
HETATM    6  C   UNL     1     -41.424  55.982 -53.872  1.00  0.00     0.339 C 
HETATM    7  N   UNL     1     -41.024  54.737 -54.297  1.00  0.00    -0.308 N 
HETATM    8  O   UNL     1     -41.515  56.368 -52.712  1.00  0.00    -0.245 OA
HETATM    9  H   UNL     1     -41.148  54.583 -55.287  1.00  0.00     0.170 HD
HETATM   10  H   UNL     1     -42.212  57.707 -54.652  1.00  0.00     0.192 HD
BRANCH   7  11
HETATM   11  C   UNL     1     -40.577  53.653 -53.522  1.00  0.00     0.037 A 
HETATM   12  C   UNL     1     -40.369  52.367 -54.028  1.00  0.00     0.045 A 
HETATM   13  C   UNL     1     -39.935  51.322 -53.192  1.00  0.00     0.050 A 
HETATM   14  C   UNL     1     -39.697  51.589 -51.836  1.00  0.00     0.016 A 
HETATM   15  C   UNL     1     -39.904  52.867 -51.323  1.00  0.00     0.003 A 
HETATM   16  C   UNL     1     -40.345  53.892 -52.162  1.00  0.00     0.029 A 
BRANCH  13  17
HETATM   17  C   UNL     1     -39.695  49.939 -53.744  1.00  0.00     0.417 C 
HETATM   18  F   UNL     1     -38.577  49.839 -54.514  1.00  0.00    -0.166 F 
HETATM   19  F   UNL     1     -39.562  49.005 -52.762  1.00  0.00    -0.166 F 
HETATM   20  F   UNL     1     -40.723  49.505 -54.529  1.00  0.00    -0.166 F 
ENDBRANCH  13  17
ENDBRANCH   7  11
ENDBRANCH   2   5
BRANCH   1  21
HETATM   21  C   UNL     1     -42.936  56.258 -58.409  1.00  0.00     0.228 C 
BRANCH  21  22
HETATM   22  N   UNL     1     -44.153  56.500 -59.168  1.00  0.00    -0.334 N 
HETATM   23  C   UNL     1     -45.028  55.525 -59.514  1.00  0.00     0.322 C 
HETATM   24  N   UNL     1     -46.265  55.901 -59.927  1.00  0.00    -0.293 N 
HETATM   25  O   UNL     1     -44.708  54.335 -59.517  1.00  0.00    -0.247 OA
HETATM   26  H   UNL     1     -46.838  55.126 -60.228  1.00  0.00     0.172 HD
HETATM   27  H   UNL     1     -44.582  57.420 -59.081  1.00  0.00     0.164 HD
BRANCH  24  28
HETATM   28  C   UNL     1     -46.842  57.176 -59.934  1.00  0.00     0.131 A 
HETATM   29  N   UNL     1     -46.840  57.923 -58.809  1.00  0.00    -0.243 NA
HETATM   30  C   UNL     1     -47.431  59.141 -58.869  1.00  0.00     0.125 A 
HETATM   31  C   UNL     1     -48.047  59.656 -60.002  1.00  0.00    -0.044 A 
HETATM   32  C   UNL     1     -48.655  61.023 -60.002  1.00  0.00     0.049 C 
HETATM   33  C   UNL     1     -48.023  58.871 -61.153  1.00  0.00     0.012 A 
HETATM   34  C   UNL     1     -47.419  57.616 -61.119  1.00  0.00     0.051 A 
ENDBRANCH  24  28
ENDBRANCH  21  22
ENDBRANCH   1  21
TORSDOF 6
ENDMDL
MODEL 8
REMARK VINA RESULT:      -7.3      2.736      5.416
REMARK  6 active torsions:
REMARK  status: ('A' for Active; 'I' for Inactive)
REMARK    1  A    between atoms: C_5  and  N_6 
REMARK       I    between atoms: N_6  and  C_7 
REMARK       I    between atoms: C_7  and  N_8 
REMARK    2  A    between atoms: N_8  and  C_9 
REMARK    3  A    between atoms: C_9  and  C_10 
REMARK       I    between atoms: C_10  and  N_11 
REMARK    4  A    between atoms: N_11  and  N_12 
REMARK       I    between atoms: N_12  and  C_13 
REMARK       I    between atoms: C_13  and  N_14 
REMARK    5  A    between atoms: N_14  and  C_15 
REMARK    6  A    between atoms: C_17  and  C_18 
ROOT
HETATM    1  C   UNL     1     -43.237  57.439 -52.160  1.00  0.00     0.253 C 
HETATM    2  N   UNL     1     -41.871  57.230 -52.100  1.00  0.00    -0.265 N 
HETATM    3  O   UNL     1     -44.019  56.965 -51.336  1.00  0.00    -0.270 OA
HETATM    4  H   UNL     1     -41.260  57.817 -52.672  1.00  0.00     0.190 HD
ENDROOT
BRANCH   2   5
HETATM    5  N   UNL     1     -41.337  56.665 -50.937  1.00  0.00    -0.249 N 
HETATM    6  C   UNL     1     -40.935  55.346 -50.862  1.00  0.00     0.339 C 
HETATM    7  N   UNL     1     -40.941  54.698 -52.075  1.00  0.00    -0.308 N 
HETATM    8  O   UNL     1     -40.608  54.873 -49.779  1.00  0.00    -0.245 OA
HETATM    9  H   UNL     1     -41.373  55.227 -52.819  1.00  0.00     0.170 HD
HETATM   10  H   UNL     1     -41.538  57.131 -50.055  1.00  0.00     0.192 HD
BRANCH   7  11
HETATM   11  C   UNL     1     -40.526  53.387 -52.366  1.00  0.00     0.037 A 
HETATM   12  C   UNL     1     -40.351  52.392 -51.401  1.00  0.00     0.045 A 
HETATM   13  C   UNL     1     -39.918  51.103 -51.761  1.00  0.00     0.050 A 
HETATM   14  C   UNL     1     -39.676  50.818 -53.112  1.00  0.00     0.016 A 
HETATM   15  C   UNL     1     -39.845  51.805 -54.081  1.00  0.00     0.003 A 
HETATM   16  C   UNL     1     -40.265  53.083 -53.708  1.00  0.00     0.029 A 
BRANCH  13  17
HETATM   17  C   UNL     1     -39.747  50.026 -50.719  1.00  0.00     0.417 C 
HETATM   18  F   UNL     1     -40.116  50.407 -49.465  1.00  0.00    -0.166 F 
HETATM   19  F   UNL     1     -40.474  48.910 -51.003  1.00  0.00    -0.166 F 
HETATM   20  F   UNL     1     -38.453  49.606 -50.610  1.00  0.00    -0.166 F 
ENDBRANCH  13  17
ENDBRANCH   7  11
ENDBRANCH   2   5
BRANCH   1  21
HETATM   21  C   UNL     1     -43.718  58.150 -53.430  1.00  0.00     0.228 C 
BRANCH  21  22
HETATM   22  N   UNL     1     -43.311  57.547 -54.688  1.00  0.00    -0.334 N 
HETATM   23  C   UNL     1     -43.701  56.314 -55.091  1.00  0.00     0.322 C 
HETATM   24  N   UNL     1     -43.532  55.991 -56.399  1.00  0.00    -0.293 N 
HETATM   25  O   UNL     1     -44.140  55.480 -54.298  1.00  0.00    -0.247 OA
HETATM   26  H   UNL     1     -43.785  55.037 -56.610  1.00  0.00     0.172 HD
HETATM   27  H   UNL     1     -43.094  58.178 -55.460  1.00  0.00     0.164 HD
BRANCH  24  28
HETATM   28  C   UNL     1     -43.119  56.803 -57.461  1.00  0.00     0.131 A 
HETATM   29  N   UNL     1     -42.424  57.935 -57.214  1.00  0.00    -0.243 NA
HETATM   30  C   UNL     1     -42.068  58.692 -58.280  1.00  0.00     0.125 A 
HETATM   31  C   UNL     1     -42.386  58.387 -59.598  1.00  0.00    -0.044 A 
HETATM   32  C   UNL     1     -41.934  59.256 -60.727  1.00  0.00     0.049 C 
HETATM   33  C   UNL     1     -43.091  57.207 -59.825  1.00  0.00     0.012 A 
HETATM   34  C   UNL     1     -43.467  56.408 -58.747  1.00  0.00     0.051 A 
ENDBRANCH  24  28
ENDBRANCH  21  22
ENDBRANCH   1  21
TORSDOF 6
ENDMDL
MODEL 9
REMARK VINA RESULT:      -7.2      2.824      5.496
REMARK  6 active torsions:
REMARK  status: ('A' for Active; 'I' for Inactive)
REMARK    1  A    between atoms: C_5  and  N_6 
REMARK       I    between atoms: N_6  and  C_7 
REMARK       I    between atoms: C_7  and  N_8 
REMARK    2  A    between atoms: N_8  and  C_9 
REMARK    3  A    between atoms: C_9  and  C_10 
REMARK       I    between atoms: C_10  and  N_11 
REMARK    4  A    between atoms: N_11  and  N_12 
REMARK       I    between atoms: N_12  and  C_13 
REMARK       I    between atoms: C_13  and  N_14 
REMARK    5  A    between atoms: N_14  and  C_15 
REMARK    6  A    between atoms: C_17  and  C_18 
ROOT
HETATM    1  C   UNL     1     -43.827  57.673 -52.115  1.00  0.00     0.253 C 
HETATM    2  N   UNL     1     -42.460  57.628 -51.913  1.00  0.00    -0.265 N 
HETATM    3  O   UNL     1     -44.634  57.209 -51.309  1.00  0.00    -0.270 OA
HETATM    4  H   UNL     1     -41.859  58.212 -52.499  1.00  0.00     0.190 HD
ENDROOT
BRANCH   2   5
HETATM    5  N   UNL     1     -41.988  57.261 -50.648  1.00  0.00    -0.249 N 
HETATM    6  C   UNL     1     -41.533  55.990 -50.357  1.00  0.00     0.339 C 
HETATM    7  N   UNL     1     -41.418  55.180 -51.462  1.00  0.00    -0.308 N 
HETATM    8  O   UNL     1     -41.265  55.693 -49.199  1.00  0.00    -0.245 OA
HETATM    9  H   UNL     1     -41.818  55.575 -52.302  1.00  0.00     0.170 HD
HETATM   10  H   UNL     1     -42.275  57.835 -49.858  1.00  0.00     0.192 HD
BRANCH   7  11
HETATM   11  C   UNL     1     -40.924  53.867 -51.534  1.00  0.00     0.037 A 
HETATM   12  C   UNL     1     -40.677  53.191 -52.732  1.00  0.00     0.045 A 
HETATM   13  C   UNL     1     -40.195  51.869 -52.731  1.00  0.00     0.050 A 
HETATM   14  C   UNL     1     -39.949  51.234 -51.505  1.00  0.00     0.016 A 
HETATM   15  C   UNL     1     -40.194  51.900 -50.306  1.00  0.00     0.003 A 
HETATM   16  C   UNL     1     -40.682  53.208 -50.322  1.00  0.00     0.029 A 
BRANCH  13  17
HETATM   17  C   UNL     1     -39.914  51.148 -54.026  1.00  0.00     0.417 C 
HETATM   18  F   UNL     1     -39.831  51.969 -55.108  1.00  0.00    -0.166 F 
HETATM   19  F   UNL     1     -38.743  50.454 -53.988  1.00  0.00    -0.166 F 
HETATM   20  F   UNL     1     -40.877  50.231 -54.332  1.00  0.00    -0.166 F 
ENDBRANCH  13  17
ENDBRANCH   7  11
ENDBRANCH   2   5
BRANCH   1  21
HETATM   21  C   UNL     1     -44.251  58.177 -53.499  1.00  0.00     0.228 C 
BRANCH  21  22
HETATM   22  N   UNL     1     -43.580  57.561 -54.632  1.00  0.00    -0.334 N 
HETATM   23  C   UNL     1     -43.635  56.235 -54.907  1.00  0.00     0.322 C 
HETATM   24  N   UNL     1     -43.252  55.828 -56.144  1.00  0.00    -0.293 N 
HETATM   25  O   UNL     1     -43.961  55.407 -54.056  1.00  0.00    -0.247 OA
HETATM   26  H   UNL     1     -43.258  54.825 -56.255  1.00  0.00     0.172 HD
HETATM   27  H   UNL     1     -43.426  58.142 -55.456  1.00  0.00     0.164 HD
BRANCH  24  28
HETATM   28  C   UNL     1     -42.916  56.601 -57.262  1.00  0.00     0.131 A 
HETATM   29  N   UNL     1     -42.462  57.863 -57.098  1.00  0.00    -0.243 NA
HETATM   30  C   UNL     1     -42.172  58.571 -58.217  1.00  0.00     0.125 A 
HETATM   31  C   UNL     1     -42.327  58.088 -59.510  1.00  0.00    -0.044 A 
HETATM   32  C   UNL     1     -41.959  58.918 -60.698  1.00  0.00     0.049 C 
HETATM   33  C   UNL     1     -42.783  56.779 -59.650  1.00  0.00     0.012 A 
HETATM   34  C   UNL     1     -43.086  56.028 -58.516  1.00  0.00     0.051 A 
ENDBRANCH  24  28
ENDBRANCH  21  22
ENDBRANCH   1  21
TORSDOF 6
ENDMDL
MODEL 10
REMARK VINA RESULT:      -7.0     16.234     19.249
REMARK  6 active torsions:
REMARK  status: ('A' for Active; 'I' for Inactive)
REMARK    1  A    between atoms: C_5  and  N_6 
REMARK       I    between atoms: N_6  and  C_7 
REMARK       I    between atoms: C_7  and  N_8 
REMARK    2  A    between atoms: N_8  and  C_9 
REMARK    3  A    between atoms: C_9  and  C_10 
REMARK       I    between atoms: C_10  and  N_11 
REMARK    4  A    between atoms: N_11  and  N_12 
REMARK       I    between atoms: N_12  and  C_13 
REMARK       I    between atoms: C_13  and  N_14 
REMARK    5  A    between atoms: N_14  and  C_15 
REMARK    6  A    between atoms: C_17  and  C_18 
ROOT
HETATM    1  C   UNL     1     -35.902  38.823 -51.794  1.00  0.00     0.253 C 
HETATM    2  N   UNL     1     -34.595  39.079 -51.423  1.00  0.00    -0.265 N 
HETATM    3  O   UNL     1     -36.262  37.737 -52.250  1.00  0.00    -0.270 OA
HETATM    4  H   UNL     1     -34.400  39.909 -50.858  1.00  0.00     0.190 HD
ENDROOT
BRANCH   2   5
HETATM    5  N   UNL     1     -33.705  38.003 -51.338  1.00  0.00    -0.249 N 
HETATM    6  C   UNL     1     -32.836  37.831 -50.280  1.00  0.00     0.339 C 
HETATM    7  N   UNL     1     -33.051  38.707 -49.242  1.00  0.00    -0.308 N 
HETATM    8  O   UNL     1     -31.986  36.949 -50.331  1.00  0.00    -0.245 OA
HETATM    9  H   UNL     1     -33.711  39.441 -49.457  1.00  0.00     0.170 HD
HETATM   10  H   UNL     1     -33.471  37.521 -52.204  1.00  0.00     0.192 HD
BRANCH   7  11
HETATM   11  C   UNL     1     -32.402  38.761 -47.997  1.00  0.00     0.037 A 
HETATM   12  C   UNL     1     -31.409  39.690 -47.675  1.00  0.00     0.045 A 
HETATM   13  C   UNL     1     -30.789  39.678 -46.412  1.00  0.00     0.050 A 
HETATM   14  C   UNL     1     -31.191  38.727 -45.465  1.00  0.00     0.016 A 
HETATM   15  C   UNL     1     -32.179  37.796 -45.777  1.00  0.00     0.003 A 
HETATM   16  C   UNL     1     -32.779  37.813 -47.038  1.00  0.00     0.029 A 
BRANCH  13  17
HETATM   17  C   UNL     1     -29.728  40.692 -46.063  1.00  0.00     0.417 C 
HETATM   18  F   UNL     1     -28.502  40.412 -46.583  1.00  0.00    -0.166 F 
HETATM   19  F   UNL     1     -30.045  41.944 -46.497  1.00  0.00    -0.166 F 
HETATM   20  F   UNL     1     -29.539  40.806 -44.716  1.00  0.00    -0.166 F 
ENDBRANCH  13  17
ENDBRANCH   7  11
ENDBRANCH   2   5
BRANCH   1  21
HETATM   21  C   UNL     1     -36.825  40.046 -51.767  1.00  0.00     0.228 C 
BRANCH  21  22
HETATM   22  N   UNL     1     -36.598  41.036 -52.807  1.00  0.00    -0.334 N 
HETATM   23  C   UNL     1     -35.590  41.940 -52.775  1.00  0.00     0.322 C 
HETATM   24  N   UNL     1     -35.282  42.587 -53.928  1.00  0.00    -0.293 N 
HETATM   25  O   UNL     1     -35.003  42.223 -51.730  1.00  0.00    -0.247 OA
HETATM   26  H   UNL     1     -34.567  43.290 -53.814  1.00  0.00     0.172 HD
HETATM   27  H   UNL     1     -36.905  40.800 -53.750  1.00  0.00     0.164 HD
BRANCH  24  28
HETATM   28  C   UNL     1     -35.775  42.369 -55.220  1.00  0.00     0.131 A 
HETATM   29  N   UNL     1     -37.107  42.287 -55.428  1.00  0.00    -0.243 NA
HETATM   30  C   UNL     1     -37.526  42.054 -56.696  1.00  0.00     0.125 A 
HETATM   31  C   UNL     1     -36.676  41.881 -57.781  1.00  0.00    -0.044 A 
HETATM   32  C   UNL     1     -37.212  41.656 -59.159  1.00  0.00     0.049 C 
HETATM   33  C   UNL     1     -35.308  41.985 -57.541  1.00  0.00     0.012 A 
HETATM   34  C   UNL     1     -34.850  42.227 -56.247  1.00  0.00     0.051 A 
ENDBRANCH  24  28
ENDBRANCH  21  22
ENDBRANCH   1  21
TORSDOF 6
ENDMDL
