MODEL 1
REMARK VINA RESULT:      -8.1      0.000      0.000
REMARK  2 active torsions:
REMARK  status: ('A' for Active; 'I' for Inactive)
REMARK    1  A    between atoms: O_2  and  C_3 
REMARK    2  A    between atoms: C_4  and  N_5 
REMARK       I    between atoms: N_5  and  C_6 
REMARK       I    between atoms: C_6  and  N_7 
ROOT
HETATM    1  N   UNL     1     -43.173  59.424 -50.556  1.00  0.00    -0.306 N 
HETATM    2  C   UNL     1     -42.704  59.107 -51.807  1.00  0.00     0.323 C 
HETATM    3  N   UNL     1     -41.995  57.907 -51.842  1.00  0.00    -0.328 N 
HETATM    4  C   UNL     1     -41.668  57.398 -53.178  1.00  0.00     0.185 C 
HETATM    5  C   UNL     1     -41.241  55.979 -53.053  1.00  0.00     0.035 A 
HETATM    6  C   UNL     1     -40.919  55.305 -51.893  1.00  0.00    -0.020 A 
HETATM    7  C   UNL     1     -41.020  55.969 -50.564  1.00  0.00     0.061 C 
HETATM    8  C   UNL     1     -41.089  57.498 -50.742  1.00  0.00     0.132 C 
HETATM    9  N   UNL     1     -41.088  55.113 -54.101  1.00  0.00    -0.357 N 
HETATM   10  H   UNL     1     -41.261  55.326 -55.073  1.00  0.00     0.166 HD
HETATM   11  C   UNL     1     -40.660  53.887 -53.635  1.00  0.00     0.043 A 
HETATM   12  C   UNL     1     -40.542  53.983 -52.245  1.00  0.00    -0.001 A 
HETATM   13  C   UNL     1     -40.374  52.708 -54.334  1.00  0.00     0.030 A 
HETATM   14  C   UNL     1     -39.951  51.601 -53.593  1.00  0.00     0.002 A 
HETATM   15  C   UNL     1     -39.822  51.669 -52.208  1.00  0.00     0.001 A 
HETATM   16  C   UNL     1     -40.116  52.853 -51.522  1.00  0.00     0.014 A 
HETATM   17  O   UNL     1     -42.929  59.761 -52.822  1.00  0.00    -0.247 OA
HETATM   18  H   UNL     1     -43.321  58.638 -49.937  1.00  0.00     0.171 HD
ENDROOT
BRANCH   1  19
HETATM   19  C   UNL     1     -43.817  60.612 -50.159  1.00  0.00     0.071 A 
HETATM   20  C   UNL     1     -45.178  60.525 -49.821  1.00  0.00     0.095 A 
HETATM   21  C   UNL     1     -45.879  61.638 -49.356  1.00  0.00     0.041 A 
HETATM   22  C   UNL     1     -45.223  62.863 -49.255  1.00  0.00     0.026 A 
HETATM   23  C   UNL     1     -43.876  62.961 -49.609  1.00  0.00     0.036 A 
HETATM   24  C   UNL     1     -43.168  61.844 -50.058  1.00  0.00     0.056 A 
HETATM   25 CL   UNL     1     -43.075  64.479 -49.469  1.00  0.00    -0.084 Cl
BRANCH  20  26
HETATM   26  O   UNL     1     -45.808  59.308 -49.924  1.00  0.00    -0.354 OA
HETATM   27  C   UNL     1     -46.403  59.173 -51.217  1.00  0.00     0.210 C 
ENDBRANCH  20  26
ENDBRANCH   1  19
TORSDOF 2
ENDMDL
MODEL 2
REMARK VINA RESULT:      -8.1      4.808      7.154
REMARK  2 active torsions:
REMARK  status: ('A' for Active; 'I' for Inactive)
REMARK    1  A    between atoms: O_2  and  C_3 
REMARK    2  A    between atoms: C_4  and  N_5 
REMARK       I    between atoms: N_5  and  C_6 
REMARK       I    between atoms: C_6  and  N_7 
ROOT
HETATM    1  N   UNL     1     -42.399  56.534 -56.941  1.00  0.00    -0.306 N 
HETATM    2  C   UNL     1     -42.963  56.930 -55.752  1.00  0.00     0.323 C 
HETATM    3  N   UNL     1     -42.668  56.075 -54.692  1.00  0.00    -0.328 N 
HETATM    4  C   UNL     1     -43.043  56.558 -53.360  1.00  0.00     0.185 C 
HETATM    5  C   UNL     1     -42.360  55.718 -52.340  1.00  0.00     0.035 A 
HETATM    6  C   UNL     1     -41.714  54.517 -52.549  1.00  0.00    -0.020 A 
HETATM    7  C   UNL     1     -41.593  53.935 -53.914  1.00  0.00     0.061 C 
HETATM    8  C   UNL     1     -42.605  54.603 -54.864  1.00  0.00     0.132 C 
HETATM    9  N   UNL     1     -42.282  56.014 -51.007  1.00  0.00    -0.357 N 
HETATM   10  H   UNL     1     -42.660  56.839 -50.562  1.00  0.00     0.166 HD
HETATM   11  C   UNL     1     -41.600  55.013 -50.346  1.00  0.00     0.043 A 
HETATM   12  C   UNL     1     -41.235  54.055 -51.296  1.00  0.00    -0.001 A 
HETATM   13  C   UNL     1     -41.280  54.887 -48.988  1.00  0.00     0.030 A 
HETATM   14  C   UNL     1     -40.572  53.749 -48.592  1.00  0.00     0.002 A 
HETATM   15  C   UNL     1     -40.198  52.777 -49.516  1.00  0.00     0.001 A 
HETATM   16  C   UNL     1     -40.520  52.919 -50.871  1.00  0.00     0.014 A 
HETATM   17  O   UNL     1     -43.608  57.963 -55.597  1.00  0.00    -0.247 OA
HETATM   18  H   UNL     1     -41.564  55.971 -56.858  1.00  0.00     0.171 HD
ENDROOT
BRANCH   1  19
HETATM   19  C   UNL     1     -42.598  57.105 -58.214  1.00  0.00     0.071 A 
HETATM   20  C   UNL     1     -43.381  56.380 -59.129  1.00  0.00     0.095 A 
HETATM   21  C   UNL     1     -43.683  56.896 -60.389  1.00  0.00     0.041 A 
HETATM   22  C   UNL     1     -43.173  58.140 -60.756  1.00  0.00     0.026 A 
HETATM   23  C   UNL     1     -42.377  58.856 -59.859  1.00  0.00     0.036 A 
HETATM   24  C   UNL     1     -42.089  58.348 -58.590  1.00  0.00     0.056 A 
HETATM   25 CL   UNL     1     -41.762  60.397 -60.321  1.00  0.00    -0.084 Cl
BRANCH  20  26
HETATM   26  O   UNL     1     -43.878  55.155 -58.749  1.00  0.00    -0.354 OA
HETATM   27  C   UNL     1     -44.646  54.588 -59.814  1.00  0.00     0.210 C 
ENDBRANCH  20  26
ENDBRANCH   1  19
TORSDOF 2
ENDMDL
MODEL 3
REMARK VINA RESULT:      -8.1      2.214      3.087
REMARK  2 active torsions:
REMARK  status: ('A' for Active; 'I' for Inactive)
REMARK    1  A    between atoms: O_2  and  C_3 
REMARK    2  A    between atoms: C_4  and  N_5 
REMARK       I    between atoms: N_5  and  C_6 
REMARK       I    between atoms: C_6  and  N_7 
ROOT
HETATM    1  N   UNL     1     -42.726  57.726 -51.940  1.00  0.00    -0.306 N 
HETATM    2  C   UNL     1     -42.115  57.165 -53.035  1.00  0.00     0.323 C 
HETATM    3  N   UNL     1     -41.460  55.969 -52.748  1.00  0.00    -0.328 N 
HETATM    4  C   UNL     1     -40.986  55.207 -53.907  1.00  0.00     0.185 C 
HETATM    5  C   UNL     1     -40.641  53.830 -53.462  1.00  0.00     0.035 A 
HETATM    6  C   UNL     1     -40.501  53.387 -52.163  1.00  0.00    -0.020 A 
HETATM    7  C   UNL     1     -40.743  54.296 -51.009  1.00  0.00     0.061 C 
HETATM    8  C   UNL     1     -40.721  55.763 -51.479  1.00  0.00     0.132 C 
HETATM    9  N   UNL     1     -40.392  52.777 -54.297  1.00  0.00    -0.357 N 
HETATM   10  H   UNL     1     -40.430  52.802 -55.307  1.00  0.00     0.166 HD
HETATM   11  C   UNL     1     -40.082  51.656 -53.556  1.00  0.00     0.043 A 
HETATM   12  C   UNL     1     -40.139  52.015 -52.206  1.00  0.00    -0.001 A 
HETATM   13  C   UNL     1     -39.760  50.359 -53.976  1.00  0.00     0.030 A 
HETATM   14  C   UNL     1     -39.484  49.408 -52.990  1.00  0.00     0.002 A 
HETATM   15  C   UNL     1     -39.531  49.739 -51.638  1.00  0.00     0.001 A 
HETATM   16  C   UNL     1     -39.859  51.038 -51.232  1.00  0.00     0.014 A 
HETATM   17  O   UNL     1     -42.178  57.617 -54.175  1.00  0.00    -0.247 OA
HETATM   18  H   UNL     1     -42.987  57.076 -51.210  1.00  0.00     0.171 HD
ENDROOT
BRANCH   1  19
HETATM   19  C   UNL     1     -43.363  58.980 -51.864  1.00  0.00     0.071 A 
HETATM   20  C   UNL     1     -42.543  60.109 -51.700  1.00  0.00     0.095 A 
HETATM   21  C   UNL     1     -43.081  61.396 -51.678  1.00  0.00     0.041 A 
HETATM   22  C   UNL     1     -44.460  61.560 -51.793  1.00  0.00     0.026 A 
HETATM   23  C   UNL     1     -45.283  60.440 -51.936  1.00  0.00     0.036 A 
HETATM   24  C   UNL     1     -44.743  59.153 -51.976  1.00  0.00     0.056 A 
HETATM   25 CL   UNL     1     -46.985  60.658 -52.087  1.00  0.00    -0.084 Cl
BRANCH  20  26
HETATM   26  O   UNL     1     -41.184  59.930 -51.591  1.00  0.00    -0.354 OA
HETATM   27  C   UNL     1     -40.803  59.905 -50.212  1.00  0.00     0.210 C 
ENDBRANCH  20  26
ENDBRANCH   1  19
TORSDOF 2
ENDMDL
MODEL 4
REMARK VINA RESULT:      -8.0      3.819      8.833
REMARK  2 active torsions:
REMARK  status: ('A' for Active; 'I' for Inactive)
REMARK    1  A    between atoms: O_2  and  C_3 
REMARK    2  A    between atoms: C_4  and  N_5 
REMARK       I    between atoms: N_5  and  C_6 
REMARK       I    between atoms: C_6  and  N_7 
ROOT
HETATM    1  N   UNL     1     -41.081  54.247 -52.102  1.00  0.00    -0.306 N 
HETATM    2  C   UNL     1     -42.361  54.614 -51.766  1.00  0.00     0.323 C 
HETATM    3  N   UNL     1     -42.463  55.942 -51.356  1.00  0.00    -0.328 N 
HETATM    4  C   UNL     1     -43.827  56.460 -51.205  1.00  0.00     0.185 C 
HETATM    5  C   UNL     1     -43.764  57.943 -51.115  1.00  0.00     0.035 A 
HETATM    6  C   UNL     1     -42.640  58.718 -50.916  1.00  0.00    -0.020 A 
HETATM    7  C   UNL     1     -41.289  58.102 -50.812  1.00  0.00     0.061 C 
HETATM    8  C   UNL     1     -41.418  56.592 -50.530  1.00  0.00     0.132 C 
HETATM    9  N   UNL     1     -44.843  58.778 -51.206  1.00  0.00    -0.357 N 
HETATM   10  H   UNL     1     -45.800  58.493 -51.360  1.00  0.00     0.166 HD
HETATM   11  C   UNL     1     -44.434  60.088 -51.058  1.00  0.00     0.043 A 
HETATM   12  C   UNL     1     -43.049  60.076 -50.869  1.00  0.00    -0.001 A 
HETATM   13  C   UNL     1     -45.180  61.273 -51.078  1.00  0.00     0.030 A 
HETATM   14  C   UNL     1     -44.493  62.476 -50.897  1.00  0.00     0.002 A 
HETATM   15  C   UNL     1     -43.113  62.493 -50.705  1.00  0.00     0.001 A 
HETATM   16  C   UNL     1     -42.379  61.302 -50.691  1.00  0.00     0.014 A 
HETATM   17  O   UNL     1     -43.344  53.886 -51.869  1.00  0.00    -0.247 OA
HETATM   18  H   UNL     1     -40.480  55.001 -52.406  1.00  0.00     0.171 HD
ENDROOT
BRANCH   1  19
HETATM   19  C   UNL     1     -40.620  52.958 -52.437  1.00  0.00     0.071 A 
HETATM   20  C   UNL     1     -40.633  52.604 -53.797  1.00  0.00     0.095 A 
HETATM   21  C   UNL     1     -40.136  51.373 -54.227  1.00  0.00     0.041 A 
HETATM   22  C   UNL     1     -39.646  50.470 -53.286  1.00  0.00     0.026 A 
HETATM   23  C   UNL     1     -39.649  50.808 -51.931  1.00  0.00     0.036 A 
HETATM   24  C   UNL     1     -40.130  52.047 -51.501  1.00  0.00     0.056 A 
HETATM   25 CL   UNL     1     -39.030  49.687 -50.780  1.00  0.00    -0.084 Cl
BRANCH  20  26
HETATM   26  O   UNL     1     -41.118  53.508 -54.712  1.00  0.00    -0.354 OA
HETATM   27  C   UNL     1     -40.040  54.259 -55.275  1.00  0.00     0.210 C 
ENDBRANCH  20  26
ENDBRANCH   1  19
TORSDOF 2
ENDMDL
MODEL 5
REMARK VINA RESULT:      -8.0      2.066      3.443
REMARK  2 active torsions:
REMARK  status: ('A' for Active; 'I' for Inactive)
REMARK    1  A    between atoms: O_2  and  C_3 
REMARK    2  A    between atoms: C_4  and  N_5 
REMARK       I    between atoms: N_5  and  C_6 
REMARK       I    between atoms: C_6  and  N_7 
ROOT
HETATM    1  N   UNL     1     -42.582  58.256 -52.700  1.00  0.00    -0.306 N 
HETATM    2  C   UNL     1     -42.045  57.461 -51.716  1.00  0.00     0.323 C 
HETATM    3  N   UNL     1     -41.925  56.125 -52.093  1.00  0.00    -0.328 N 
HETATM    4  C   UNL     1     -41.152  55.273 -51.183  1.00  0.00     0.185 C 
HETATM    5  C   UNL     1     -40.825  54.003 -51.884  1.00  0.00     0.035 A 
HETATM    6  C   UNL     1     -41.365  53.543 -53.067  1.00  0.00    -0.020 A 
HETATM    7  C   UNL     1     -42.360  54.350 -53.824  1.00  0.00     0.061 C 
HETATM    8  C   UNL     1     -42.953  55.445 -52.916  1.00  0.00     0.132 C 
HETATM    9  N   UNL     1     -39.924  53.075 -51.441  1.00  0.00    -0.357 N 
HETATM   10  H   UNL     1     -39.366  53.146 -50.601  1.00  0.00     0.166 HD
HETATM   11  C   UNL     1     -39.881  52.010 -52.318  1.00  0.00     0.043 A 
HETATM   12  C   UNL     1     -40.784  52.279 -53.350  1.00  0.00    -0.001 A 
HETATM   13  C   UNL     1     -39.113  50.839 -52.276  1.00  0.00     0.030 A 
HETATM   14  C   UNL     1     -39.278  49.918 -53.314  1.00  0.00     0.002 A 
HETATM   15  C   UNL     1     -40.173  50.160 -54.354  1.00  0.00     0.001 A 
HETATM   16  C   UNL     1     -40.930  51.336 -54.385  1.00  0.00     0.014 A 
HETATM   17  O   UNL     1     -41.643  57.872 -50.632  1.00  0.00    -0.247 OA
HETATM   18  H   UNL     1     -42.449  57.923 -53.645  1.00  0.00     0.171 HD
ENDROOT
BRANCH   1  19
HETATM   19  C   UNL     1     -42.944  59.613 -52.601  1.00  0.00     0.071 A 
HETATM   20  C   UNL     1     -42.425  60.490 -53.568  1.00  0.00     0.095 A 
HETATM   21  C   UNL     1     -42.780  61.839 -53.585  1.00  0.00     0.041 A 
HETATM   22  C   UNL     1     -43.643  62.329 -52.607  1.00  0.00     0.026 A 
HETATM   23  C   UNL     1     -44.147  61.467 -51.631  1.00  0.00     0.036 A 
HETATM   24  C   UNL     1     -43.806  60.112 -51.623  1.00  0.00     0.056 A 
HETATM   25 CL   UNL     1     -45.221  62.083 -50.433  1.00  0.00    -0.084 Cl
BRANCH  20  26
HETATM   26  O   UNL     1     -41.577  59.990 -54.527  1.00  0.00    -0.354 OA
HETATM   27  C   UNL     1     -42.186  60.087 -55.817  1.00  0.00     0.210 C 
ENDBRANCH  20  26
ENDBRANCH   1  19
TORSDOF 2
ENDMDL
MODEL 6
REMARK VINA RESULT:      -7.9      5.131      7.491
REMARK  2 active torsions:
REMARK  status: ('A' for Active; 'I' for Inactive)
REMARK    1  A    between atoms: O_2  and  C_3 
REMARK    2  A    between atoms: C_4  and  N_5 
REMARK       I    between atoms: N_5  and  C_6 
REMARK       I    between atoms: C_6  and  N_7 
ROOT
HETATM    1  N   UNL     1     -42.886  55.877 -56.791  1.00  0.00    -0.306 N 
HETATM    2  C   UNL     1     -43.451  56.317 -55.619  1.00  0.00     0.323 C 
HETATM    3  N   UNL     1     -43.021  55.607 -54.499  1.00  0.00    -0.328 N 
HETATM    4  C   UNL     1     -43.405  56.170 -53.201  1.00  0.00     0.185 C 
HETATM    5  C   UNL     1     -42.593  55.516 -52.141  1.00  0.00     0.035 A 
HETATM    6  C   UNL     1     -41.815  54.384 -52.269  1.00  0.00    -0.020 A 
HETATM    7  C   UNL     1     -41.672  53.692 -53.578  1.00  0.00     0.061 C 
HETATM    8  C   UNL     1     -42.789  54.144 -54.539  1.00  0.00     0.132 C 
HETATM    9  N   UNL     1     -42.505  55.946 -50.846  1.00  0.00    -0.357 N 
HETATM   10  H   UNL     1     -42.963  56.761 -50.461  1.00  0.00     0.166 HD
HETATM   11  C   UNL     1     -41.686  55.099 -50.127  1.00  0.00     0.043 A 
HETATM   12  C   UNL     1     -41.242  54.103 -51.001  1.00  0.00    -0.001 A 
HETATM   13  C   UNL     1     -41.307  55.141 -48.779  1.00  0.00     0.030 A 
HETATM   14  C   UNL     1     -40.455  54.136 -48.313  1.00  0.00     0.002 A 
HETATM   15  C   UNL     1     -39.999  53.130 -49.161  1.00  0.00     0.001 A 
HETATM   16  C   UNL     1     -40.383  53.103 -50.507  1.00  0.00     0.014 A 
HETATM   17  O   UNL     1     -44.210  57.279 -55.530  1.00  0.00    -0.247 OA
HETATM   18  H   UNL     1     -41.987  55.424 -56.694  1.00  0.00     0.171 HD
ENDROOT
BRANCH   1  19
HETATM   19  C   UNL     1     -43.195  56.296 -58.100  1.00  0.00     0.071 A 
HETATM   20  C   UNL     1     -42.667  57.527 -58.523  1.00  0.00     0.095 A 
HETATM   21  C   UNL     1     -42.868  57.991 -59.824  1.00  0.00     0.041 A 
HETATM   22  C   UNL     1     -43.630  57.230 -60.708  1.00  0.00     0.026 A 
HETATM   23  C   UNL     1     -44.175  56.015 -60.287  1.00  0.00     0.036 A 
HETATM   24  C   UNL     1     -43.960  55.541 -58.991  1.00  0.00     0.056 A 
HETATM   25 CL   UNL     1     -45.106  55.080 -61.394  1.00  0.00    -0.084 Cl
BRANCH  20  26
HETATM   26  O   UNL     1     -41.915  58.264 -57.639  1.00  0.00    -0.354 OA
HETATM   27  C   UNL     1     -41.794  59.611 -58.103  1.00  0.00     0.210 C 
ENDBRANCH  20  26
ENDBRANCH   1  19
TORSDOF 2
ENDMDL
MODEL 7
REMARK VINA RESULT:      -7.7      4.625      5.661
REMARK  2 active torsions:
REMARK  status: ('A' for Active; 'I' for Inactive)
REMARK    1  A    between atoms: O_2  and  C_3 
REMARK    2  A    between atoms: C_4  and  N_5 
REMARK       I    between atoms: N_5  and  C_6 
REMARK       I    between atoms: C_6  and  N_7 
ROOT
HETATM    1  N   UNL     1     -42.337  58.214 -56.595  1.00  0.00    -0.306 N 
HETATM    2  C   UNL     1     -42.362  57.987 -55.241  1.00  0.00     0.323 C 
HETATM    3  N   UNL     1     -42.122  56.657 -54.901  1.00  0.00    -0.328 N 
HETATM    4  C   UNL     1     -41.908  56.392 -53.475  1.00  0.00     0.185 C 
HETATM    5  C   UNL     1     -41.329  55.029 -53.327  1.00  0.00     0.035 A 
HETATM    6  C   UNL     1     -41.255  54.048 -54.294  1.00  0.00    -0.020 A 
HETATM    7  C   UNL     1     -41.739  54.293 -55.679  1.00  0.00     0.061 C 
HETATM    8  C   UNL     1     -42.655  55.532 -55.706  1.00  0.00     0.132 C 
HETATM    9  N   UNL     1     -40.781  54.533 -52.177  1.00  0.00    -0.357 N 
HETATM   10  H   UNL     1     -40.689  55.032 -51.303  1.00  0.00     0.166 HD
HETATM   11  C   UNL     1     -40.361  53.235 -52.382  1.00  0.00     0.043 A 
HETATM   12  C   UNL     1     -40.652  52.904 -53.709  1.00  0.00    -0.001 A 
HETATM   13  C   UNL     1     -39.747  52.337 -51.500  1.00  0.00     0.030 A 
HETATM   14  C   UNL     1     -39.428  51.066 -51.986  1.00  0.00     0.002 A 
HETATM   15  C   UNL     1     -39.709  50.708 -53.302  1.00  0.00     0.001 A 
HETATM   16  C   UNL     1     -40.319  51.618 -54.175  1.00  0.00     0.014 A 
HETATM   17  O   UNL     1     -42.512  58.861 -54.391  1.00  0.00    -0.247 OA
HETATM   18  H   UNL     1     -41.780  57.564 -57.133  1.00  0.00     0.171 HD
ENDROOT
BRANCH   1  19
HETATM   19  C   UNL     1     -42.656  59.410 -57.269  1.00  0.00     0.071 A 
HETATM   20  C   UNL     1     -43.976  59.559 -57.726  1.00  0.00     0.095 A 
HETATM   21  C   UNL     1     -44.398  60.735 -58.346  1.00  0.00     0.041 A 
HETATM   22  C   UNL     1     -43.483  61.768 -58.541  1.00  0.00     0.026 A 
HETATM   23  C   UNL     1     -42.164  61.618 -58.108  1.00  0.00     0.036 A 
HETATM   24  C   UNL     1     -41.745  60.448 -57.471  1.00  0.00     0.056 A 
HETATM   25 CL   UNL     1     -41.046  62.906 -58.347  1.00  0.00    -0.084 Cl
BRANCH  20  26
HETATM   26  O   UNL     1     -44.867  58.531 -57.522  1.00  0.00    -0.354 OA
HETATM   27  C   UNL     1     -45.291  57.995 -58.778  1.00  0.00     0.210 C 
ENDBRANCH  20  26
ENDBRANCH   1  19
TORSDOF 2
ENDMDL
MODEL 8
REMARK VINA RESULT:      -7.7      4.770      8.773
REMARK  2 active torsions:
REMARK  status: ('A' for Active; 'I' for Inactive)
REMARK    1  A    between atoms: O_2  and  C_3 
REMARK    2  A    between atoms: C_4  and  N_5 
REMARK       I    between atoms: N_5  and  C_6 
REMARK       I    between atoms: C_6  and  N_7 
ROOT
HETATM    1  N   UNL     1     -41.170  54.662 -53.320  1.00  0.00    -0.306 N 
HETATM    2  C   UNL     1     -42.477  55.047 -53.149  1.00  0.00     0.323 C 
HETATM    3  N   UNL     1     -42.690  56.400 -53.405  1.00  0.00    -0.328 N 
HETATM    4  C   UNL     1     -44.092  56.824 -53.465  1.00  0.00     0.185 C 
HETATM    5  C   UNL     1     -44.153  58.177 -54.081  1.00  0.00     0.035 A 
HETATM    6  C   UNL     1     -43.098  59.036 -54.308  1.00  0.00    -0.020 A 
HETATM    7  C   UNL     1     -41.701  58.643 -53.976  1.00  0.00     0.061 C 
HETATM    8  C   UNL     1     -41.705  57.438 -53.017  1.00  0.00     0.132 C 
HETATM    9  N   UNL     1     -45.297  58.789 -54.514  1.00  0.00    -0.357 N 
HETATM   10  H   UNL     1     -46.227  58.394 -54.483  1.00  0.00     0.166 HD
HETATM   11  C   UNL     1     -44.998  60.041 -55.010  1.00  0.00     0.043 A 
HETATM   12  C   UNL     1     -43.617  60.223 -54.888  1.00  0.00    -0.001 A 
HETATM   13  C   UNL     1     -45.840  61.018 -55.556  1.00  0.00     0.030 A 
HETATM   14  C   UNL     1     -45.254  62.213 -55.983  1.00  0.00     0.002 A 
HETATM   15  C   UNL     1     -43.882  62.422 -55.871  1.00  0.00     0.001 A 
HETATM   16  C   UNL     1     -43.052  61.435 -55.328  1.00  0.00     0.014 A 
HETATM   17  O   UNL     1     -43.396  54.284 -52.865  1.00  0.00    -0.247 OA
HETATM   18  H   UNL     1     -40.632  55.228 -53.963  1.00  0.00     0.171 HD
ENDROOT
BRANCH   1  19
HETATM   19  C   UNL     1     -40.603  53.405 -53.030  1.00  0.00     0.071 A 
HETATM   20  C   UNL     1     -40.178  53.180 -51.710  1.00  0.00     0.095 A 
HETATM   21  C   UNL     1     -39.664  51.944 -51.317  1.00  0.00     0.041 A 
HETATM   22  C   UNL     1     -39.543  50.926 -52.260  1.00  0.00     0.026 A 
HETATM   23  C   UNL     1     -39.944  51.149 -53.579  1.00  0.00     0.036 A 
HETATM   24  C   UNL     1     -40.475  52.381 -53.969  1.00  0.00     0.056 A 
HETATM   25 CL   UNL     1     -39.798  49.879 -54.732  1.00  0.00    -0.084 Cl
BRANCH  20  26
HETATM   26  O   UNL     1     -40.308  54.195 -50.791  1.00  0.00    -0.354 OA
HETATM   27  C   UNL     1     -40.642  53.655 -49.510  1.00  0.00     0.210 C 
ENDBRANCH  20  26
ENDBRANCH   1  19
TORSDOF 2
ENDMDL
MODEL 9
REMARK VINA RESULT:      -7.6      2.298      3.015
REMARK  2 active torsions:
REMARK  status: ('A' for Active; 'I' for Inactive)
REMARK    1  A    between atoms: O_2  and  C_3 
REMARK    2  A    between atoms: C_4  and  N_5 
REMARK       I    between atoms: N_5  and  C_6 
REMARK       I    between atoms: C_6  and  N_7 
ROOT
HETATM    1  N   UNL     1     -44.320  60.478 -50.036  1.00  0.00    -0.306 N 
HETATM    2  C   UNL     1     -44.936  59.314 -50.426  1.00  0.00     0.323 C 
HETATM    3  N   UNL     1     -44.211  58.600 -51.378  1.00  0.00    -0.328 N 
HETATM    4  C   UNL     1     -44.695  57.246 -51.665  1.00  0.00     0.185 C 
HETATM    5  C   UNL     1     -43.639  56.511 -52.412  1.00  0.00     0.035 A 
HETATM    6  C   UNL     1     -42.511  57.047 -53.000  1.00  0.00    -0.020 A 
HETATM    7  C   UNL     1     -42.205  58.500 -52.896  1.00  0.00     0.061 C 
HETATM    8  C   UNL     1     -43.465  59.275 -52.467  1.00  0.00     0.132 C 
HETATM    9  N   UNL     1     -43.636  55.164 -52.641  1.00  0.00    -0.357 N 
HETATM   10  H   UNL     1     -44.335  54.508 -52.320  1.00  0.00     0.166 HD
HETATM   11  C   UNL     1     -42.524  54.818 -53.381  1.00  0.00     0.043 A 
HETATM   12  C   UNL     1     -41.801  55.989 -53.624  1.00  0.00    -0.001 A 
HETATM   13  C   UNL     1     -42.107  53.565 -53.848  1.00  0.00     0.030 A 
HETATM   14  C   UNL     1     -40.922  53.510 -54.586  1.00  0.00     0.002 A 
HETATM   15  C   UNL     1     -40.182  54.661 -54.846  1.00  0.00     0.001 A 
HETATM   16  C   UNL     1     -40.609  55.906 -54.369  1.00  0.00     0.014 A 
HETATM   17  O   UNL     1     -45.985  58.889 -49.952  1.00  0.00    -0.247 OA
HETATM   18  H   UNL     1     -43.314  60.490 -50.136  1.00  0.00     0.171 HD
ENDROOT
BRANCH   1  19
HETATM   19  C   UNL     1     -44.837  61.477 -49.189  1.00  0.00     0.071 A 
HETATM   20  C   UNL     1     -45.529  62.540 -49.794  1.00  0.00     0.095 A 
HETATM   21  C   UNL     1     -46.129  63.540 -49.029  1.00  0.00     0.041 A 
HETATM   22  C   UNL     1     -46.014  63.498 -47.641  1.00  0.00     0.026 A 
HETATM   23  C   UNL     1     -45.310  62.456 -47.034  1.00  0.00     0.036 A 
HETATM   24  C   UNL     1     -44.724  61.444 -47.798  1.00  0.00     0.056 A 
HETATM   25 CL   UNL     1     -45.184  62.411 -45.317  1.00  0.00    -0.084 Cl
BRANCH  20  26
HETATM   26  O   UNL     1     -45.636  62.564 -51.165  1.00  0.00    -0.354 OA
HETATM   27  C   UNL     1     -47.005  62.417 -51.551  1.00  0.00     0.210 C 
ENDBRANCH  20  26
ENDBRANCH   1  19
TORSDOF 2
ENDMDL
MODEL 10
REMARK VINA RESULT:      -7.6      4.879      6.770
REMARK  2 active torsions:
REMARK  status: ('A' for Active; 'I' for Inactive)
REMARK    1  A    between atoms: O_2  and  C_3 
REMARK    2  A    between atoms: C_4  and  N_5 
REMARK       I    between atoms: N_5  and  C_6 
REMARK       I    between atoms: C_6  and  N_7 
ROOT
HETATM    1  N   UNL     1     -44.258  57.106 -56.345  1.00  0.00    -0.306 N 
HETATM    2  C   UNL     1     -44.518  57.436 -55.038  1.00  0.00     0.323 C 
HETATM    3  N   UNL     1     -43.968  56.538 -54.124  1.00  0.00    -0.328 N 
HETATM    4  C   UNL     1     -44.011  56.954 -52.718  1.00  0.00     0.185 C 
HETATM    5  C   UNL     1     -43.094  56.080 -51.937  1.00  0.00     0.035 A 
HETATM    6  C   UNL     1     -42.509  54.903 -52.355  1.00  0.00    -0.020 A 
HETATM    7  C   UNL     1     -42.720  54.387 -53.735  1.00  0.00     0.061 C 
HETATM    8  C   UNL     1     -43.938  55.078 -54.377  1.00  0.00     0.132 C 
HETATM    9  N   UNL     1     -42.696  56.317 -50.650  1.00  0.00    -0.357 N 
HETATM   10  H   UNL     1     -42.960  57.113 -50.087  1.00  0.00     0.166 HD
HETATM   11  C   UNL     1     -41.867  55.300 -50.224  1.00  0.00     0.043 A 
HETATM   12  C   UNL     1     -41.737  54.393 -51.280  1.00  0.00    -0.001 A 
HETATM   13  C   UNL     1     -41.225  55.117 -48.992  1.00  0.00     0.030 A 
HETATM   14  C   UNL     1     -40.434  53.976 -48.836  1.00  0.00     0.002 A 
HETATM   15  C   UNL     1     -40.288  53.055 -49.870  1.00  0.00     0.001 A 
HETATM   16  C   UNL     1     -40.932  53.252 -51.098  1.00  0.00     0.014 A 
HETATM   17  O   UNL     1     -45.114  58.448 -54.680  1.00  0.00    -0.247 OA
HETATM   18  H   UNL     1     -43.423  56.555 -56.495  1.00  0.00     0.171 HD
ENDROOT
BRANCH   1  19
HETATM   19  C   UNL     1     -44.764  57.729 -57.502  1.00  0.00     0.071 A 
HETATM   20  C   UNL     1     -43.976  57.669 -58.664  1.00  0.00     0.095 A 
HETATM   21  C   UNL     1     -44.426  58.203 -59.871  1.00  0.00     0.041 A 
HETATM   22  C   UNL     1     -45.668  58.834 -59.916  1.00  0.00     0.026 A 
HETATM   23  C   UNL     1     -46.447  58.916 -58.761  1.00  0.00     0.036 A 
HETATM   24  C   UNL     1     -46.006  58.366 -57.555  1.00  0.00     0.056 A 
HETATM   25 CL   UNL     1     -47.984  59.689 -58.833  1.00  0.00    -0.084 Cl
BRANCH  20  26
HETATM   26  O   UNL     1     -42.754  57.040 -58.602  1.00  0.00    -0.354 OA
HETATM   27  C   UNL     1     -42.707  55.970 -59.550  1.00  0.00     0.210 C 
ENDBRANCH  20  26
ENDBRANCH   1  19
TORSDOF 2
ENDMDL
