MODEL 1
REMARK VINA RESULT:      -8.0      0.000      0.000
REMARK  9 active torsions:
REMARK  status: ('A' for Active; 'I' for Inactive)
REMARK    1  A    between atoms: C_4  and  O_5 
REMARK    2  A    between atoms: O_5  and  C_6 
REMARK    3  A    between atoms: C_6  and  C_7 
REMARK       I    between atoms: C_7  and  N_8 
REMARK    4  A    between atoms: N_8  and  C_9 
REMARK    5  A    between atoms: C_9  and  N_10 
REMARK    6  A    between atoms: N_10  and  C_11 
REMARK    7  A    between atoms: C_14  and  N_15 
REMARK    8  A    between atoms: N_18  and  C_20 
REMARK    9  A    between atoms: C_20  and  C_21 
ROOT
HETATM    1  C   UNL     1     -44.655  57.185 -54.657  1.00  0.00     0.034 A 
HETATM    2  C   UNL     1     -43.789  56.100 -54.564  1.00  0.00     0.032 A 
HETATM    3  C   UNL     1     -43.268  55.702 -53.324  1.00  0.00     0.031 A 
HETATM    4  C   UNL     1     -43.623  56.349 -52.137  1.00  0.00     0.030 A 
HETATM    5  C   UNL     1     -44.459  57.470 -52.256  1.00  0.00     0.031 A 
HETATM    6  C   UNL     1     -44.950  57.897 -53.496  1.00  0.00     0.032 A 
ENDROOT
BRANCH   1   7
HETATM    7  N   UNL     1     -45.194  57.657 -55.869  1.00  0.00    -0.333 N 
HETATM    8  H   UNL     1     -46.207  57.564 -55.959  1.00  0.00     0.168 HD
BRANCH   7   9
HETATM    9  C   UNL     1     -44.580  58.108 -57.015  1.00  0.00     0.178 C 
HETATM   10  S   UNL     1     -44.541  57.388 -58.525  1.00  0.00    -0.040 SA
BRANCH   9  11
HETATM   11  N   UNL     1     -43.949  59.332 -56.894  1.00  0.00    -0.302 N 
HETATM   12  C   UNL     1     -44.433  60.518 -56.354  1.00  0.00     0.248 C 
HETATM   13  O   UNL     1     -45.605  60.689 -56.019  1.00  0.00    -0.271 OA
HETATM   14  H   UNL     1     -42.995  59.350 -57.239  1.00  0.00     0.171 HD
BRANCH  12  15
HETATM   15  C   UNL     1     -43.356  61.584 -56.196  1.00  0.00     0.278 C 
BRANCH  15  16
HETATM   16  O   UNL     1     -43.313  62.100 -54.872  1.00  0.00    -0.342 OA
BRANCH  16  17
HETATM   17  C   UNL     1     -42.790  61.293 -53.898  1.00  0.00     0.070 A 
HETATM   18  C   UNL     1     -41.913  60.223 -54.098  1.00  0.00     0.043 A 
HETATM   19  C   UNL     1     -41.433  59.481 -53.009  1.00  0.00    -0.059 A 
HETATM   20  C   UNL     1     -40.507  58.321 -53.230  1.00  0.00     0.048 C 
HETATM   21  C   UNL     1     -41.869  59.798 -51.717  1.00  0.00     0.013 A 
HETATM   22  C   UNL     1     -42.749  60.864 -51.502  1.00  0.00    -0.059 A 
HETATM   23  C   UNL     1     -43.212  61.598 -52.601  1.00  0.00     0.043 A 
HETATM   24  C   UNL     1     -43.219  61.180 -50.112  1.00  0.00     0.048 C 
ENDBRANCH  16  17
ENDBRANCH  15  16
ENDBRANCH  12  15
ENDBRANCH   9  11
ENDBRANCH   7   9
ENDBRANCH   1   7
BRANCH   4  25
HETATM   25  N   UNL     1     -43.181  55.954 -50.872  1.00  0.00    -0.378 N 
HETATM   26  C   UNL     1     -41.920  56.487 -50.326  1.00  0.00     0.150 C 
HETATM   27  C   UNL     1     -40.708  55.594 -50.667  1.00  0.00     0.255 C 
HETATM   28  N   UNL     1     -40.978  54.135 -50.310  1.00  0.00    -0.064 N 
HETATM   29  H   UNL     1     -41.111  54.088 -49.290  1.00  0.00     0.280 HD
HETATM   30  C   UNL     1     -42.279  53.641 -50.944  1.00  0.00     0.255 C 
HETATM   31  C   UNL     1     -43.456  54.545 -50.522  1.00  0.00     0.150 C 
BRANCH  28  32
HETATM   32  C   UNL     1     -39.816  53.226 -50.636  1.00  0.00     0.275 C 
BRANCH  32  33
HETATM   33  C   UNL     1     -39.951  52.524 -51.961  1.00  0.00    -0.011 A 
HETATM   34  C   UNL     1     -39.854  51.126 -52.077  1.00  0.00     0.042 A 
HETATM   35 CL   UNL     1     -39.547  50.136 -50.693  1.00  0.00    -0.084 Cl
HETATM   36  C   UNL     1     -39.972  50.499 -53.319  1.00  0.00     0.024 A 
HETATM   37  C   UNL     1     -40.190  51.262 -54.464  1.00  0.00     0.002 A 
HETATM   38  C   UNL     1     -40.290  52.648 -54.369  1.00  0.00     0.001 A 
HETATM   39  C   UNL     1     -40.175  53.277 -53.128  1.00  0.00     0.010 A 
ENDBRANCH  32  33
ENDBRANCH  28  32
ENDBRANCH   4  25
TORSDOF 9
ENDMDL
MODEL 2
REMARK VINA RESULT:      -7.9      2.828      5.193
REMARK  9 active torsions:
REMARK  status: ('A' for Active; 'I' for Inactive)
REMARK    1  A    between atoms: C_4  and  O_5 
REMARK    2  A    between atoms: O_5  and  C_6 
REMARK    3  A    between atoms: C_6  and  C_7 
REMARK       I    between atoms: C_7  and  N_8 
REMARK    4  A    between atoms: N_8  and  C_9 
REMARK    5  A    between atoms: C_9  and  N_10 
REMARK    6  A    between atoms: N_10  and  C_11 
REMARK    7  A    between atoms: C_14  and  N_15 
REMARK    8  A    between atoms: N_18  and  C_20 
REMARK    9  A    between atoms: C_20  and  C_21 
ROOT
HETATM    1  C   UNL     1     -44.196  59.538 -55.934  1.00  0.00     0.034 A 
HETATM    2  C   UNL     1     -43.599  58.429 -56.524  1.00  0.00     0.032 A 
HETATM    3  C   UNL     1     -43.485  57.217 -55.826  1.00  0.00     0.031 A 
HETATM    4  C   UNL     1     -43.994  57.065 -54.534  1.00  0.00     0.030 A 
HETATM    5  C   UNL     1     -44.549  58.207 -53.936  1.00  0.00     0.031 A 
HETATM    6  C   UNL     1     -44.630  59.430 -54.613  1.00  0.00     0.032 A 
ENDROOT
BRANCH   1   7
HETATM    7  N   UNL     1     -44.321  60.790 -56.563  1.00  0.00    -0.333 N 
HETATM    8  H   UNL     1     -43.564  61.450 -56.373  1.00  0.00     0.168 HD
BRANCH   7   9
HETATM    9  C   UNL     1     -45.353  61.336 -57.292  1.00  0.00     0.178 C 
HETATM   10  S   UNL     1     -46.268  62.692 -56.944  1.00  0.00    -0.040 SA
BRANCH   9  11
HETATM   11  N   UNL     1     -45.633  60.686 -58.480  1.00  0.00    -0.302 N 
HETATM   12  C   UNL     1     -46.624  59.752 -58.756  1.00  0.00     0.248 C 
HETATM   13  O   UNL     1     -47.341  59.240 -57.896  1.00  0.00    -0.271 OA
HETATM   14  H   UNL     1     -45.031  60.947 -59.255  1.00  0.00     0.171 HD
BRANCH  12  15
HETATM   15  C   UNL     1     -46.752  59.438 -60.242  1.00  0.00     0.278 C 
BRANCH  15  16
HETATM   16  O   UNL     1     -46.721  58.040 -60.491  1.00  0.00    -0.342 OA
BRANCH  16  17
HETATM   17  C   UNL     1     -45.539  57.385 -60.270  1.00  0.00     0.070 A 
HETATM   18  C   UNL     1     -44.264  57.955 -60.306  1.00  0.00     0.043 A 
HETATM   19  C   UNL     1     -43.127  57.176 -60.043  1.00  0.00    -0.059 A 
HETATM   20  C   UNL     1     -41.758  57.788 -60.101  1.00  0.00     0.048 C 
HETATM   21  C   UNL     1     -43.278  55.810 -59.778  1.00  0.00     0.013 A 
HETATM   22  C   UNL     1     -44.548  55.225 -59.743  1.00  0.00    -0.059 A 
HETATM   23  C   UNL     1     -45.671  56.020 -60.001  1.00  0.00     0.043 A 
HETATM   24  C   UNL     1     -44.690  53.756 -59.473  1.00  0.00     0.048 C 
ENDBRANCH  16  17
ENDBRANCH  15  16
ENDBRANCH  12  15
ENDBRANCH   9  11
ENDBRANCH   7   9
ENDBRANCH   1   7
BRANCH   4  25
HETATM   25  N   UNL     1     -43.960  55.865 -53.820  1.00  0.00    -0.378 N 
HETATM   26  C   UNL     1     -43.203  55.772 -52.559  1.00  0.00     0.150 C 
HETATM   27  C   UNL     1     -41.749  55.302 -52.778  1.00  0.00     0.255 C 
HETATM   28  N   UNL     1     -41.700  54.038 -53.633  1.00  0.00    -0.064 N 
HETATM   29  H   UNL     1     -42.183  53.294 -53.110  1.00  0.00     0.280 HD
HETATM   30  C   UNL     1     -42.471  54.223 -54.941  1.00  0.00     0.255 C 
HETATM   31  C   UNL     1     -43.927  54.642 -54.649  1.00  0.00     0.150 C 
BRANCH  28  32
HETATM   32  C   UNL     1     -40.292  53.549 -53.878  1.00  0.00     0.275 C 
BRANCH  32  33
HETATM   33  C   UNL     1     -40.044  52.147 -53.390  1.00  0.00    -0.011 A 
HETATM   34  C   UNL     1     -39.743  51.869 -52.046  1.00  0.00     0.042 A 
HETATM   35 CL   UNL     1     -39.617  53.138 -50.879  1.00  0.00    -0.084 Cl
HETATM   36  C   UNL     1     -39.507  50.560 -51.620  1.00  0.00     0.024 A 
HETATM   37  C   UNL     1     -39.569  49.510 -52.533  1.00  0.00     0.002 A 
HETATM   38  C   UNL     1     -39.867  49.766 -53.869  1.00  0.00     0.001 A 
HETATM   39  C   UNL     1     -40.106  51.074 -54.297  1.00  0.00     0.010 A 
ENDBRANCH  32  33
ENDBRANCH  28  32
ENDBRANCH   4  25
TORSDOF 9
ENDMDL
MODEL 3
REMARK VINA RESULT:      -7.9      2.669      5.084
REMARK  9 active torsions:
REMARK  status: ('A' for Active; 'I' for Inactive)
REMARK    1  A    between atoms: C_4  and  O_5 
REMARK    2  A    between atoms: O_5  and  C_6 
REMARK    3  A    between atoms: C_6  and  C_7 
REMARK       I    between atoms: C_7  and  N_8 
REMARK    4  A    between atoms: N_8  and  C_9 
REMARK    5  A    between atoms: C_9  and  N_10 
REMARK    6  A    between atoms: N_10  and  C_11 
REMARK    7  A    between atoms: C_14  and  N_15 
REMARK    8  A    between atoms: N_18  and  C_20 
REMARK    9  A    between atoms: C_20  and  C_21 
ROOT
HETATM    1  C   UNL     1     -44.590  59.870 -55.228  1.00  0.00     0.034 A 
HETATM    2  C   UNL     1     -45.139  58.713 -55.772  1.00  0.00     0.032 A 
HETATM    3  C   UNL     1     -44.966  57.471 -55.143  1.00  0.00     0.031 A 
HETATM    4  C   UNL     1     -44.271  57.351 -53.937  1.00  0.00     0.030 A 
HETATM    5  C   UNL     1     -43.682  58.519 -53.429  1.00  0.00     0.031 A 
HETATM    6  C   UNL     1     -43.818  59.755 -54.073  1.00  0.00     0.032 A 
ENDROOT
BRANCH   1   7
HETATM    7  N   UNL     1     -44.700  61.143 -55.817  1.00  0.00    -0.333 N 
HETATM    8  H   UNL     1     -45.633  61.558 -55.783  1.00  0.00     0.168 HD
BRANCH   7   9
HETATM    9  C   UNL     1     -43.798  61.881 -56.549  1.00  0.00     0.178 C 
HETATM   10  S   UNL     1     -43.248  63.434 -56.259  1.00  0.00    -0.040 SA
BRANCH   9  11
HETATM   11  N   UNL     1     -43.261  61.226 -57.641  1.00  0.00    -0.302 N 
HETATM   12  C   UNL     1     -42.142  60.404 -57.707  1.00  0.00     0.248 C 
HETATM   13  O   UNL     1     -41.349  60.252 -56.779  1.00  0.00    -0.271 OA
HETATM   14  H   UNL     1     -43.772  61.361 -58.508  1.00  0.00     0.171 HD
BRANCH  12  15
HETATM   15  C   UNL     1     -42.006  59.688 -59.046  1.00  0.00     0.278 C 
BRANCH  15  16
HETATM   16  O   UNL     1     -42.127  58.279 -58.906  1.00  0.00    -0.342 OA
BRANCH  16  17
HETATM   17  C   UNL     1     -43.321  57.711 -59.260  1.00  0.00     0.070 A 
HETATM   18  C   UNL     1     -44.490  58.397 -59.601  1.00  0.00     0.043 A 
HETATM   19  C   UNL     1     -45.649  57.695 -59.963  1.00  0.00    -0.059 A 
HETATM   20  C   UNL     1     -46.908  58.435 -60.309  1.00  0.00     0.048 C 
HETATM   21  C   UNL     1     -45.636  56.295 -59.947  1.00  0.00     0.013 A 
HETATM   22  C   UNL     1     -44.475  55.595 -59.605  1.00  0.00    -0.059 A 
HETATM   23  C   UNL     1     -43.325  56.314 -59.253  1.00  0.00     0.043 A 
HETATM   24  C   UNL     1     -44.484  54.095 -59.578  1.00  0.00     0.048 C 
ENDBRANCH  16  17
ENDBRANCH  15  16
ENDBRANCH  12  15
ENDBRANCH   9  11
ENDBRANCH   7   9
ENDBRANCH   1   7
BRANCH   4  25
HETATM   25  N   UNL     1     -44.121  56.149 -53.241  1.00  0.00    -0.378 N 
HETATM   26  C   UNL     1     -43.193  56.061 -52.100  1.00  0.00     0.150 C 
HETATM   27  C   UNL     1     -41.779  55.610 -52.524  1.00  0.00     0.255 C 
HETATM   28  N   UNL     1     -41.835  54.350 -53.384  1.00  0.00    -0.064 N 
HETATM   29  H   UNL     1     -42.231  53.599 -52.802  1.00  0.00     0.280 HD
HETATM   30  C   UNL     1     -42.786  54.529 -54.569  1.00  0.00     0.255 C 
HETATM   31  C   UNL     1     -44.191  54.929 -54.072  1.00  0.00     0.150 C 
BRANCH  28  32
HETATM   32  C   UNL     1     -40.470  53.881 -53.828  1.00  0.00     0.275 C 
BRANCH  32  33
HETATM   33  C   UNL     1     -40.181  52.444 -53.481  1.00  0.00    -0.011 A 
HETATM   34  C   UNL     1     -39.788  52.055 -52.189  1.00  0.00     0.042 A 
HETATM   35 CL   UNL     1     -39.590  53.220 -50.928  1.00  0.00    -0.084 Cl
HETATM   36  C   UNL     1     -39.516  50.717 -51.895  1.00  0.00     0.024 A 
HETATM   37  C   UNL     1     -39.634  49.749 -52.890  1.00  0.00     0.002 A 
HETATM   38  C   UNL     1     -40.024  50.116 -54.175  1.00  0.00     0.001 A 
HETATM   39  C   UNL     1     -40.299  51.453 -54.471  1.00  0.00     0.010 A 
ENDBRANCH  32  33
ENDBRANCH  28  32
ENDBRANCH   4  25
TORSDOF 9
ENDMDL
MODEL 4
REMARK VINA RESULT:      -7.9      4.481      9.228
REMARK  9 active torsions:
REMARK  status: ('A' for Active; 'I' for Inactive)
REMARK    1  A    between atoms: C_4  and  O_5 
REMARK    2  A    between atoms: O_5  and  C_6 
REMARK    3  A    between atoms: C_6  and  C_7 
REMARK       I    between atoms: C_7  and  N_8 
REMARK    4  A    between atoms: N_8  and  C_9 
REMARK    5  A    between atoms: C_9  and  N_10 
REMARK    6  A    between atoms: N_10  and  C_11 
REMARK    7  A    between atoms: C_14  and  N_15 
REMARK    8  A    between atoms: N_18  and  C_20 
REMARK    9  A    between atoms: C_20  and  C_21 
ROOT
HETATM    1  C   UNL     1     -44.221  56.723 -54.166  1.00  0.00     0.034 A 
HETATM    2  C   UNL     1     -44.962  57.669 -54.866  1.00  0.00     0.032 A 
HETATM    3  C   UNL     1     -44.678  57.954 -56.210  1.00  0.00     0.031 A 
HETATM    4  C   UNL     1     -43.670  57.280 -56.905  1.00  0.00     0.030 A 
HETATM    5  C   UNL     1     -42.901  56.365 -56.170  1.00  0.00     0.031 A 
HETATM    6  C   UNL     1     -43.155  56.105 -54.817  1.00  0.00     0.032 A 
ENDROOT
BRANCH   1   7
HETATM    7  N   UNL     1     -44.432  56.406 -52.812  1.00  0.00    -0.333 N 
HETATM    8  H   UNL     1     -44.962  55.548 -52.644  1.00  0.00     0.168 HD
BRANCH   7   9
HETATM    9  C   UNL     1     -44.161  57.116 -51.664  1.00  0.00     0.178 C 
HETATM   10  S   UNL     1     -44.798  58.584 -51.175  1.00  0.00    -0.040 SA
BRANCH   9  11
HETATM   11  N   UNL     1     -43.270  56.507 -50.800  1.00  0.00    -0.302 N 
HETATM   12  C   UNL     1     -43.163  55.164 -50.455  1.00  0.00     0.248 C 
HETATM   13  O   UNL     1     -43.982  54.306 -50.781  1.00  0.00    -0.271 OA
HETATM   14  H   UNL     1     -42.597  57.136 -50.375  1.00  0.00     0.171 HD
BRANCH  12  15
HETATM   15  C   UNL     1     -41.909  54.855 -49.646  1.00  0.00     0.278 C 
BRANCH  15  16
HETATM   16  O   UNL     1     -40.733  54.944 -50.439  1.00  0.00    -0.342 OA
BRANCH  16  17
HETATM   17  C   UNL     1     -40.465  53.904 -51.288  1.00  0.00     0.070 A 
HETATM   18  C   UNL     1     -40.080  52.615 -50.915  1.00  0.00     0.043 A 
HETATM   19  C   UNL     1     -39.850  51.629 -51.886  1.00  0.00    -0.059 A 
HETATM   20  C   UNL     1     -39.417  50.250 -51.482  1.00  0.00     0.048 C 
HETATM   21  C   UNL     1     -39.977  51.959 -53.241  1.00  0.00     0.013 A 
HETATM   22  C   UNL     1     -40.359  53.247 -53.630  1.00  0.00    -0.059 A 
HETATM   23  C   UNL     1     -40.590  54.215 -52.645  1.00  0.00     0.043 A 
HETATM   24  C   UNL     1     -40.474  53.587 -55.087  1.00  0.00     0.048 C 
ENDBRANCH  16  17
ENDBRANCH  15  16
ENDBRANCH  12  15
ENDBRANCH   9  11
ENDBRANCH   7   9
ENDBRANCH   1   7
BRANCH   4  25
HETATM   25  N   UNL     1     -43.387  57.483 -58.258  1.00  0.00    -0.378 N 
HETATM   26  C   UNL     1     -42.068  57.992 -58.672  1.00  0.00     0.150 C 
HETATM   27  C   UNL     1     -42.035  59.532 -58.772  1.00  0.00     0.255 C 
HETATM   28  N   UNL     1     -43.200  60.057 -59.608  1.00  0.00    -0.064 N 
HETATM   29  H   UNL     1     -43.082  59.689 -60.563  1.00  0.00     0.280 HD
HETATM   30  C   UNL     1     -44.537  59.520 -59.095  1.00  0.00     0.255 C 
HETATM   31  C   UNL     1     -44.519  57.977 -59.069  1.00  0.00     0.150 C 
BRANCH  28  32
HETATM   32  C   UNL     1     -43.208  61.563 -59.723  1.00  0.00     0.275 C 
BRANCH  32  33
HETATM   33  C   UNL     1     -41.841  62.163 -59.917  1.00  0.00    -0.011 A 
HETATM   34  C   UNL     1     -41.233  62.236 -61.182  1.00  0.00     0.042 A 
HETATM   35 CL   UNL     1     -42.021  61.612 -62.589  1.00  0.00    -0.084 Cl
HETATM   36  C   UNL     1     -39.959  62.788 -61.335  1.00  0.00     0.024 A 
HETATM   37  C   UNL     1     -39.276  63.275 -60.223  1.00  0.00     0.002 A 
HETATM   38  C   UNL     1     -39.863  63.213 -58.962  1.00  0.00     0.001 A 
HETATM   39  C   UNL     1     -41.138  62.663 -58.807  1.00  0.00     0.010 A 
ENDBRANCH  32  33
ENDBRANCH  28  32
ENDBRANCH   4  25
TORSDOF 9
ENDMDL
MODEL 5
REMARK VINA RESULT:      -7.8      2.519      4.573
REMARK  9 active torsions:
REMARK  status: ('A' for Active; 'I' for Inactive)
REMARK    1  A    between atoms: C_4  and  O_5 
REMARK    2  A    between atoms: O_5  and  C_6 
REMARK    3  A    between atoms: C_6  and  C_7 
REMARK       I    between atoms: C_7  and  N_8 
REMARK    4  A    between atoms: N_8  and  C_9 
REMARK    5  A    between atoms: C_9  and  N_10 
REMARK    6  A    between atoms: N_10  and  C_11 
REMARK    7  A    between atoms: C_14  and  N_15 
REMARK    8  A    between atoms: N_18  and  C_20 
REMARK    9  A    between atoms: C_20  and  C_21 
ROOT
HETATM    1  C   UNL     1     -45.203  59.055 -54.636  1.00  0.00     0.034 A 
HETATM    2  C   UNL     1     -44.691  59.521 -53.429  1.00  0.00     0.032 A 
HETATM    3  C   UNL     1     -44.059  58.647 -52.532  1.00  0.00     0.031 A 
HETATM    4  C   UNL     1     -43.886  57.292 -52.827  1.00  0.00     0.030 A 
HETATM    5  C   UNL     1     -44.452  56.830 -54.026  1.00  0.00     0.031 A 
HETATM    6  C   UNL     1     -45.119  57.690 -54.907  1.00  0.00     0.032 A 
ENDROOT
BRANCH   1   7
HETATM    7  N   UNL     1     -45.872  59.867 -55.570  1.00  0.00    -0.333 N 
HETATM    8  H   UNL     1     -46.803  59.543 -55.840  1.00  0.00     0.168 HD
BRANCH   7   9
HETATM    9  C   UNL     1     -45.442  60.960 -56.287  1.00  0.00     0.178 C 
HETATM   10  S   UNL     1     -45.679  62.582 -55.951  1.00  0.00    -0.040 SA
BRANCH   9  11
HETATM   11  N   UNL     1     -44.690  60.662 -57.408  1.00  0.00    -0.302 N 
HETATM   12  C   UNL     1     -45.091  60.069 -58.600  1.00  0.00     0.248 C 
HETATM   13  O   UNL     1     -46.202  59.571 -58.777  1.00  0.00    -0.271 OA
HETATM   14  H   UNL     1     -43.713  60.932 -57.345  1.00  0.00     0.171 HD
BRANCH  12  15
HETATM   15  C   UNL     1     -44.016  60.117 -59.680  1.00  0.00     0.278 C 
BRANCH  15  16
HETATM   16  O   UNL     1     -42.961  59.203 -59.416  1.00  0.00    -0.342 OA
BRANCH  16  17
HETATM   17  C   UNL     1     -43.278  57.872 -59.367  1.00  0.00     0.070 A 
HETATM   18  C   UNL     1     -43.968  57.153 -60.345  1.00  0.00     0.043 A 
HETATM   19  C   UNL     1     -44.216  55.782 -60.182  1.00  0.00    -0.059 A 
HETATM   20  C   UNL     1     -44.975  55.017 -61.227  1.00  0.00     0.048 C 
HETATM   21  C   UNL     1     -43.795  55.144 -59.009  1.00  0.00     0.013 A 
HETATM   22  C   UNL     1     -43.106  55.851 -58.019  1.00  0.00    -0.059 A 
HETATM   23  C   UNL     1     -42.862  57.218 -58.203  1.00  0.00     0.043 A 
HETATM   24  C   UNL     1     -42.677  55.155 -56.761  1.00  0.00     0.048 C 
ENDBRANCH  16  17
ENDBRANCH  15  16
ENDBRANCH  12  15
ENDBRANCH   9  11
ENDBRANCH   7   9
ENDBRANCH   1   7
BRANCH   4  25
HETATM   25  N   UNL     1     -43.212  56.394 -51.996  1.00  0.00    -0.378 N 
HETATM   26  C   UNL     1     -41.788  56.599 -51.681  1.00  0.00     0.150 C 
HETATM   27  C   UNL     1     -40.854  55.873 -52.672  1.00  0.00     0.255 C 
HETATM   28  N   UNL     1     -41.254  54.409 -52.838  1.00  0.00    -0.064 N 
HETATM   29  H   UNL     1     -41.136  53.953 -51.922  1.00  0.00     0.280 HD
HETATM   30  C   UNL     1     -42.733  54.276 -53.204  1.00  0.00     0.255 C 
HETATM   31  C   UNL     1     -43.611  54.979 -52.147  1.00  0.00     0.150 C 
BRANCH  28  32
HETATM   32  C   UNL     1     -40.369  53.664 -53.809  1.00  0.00     0.275 C 
BRANCH  32  33
HETATM   33  C   UNL     1     -40.109  52.234 -53.417  1.00  0.00    -0.011 A 
HETATM   34  C   UNL     1     -39.720  51.878 -52.114  1.00  0.00     0.042 A 
HETATM   35 CL   UNL     1     -39.493  53.078 -50.891  1.00  0.00    -0.084 Cl
HETATM   36  C   UNL     1     -39.475  50.544 -51.778  1.00  0.00     0.024 A 
HETATM   37  C   UNL     1     -39.617  49.548 -52.741  1.00  0.00     0.002 A 
HETATM   38  C   UNL     1     -40.003  49.882 -54.037  1.00  0.00     0.001 A 
HETATM   39  C   UNL     1     -40.251  51.214 -54.375  1.00  0.00     0.010 A 
ENDBRANCH  32  33
ENDBRANCH  28  32
ENDBRANCH   4  25
TORSDOF 9
ENDMDL
MODEL 6
REMARK VINA RESULT:      -7.7      4.550      9.371
REMARK  9 active torsions:
REMARK  status: ('A' for Active; 'I' for Inactive)
REMARK    1  A    between atoms: C_4  and  O_5 
REMARK    2  A    between atoms: O_5  and  C_6 
REMARK    3  A    between atoms: C_6  and  C_7 
REMARK       I    between atoms: C_7  and  N_8 
REMARK    4  A    between atoms: N_8  and  C_9 
REMARK    5  A    between atoms: C_9  and  N_10 
REMARK    6  A    between atoms: N_10  and  C_11 
REMARK    7  A    between atoms: C_14  and  N_15 
REMARK    8  A    between atoms: N_18  and  C_20 
REMARK    9  A    between atoms: C_20  and  C_21 
ROOT
HETATM    1  C   UNL     1     -42.908  57.338 -52.824  1.00  0.00     0.034 A 
HETATM    2  C   UNL     1     -44.208  57.332 -53.319  1.00  0.00     0.032 A 
HETATM    3  C   UNL     1     -44.455  57.482 -54.692  1.00  0.00     0.031 A 
HETATM    4  C   UNL     1     -43.413  57.606 -55.615  1.00  0.00     0.030 A 
HETATM    5  C   UNL     1     -42.111  57.659 -55.093  1.00  0.00     0.031 A 
HETATM    6  C   UNL     1     -41.860  57.550 -53.719  1.00  0.00     0.032 A 
ENDROOT
BRANCH   1   7
HETATM    7  N   UNL     1     -42.587  57.220 -51.459  1.00  0.00    -0.333 N 
HETATM    8  H   UNL     1     -43.355  56.920 -50.856  1.00  0.00     0.168 HD
BRANCH   7   9
HETATM    9  C   UNL     1     -41.447  57.560 -50.767  1.00  0.00     0.178 C 
HETATM   10  S   UNL     1     -40.979  59.068 -50.214  1.00  0.00    -0.040 SA
BRANCH   9  11
HETATM   11  N   UNL     1     -40.610  56.501 -50.467  1.00  0.00    -0.302 N 
HETATM   12  C   UNL     1     -40.921  55.273 -49.895  1.00  0.00     0.248 C 
HETATM   13  O   UNL     1     -42.021  54.999 -49.419  1.00  0.00    -0.271 OA
HETATM   14  H   UNL     1     -39.638  56.648 -50.719  1.00  0.00     0.171 HD
BRANCH  12  15
HETATM   15  C   UNL     1     -39.760  54.286 -49.936  1.00  0.00     0.278 C 
BRANCH  15  16
HETATM   16  O   UNL     1     -40.177  52.998 -50.369  1.00  0.00    -0.342 OA
BRANCH  16  17
HETATM   17  C   UNL     1     -40.175  52.756 -51.717  1.00  0.00     0.070 A 
HETATM   18  C   UNL     1     -40.519  53.668 -52.718  1.00  0.00     0.043 A 
HETATM   19  C   UNL     1     -40.460  53.299 -54.070  1.00  0.00    -0.059 A 
HETATM   20  C   UNL     1     -40.849  54.276 -55.142  1.00  0.00     0.048 C 
HETATM   21  C   UNL     1     -40.085  51.994 -54.409  1.00  0.00     0.013 A 
HETATM   22  C   UNL     1     -39.742  51.069 -53.418  1.00  0.00    -0.059 A 
HETATM   23  C   UNL     1     -39.801  51.458 -52.074  1.00  0.00     0.043 A 
HETATM   24  C   UNL     1     -39.358  49.669 -53.798  1.00  0.00     0.048 C 
ENDBRANCH  16  17
ENDBRANCH  15  16
ENDBRANCH  12  15
ENDBRANCH   9  11
ENDBRANCH   7   9
ENDBRANCH   1   7
BRANCH   4  25
HETATM   25  N   UNL     1     -43.602  57.698 -56.996  1.00  0.00    -0.378 N 
HETATM   26  C   UNL     1     -42.452  57.910 -57.891  1.00  0.00     0.150 C 
HETATM   27  C   UNL     1     -42.184  59.407 -58.160  1.00  0.00     0.255 C 
HETATM   28  N   UNL     1     -43.458  60.127 -58.595  1.00  0.00    -0.064 N 
HETATM   29  H   UNL     1     -43.758  59.708 -59.486  1.00  0.00     0.280 HD
HETATM   30  C   UNL     1     -44.595  59.894 -57.598  1.00  0.00     0.255 C 
HETATM   31  C   UNL     1     -44.843  58.382 -57.415  1.00  0.00     0.150 C 
BRANCH  28  32
HETATM   32  C   UNL     1     -43.239  61.598 -58.860  1.00  0.00     0.275 C 
BRANCH  32  33
HETATM   33  C   UNL     1     -42.401  61.875 -60.079  1.00  0.00    -0.011 A 
HETATM   34  C   UNL     1     -41.089  62.370 -59.983  1.00  0.00     0.042 A 
HETATM   35 CL   UNL     1     -40.374  62.713 -58.447  1.00  0.00    -0.084 Cl
HETATM   36  C   UNL     1     -40.335  62.629 -61.130  1.00  0.00     0.024 A 
HETATM   37  C   UNL     1     -40.882  62.396 -62.389  1.00  0.00     0.002 A 
HETATM   38  C   UNL     1     -42.180  61.904 -62.504  1.00  0.00     0.001 A 
HETATM   39  C   UNL     1     -42.936  61.642 -61.359  1.00  0.00     0.010 A 
ENDBRANCH  32  33
ENDBRANCH  28  32
ENDBRANCH   4  25
TORSDOF 9
ENDMDL
MODEL 7
REMARK VINA RESULT:      -7.7      2.946      5.094
REMARK  9 active torsions:
REMARK  status: ('A' for Active; 'I' for Inactive)
REMARK    1  A    between atoms: C_4  and  O_5 
REMARK    2  A    between atoms: O_5  and  C_6 
REMARK    3  A    between atoms: C_6  and  C_7 
REMARK       I    between atoms: C_7  and  N_8 
REMARK    4  A    between atoms: N_8  and  C_9 
REMARK    5  A    between atoms: C_9  and  N_10 
REMARK    6  A    between atoms: N_10  and  C_11 
REMARK    7  A    between atoms: C_14  and  N_15 
REMARK    8  A    between atoms: N_18  and  C_20 
REMARK    9  A    between atoms: C_20  and  C_21 
ROOT
HETATM    1  C   UNL     1     -44.802  58.841 -56.533  1.00  0.00     0.034 A 
HETATM    2  C   UNL     1     -43.496  59.211 -56.227  1.00  0.00     0.032 A 
HETATM    3  C   UNL     1     -42.858  58.713 -55.081  1.00  0.00     0.031 A 
HETATM    4  C   UNL     1     -43.489  57.805 -54.226  1.00  0.00     0.030 A 
HETATM    5  C   UNL     1     -44.823  57.481 -54.524  1.00  0.00     0.031 A 
HETATM    6  C   UNL     1     -45.478  58.006 -55.645  1.00  0.00     0.032 A 
ENDROOT
BRANCH   1   7
HETATM    7  N   UNL     1     -45.512  59.320 -57.649  1.00  0.00    -0.333 N 
HETATM    8  H   UNL     1     -45.045  60.060 -58.176  1.00  0.00     0.168 HD
BRANCH   7   9
HETATM    9  C   UNL     1     -46.790  59.056 -58.087  1.00  0.00     0.178 C 
HETATM   10  S   UNL     1     -48.154  60.015 -57.949  1.00  0.00    -0.040 SA
BRANCH   9  11
HETATM   11  N   UNL     1     -46.939  57.856 -58.757  1.00  0.00    -0.302 N 
HETATM   12  C   UNL     1     -46.993  57.616 -60.125  1.00  0.00     0.248 C 
HETATM   13  O   UNL     1     -47.061  58.504 -60.973  1.00  0.00    -0.271 OA
HETATM   14  H   UNL     1     -47.003  57.042 -58.153  1.00  0.00     0.171 HD
BRANCH  12  15
HETATM   15  C   UNL     1     -46.937  56.133 -60.472  1.00  0.00     0.278 C 
BRANCH  15  16
HETATM   16  O   UNL     1     -45.640  55.740 -60.901  1.00  0.00    -0.342 OA
BRANCH  16  17
HETATM   17  C   UNL     1     -44.581  56.087 -60.106  1.00  0.00     0.070 A 
HETATM   18  C   UNL     1     -44.241  55.500 -58.886  1.00  0.00     0.043 A 
HETATM   19  C   UNL     1     -43.115  55.937 -58.172  1.00  0.00    -0.059 A 
HETATM   20  C   UNL     1     -42.764  55.317 -56.851  1.00  0.00     0.048 C 
HETATM   21  C   UNL     1     -42.351  56.996 -58.678  1.00  0.00     0.013 A 
HETATM   22  C   UNL     1     -42.682  57.596 -59.898  1.00  0.00    -0.059 A 
HETATM   23  C   UNL     1     -43.806  57.141 -60.598  1.00  0.00     0.043 A 
HETATM   24  C   UNL     1     -41.862  58.740 -60.417  1.00  0.00     0.048 C 
ENDBRANCH  16  17
ENDBRANCH  15  16
ENDBRANCH  12  15
ENDBRANCH   9  11
ENDBRANCH   7   9
ENDBRANCH   1   7
BRANCH   4  25
HETATM   25  N   UNL     1     -42.878  57.234 -53.107  1.00  0.00    -0.378 N 
HETATM   26  C   UNL     1     -41.418  57.321 -52.933  1.00  0.00     0.150 C 
HETATM   27  C   UNL     1     -40.679  56.112 -53.544  1.00  0.00     0.255 C 
HETATM   28  N   UNL     1     -41.289  54.794 -53.072  1.00  0.00    -0.064 N 
HETATM   29  H   UNL     1     -41.159  54.745 -52.052  1.00  0.00     0.280 HD
HETATM   30  C   UNL     1     -42.797  54.761 -53.322  1.00  0.00     0.255 C 
HETATM   31  C   UNL     1     -43.479  55.967 -52.643  1.00  0.00     0.150 C 
BRANCH  28  32
HETATM   32  C   UNL     1     -40.597  53.585 -53.655  1.00  0.00     0.275 C 
BRANCH  32  33
HETATM   33  C   UNL     1     -40.315  52.503 -52.646  1.00  0.00    -0.011 A 
HETATM   34  C   UNL     1     -39.904  51.215 -53.031  1.00  0.00     0.042 A 
HETATM   35 CL   UNL     1     -39.723  50.797 -54.699  1.00  0.00    -0.084 Cl
HETATM   36  C   UNL     1     -39.659  50.226 -52.076  1.00  0.00     0.024 A 
HETATM   37  C   UNL     1     -39.821  50.512 -50.722  1.00  0.00     0.002 A 
HETATM   38  C   UNL     1     -40.227  51.782 -50.323  1.00  0.00     0.001 A 
HETATM   39  C   UNL     1     -40.471  52.774 -51.275  1.00  0.00     0.010 A 
ENDBRANCH  32  33
ENDBRANCH  28  32
ENDBRANCH   4  25
TORSDOF 9
ENDMDL
MODEL 8
REMARK VINA RESULT:      -7.6      2.524      4.779
REMARK  9 active torsions:
REMARK  status: ('A' for Active; 'I' for Inactive)
REMARK    1  A    between atoms: C_4  and  O_5 
REMARK    2  A    between atoms: O_5  and  C_6 
REMARK    3  A    between atoms: C_6  and  C_7 
REMARK       I    between atoms: C_7  and  N_8 
REMARK    4  A    between atoms: N_8  and  C_9 
REMARK    5  A    between atoms: C_9  and  N_10 
REMARK    6  A    between atoms: N_10  and  C_11 
REMARK    7  A    between atoms: C_14  and  N_15 
REMARK    8  A    between atoms: N_18  and  C_20 
REMARK    9  A    between atoms: C_20  and  C_21 
ROOT
HETATM    1  C   UNL     1     -44.723  58.617 -54.066  1.00  0.00     0.034 A 
HETATM    2  C   UNL     1     -44.340  57.361 -54.526  1.00  0.00     0.032 A 
HETATM    3  C   UNL     1     -43.937  56.360 -53.629  1.00  0.00     0.031 A 
HETATM    4  C   UNL     1     -43.939  56.568 -52.248  1.00  0.00     0.030 A 
HETATM    5  C   UNL     1     -44.281  57.856 -51.805  1.00  0.00     0.031 A 
HETATM    6  C   UNL     1     -44.646  58.871 -52.697  1.00  0.00     0.032 A 
ENDROOT
BRANCH   1   7
HETATM    7  N   UNL     1     -45.112  59.675 -54.907  1.00  0.00    -0.333 N 
HETATM    8  H   UNL     1     -46.058  59.604 -55.287  1.00  0.00     0.168 HD
BRANCH   7   9
HETATM    9  C   UNL     1     -44.396  60.735 -55.415  1.00  0.00     0.178 C 
HETATM   10  S   UNL     1     -44.298  62.299 -54.829  1.00  0.00    -0.040 SA
BRANCH   9  11
HETATM   11  N   UNL     1     -43.638  60.442 -56.533  1.00  0.00    -0.302 N 
HETATM   12  C   UNL     1     -42.378  59.859 -56.610  1.00  0.00     0.248 C 
HETATM   13  O   UNL     1     -41.664  59.642 -55.632  1.00  0.00    -0.271 OA
HETATM   14  H   UNL     1     -44.080  60.677 -57.416  1.00  0.00     0.171 HD
BRANCH  12  15
HETATM   15  C   UNL     1     -41.976  59.494 -58.034  1.00  0.00     0.278 C 
BRANCH  15  16
HETATM   16  O   UNL     1     -42.074  58.096 -58.269  1.00  0.00    -0.342 OA
BRANCH  16  17
HETATM   17  C   UNL     1     -43.210  57.638 -58.881  1.00  0.00     0.070 A 
HETATM   18  C   UNL     1     -44.242  58.426 -59.398  1.00  0.00     0.043 A 
HETATM   19  C   UNL     1     -45.350  57.832 -60.019  1.00  0.00    -0.059 A 
HETATM   20  C   UNL     1     -46.465  58.682 -60.556  1.00  0.00     0.048 C 
HETATM   21  C   UNL     1     -45.432  56.437 -60.087  1.00  0.00     0.013 A 
HETATM   22  C   UNL     1     -44.409  55.635 -59.571  1.00  0.00    -0.059 A 
HETATM   23  C   UNL     1     -43.307  56.246 -58.960  1.00  0.00     0.043 A 
HETATM   24  C   UNL     1     -44.521  54.140 -59.638  1.00  0.00     0.048 C 
ENDBRANCH  16  17
ENDBRANCH  15  16
ENDBRANCH  12  15
ENDBRANCH   9  11
ENDBRANCH   7   9
ENDBRANCH   1   7
BRANCH   4  25
HETATM   25  N   UNL     1     -43.605  55.587 -51.311  1.00  0.00    -0.378 N 
HETATM   26  C   UNL     1     -42.567  55.848 -50.299  1.00  0.00     0.150 C 
HETATM   27  C   UNL     1     -41.163  55.410 -50.769  1.00  0.00     0.255 C 
HETATM   28  N   UNL     1     -41.179  53.977 -51.296  1.00  0.00    -0.064 N 
HETATM   29  H   UNL     1     -41.440  53.365 -50.511  1.00  0.00     0.280 HD
HETATM   30  C   UNL     1     -42.252  53.793 -52.370  1.00  0.00     0.255 C 
HETATM   31  C   UNL     1     -43.635  54.200 -51.819  1.00  0.00     0.150 C 
BRANCH  28  32
HETATM   32  C   UNL     1     -39.823  53.513 -51.775  1.00  0.00     0.275 C 
BRANCH  32  33
HETATM   33  C   UNL     1     -39.759  52.039 -52.076  1.00  0.00    -0.011 A 
HETATM   34  C   UNL     1     -39.794  51.546 -53.391  1.00  0.00     0.042 A 
HETATM   35 CL   UNL     1     -39.938  52.616 -54.742  1.00  0.00    -0.084 Cl
HETATM   36  C   UNL     1     -39.744  50.174 -53.644  1.00  0.00     0.024 A 
HETATM   37  C   UNL     1     -39.658  49.274 -52.583  1.00  0.00     0.002 A 
HETATM   38  C   UNL     1     -39.621  49.745 -51.273  1.00  0.00     0.001 A 
HETATM   39  C   UNL     1     -39.669  51.117 -51.018  1.00  0.00     0.010 A 
ENDBRANCH  32  33
ENDBRANCH  28  32
ENDBRANCH   4  25
TORSDOF 9
ENDMDL
MODEL 9
REMARK VINA RESULT:      -7.6      2.981      5.292
REMARK  9 active torsions:
REMARK  status: ('A' for Active; 'I' for Inactive)
REMARK    1  A    between atoms: C_4  and  O_5 
REMARK    2  A    between atoms: O_5  and  C_6 
REMARK    3  A    between atoms: C_6  and  C_7 
REMARK       I    between atoms: C_7  and  N_8 
REMARK    4  A    between atoms: N_8  and  C_9 
REMARK    5  A    between atoms: C_9  and  N_10 
REMARK    6  A    between atoms: N_10  and  C_11 
REMARK    7  A    between atoms: C_14  and  N_15 
REMARK    8  A    between atoms: N_18  and  C_20 
REMARK    9  A    between atoms: C_20  and  C_21 
ROOT
HETATM    1  C   UNL     1     -42.452  60.065 -55.924  1.00  0.00     0.034 A 
HETATM    2  C   UNL     1     -42.201  59.713 -54.602  1.00  0.00     0.032 A 
HETATM    3  C   UNL     1     -42.492  58.422 -54.135  1.00  0.00     0.031 A 
HETATM    4  C   UNL     1     -43.007  57.435 -54.979  1.00  0.00     0.030 A 
HETATM    5  C   UNL     1     -43.300  57.822 -56.296  1.00  0.00     0.031 A 
HETATM    6  C   UNL     1     -43.049  59.120 -56.758  1.00  0.00     0.032 A 
ENDROOT
BRANCH   1   7
HETATM    7  N   UNL     1     -42.212  61.346 -56.454  1.00  0.00    -0.333 N 
HETATM    8  H   UNL     1     -41.314  61.761 -56.198  1.00  0.00     0.168 HD
BRANCH   7   9
HETATM    9  C   UNL     1     -43.029  62.200 -57.159  1.00  0.00     0.178 C 
HETATM   10  S   UNL     1     -43.806  63.579 -56.616  1.00  0.00    -0.040 SA
BRANCH   9  11
HETATM   11  N   UNL     1     -43.191  61.881 -58.495  1.00  0.00    -0.302 N 
HETATM   12  C   UNL     1     -42.233  61.495 -59.425  1.00  0.00     0.248 C 
HETATM   13  O   UNL     1     -41.022  61.523 -59.213  1.00  0.00    -0.271 OA
HETATM   14  H   UNL     1     -44.150  61.925 -58.826  1.00  0.00     0.171 HD
BRANCH  12  15
HETATM   15  C   UNL     1     -42.839  61.010 -60.737  1.00  0.00     0.278 C 
BRANCH  15  16
HETATM   16  O   UNL     1     -42.532  59.646 -60.989  1.00  0.00    -0.342 OA
BRANCH  16  17
HETATM   17  C   UNL     1     -43.421  58.706 -60.540  1.00  0.00     0.070 A 
HETATM   18  C   UNL     1     -43.134  57.368 -60.261  1.00  0.00     0.043 A 
HETATM   19  C   UNL     1     -44.135  56.507 -59.788  1.00  0.00    -0.059 A 
HETATM   20  C   UNL     1     -43.827  55.065 -59.508  1.00  0.00     0.048 C 
HETATM   21  C   UNL     1     -45.439  56.992 -59.630  1.00  0.00     0.013 A 
HETATM   22  C   UNL     1     -45.742  58.329 -59.909  1.00  0.00    -0.059 A 
HETATM   23  C   UNL     1     -44.727  59.175 -60.373  1.00  0.00     0.043 A 
HETATM   24  C   UNL     1     -47.148  58.828 -59.749  1.00  0.00     0.048 C 
ENDBRANCH  16  17
ENDBRANCH  15  16
ENDBRANCH  12  15
ENDBRANCH   9  11
ENDBRANCH   7   9
ENDBRANCH   1   7
BRANCH   4  25
HETATM   25  N   UNL     1     -43.257  56.120 -54.579  1.00  0.00    -0.378 N 
HETATM   26  C   UNL     1     -42.942  55.689 -53.206  1.00  0.00     0.150 C 
HETATM   27  C   UNL     1     -41.518  55.107 -53.083  1.00  0.00     0.255 C 
HETATM   28  N   UNL     1     -41.261  54.044 -54.148  1.00  0.00    -0.064 N 
HETATM   29  H   UNL     1     -41.919  53.272 -53.975  1.00  0.00     0.280 HD
HETATM   30  C   UNL     1     -41.570  54.576 -55.548  1.00  0.00     0.255 C 
HETATM   31  C   UNL     1     -43.022  55.094 -55.615  1.00  0.00     0.150 C 
BRANCH  28  32
HETATM   32  C   UNL     1     -39.872  53.455 -54.067  1.00  0.00     0.275 C 
BRANCH  32  33
HETATM   33  C   UNL     1     -39.835  52.072 -53.473  1.00  0.00    -0.011 A 
HETATM   34  C   UNL     1     -39.682  51.859 -52.092  1.00  0.00     0.042 A 
HETATM   35 CL   UNL     1     -39.504  53.186 -50.999  1.00  0.00    -0.084 Cl
HETATM   36  C   UNL     1     -39.640  50.566 -51.567  1.00  0.00     0.024 A 
HETATM   37  C   UNL     1     -39.750  49.467 -52.416  1.00  0.00     0.002 A 
HETATM   38  C   UNL     1     -39.903  49.659 -53.787  1.00  0.00     0.001 A 
HETATM   39  C   UNL     1     -39.948  50.951 -54.314  1.00  0.00     0.010 A 
ENDBRANCH  32  33
ENDBRANCH  28  32
ENDBRANCH   4  25
TORSDOF 9
ENDMDL
MODEL 10
REMARK VINA RESULT:      -7.6      4.103      8.414
REMARK  9 active torsions:
REMARK  status: ('A' for Active; 'I' for Inactive)
REMARK    1  A    between atoms: C_4  and  O_5 
REMARK    2  A    between atoms: O_5  and  C_6 
REMARK    3  A    between atoms: C_6  and  C_7 
REMARK       I    between atoms: C_7  and  N_8 
REMARK    4  A    between atoms: N_8  and  C_9 
REMARK    5  A    between atoms: C_9  and  N_10 
REMARK    6  A    between atoms: N_10  and  C_11 
REMARK    7  A    between atoms: C_14  and  N_15 
REMARK    8  A    between atoms: N_18  and  C_20 
REMARK    9  A    between atoms: C_20  and  C_21 
ROOT
HETATM    1  C   UNL     1     -41.841  58.534 -53.546  1.00  0.00     0.034 A 
HETATM    2  C   UNL     1     -42.785  57.773 -54.226  1.00  0.00     0.032 A 
HETATM    3  C   UNL     1     -43.700  58.378 -55.102  1.00  0.00     0.031 A 
HETATM    4  C   UNL     1     -43.677  59.752 -55.352  1.00  0.00     0.030 A 
HETATM    5  C   UNL     1     -42.750  60.511 -54.621  1.00  0.00     0.031 A 
HETATM    6  C   UNL     1     -41.860  59.918 -53.716  1.00  0.00     0.032 A 
ENDROOT
BRANCH   1   7
HETATM    7  N   UNL     1     -40.911  58.001 -52.635  1.00  0.00    -0.333 N 
HETATM    8  H   UNL     1     -40.181  57.419 -53.049  1.00  0.00     0.168 HD
BRANCH   7   9
HETATM    9  C   UNL     1     -40.884  58.018 -51.259  1.00  0.00     0.178 C 
HETATM   10  S   UNL     1     -40.881  59.343 -50.236  1.00  0.00    -0.040 SA
BRANCH   9  11
HETATM   11  N   UNL     1     -40.895  56.772 -50.660  1.00  0.00    -0.302 N 
HETATM   12  C   UNL     1     -41.889  55.800 -50.680  1.00  0.00     0.248 C 
HETATM   13  O   UNL     1     -43.015  55.982 -51.139  1.00  0.00    -0.271 OA
HETATM   14  H   UNL     1     -40.048  56.541 -50.151  1.00  0.00     0.171 HD
BRANCH  12  15
HETATM   15  C   UNL     1     -41.433  54.470 -50.090  1.00  0.00     0.278 C 
BRANCH  15  16
HETATM   16  O   UNL     1     -40.182  54.057 -50.623  1.00  0.00    -0.342 OA
BRANCH  16  17
HETATM   17  C   UNL     1     -40.198  53.361 -51.802  1.00  0.00     0.070 A 
HETATM   18  C   UNL     1     -39.893  52.007 -51.963  1.00  0.00     0.043 A 
HETATM   19  C   UNL     1     -39.964  51.405 -53.227  1.00  0.00    -0.059 A 
HETATM   20  C   UNL     1     -39.617  49.955 -53.399  1.00  0.00     0.048 C 
HETATM   21  C   UNL     1     -40.309  52.183 -54.339  1.00  0.00     0.013 A 
HETATM   22  C   UNL     1     -40.613  53.541 -54.194  1.00  0.00    -0.059 A 
HETATM   23  C   UNL     1     -40.544  54.122 -52.922  1.00  0.00     0.043 A 
HETATM   24  C   UNL     1     -40.966  54.363 -55.399  1.00  0.00     0.048 C 
ENDBRANCH  16  17
ENDBRANCH  15  16
ENDBRANCH  12  15
ENDBRANCH   9  11
ENDBRANCH   7   9
ENDBRANCH   1   7
BRANCH   4  25
HETATM   25  N   UNL     1     -44.525  60.393 -56.258  1.00  0.00    -0.378 N 
HETATM   26  C   UNL     1     -45.767  59.739 -56.704  1.00  0.00     0.150 C 
HETATM   27  C   UNL     1     -45.566  58.905 -57.988  1.00  0.00     0.255 C 
HETATM   28  N   UNL     1     -44.863  59.720 -59.071  1.00  0.00    -0.064 N 
HETATM   29  H   UNL     1     -45.482  60.505 -59.314  1.00  0.00     0.280 HD
HETATM   30  C   UNL     1     -43.563  60.333 -58.548  1.00  0.00     0.255 C 
HETATM   31  C   UNL     1     -43.843  61.193 -57.297  1.00  0.00     0.150 C 
BRANCH  28  32
HETATM   32  C   UNL     1     -44.639  58.935 -60.343  1.00  0.00     0.275 C 
BRANCH  32  33
HETATM   33  C   UNL     1     -44.540  57.448 -60.127  1.00  0.00    -0.011 A 
HETATM   34  C   UNL     1     -45.625  56.588 -60.364  1.00  0.00     0.042 A 
HETATM   35 CL   UNL     1     -47.151  57.201 -60.896  1.00  0.00    -0.084 Cl
HETATM   36  C   UNL     1     -45.511  55.213 -60.146  1.00  0.00     0.024 A 
HETATM   37  C   UNL     1     -44.307  54.680 -59.689  1.00  0.00     0.002 A 
HETATM   38  C   UNL     1     -43.221  55.517 -59.450  1.00  0.00     0.001 A 
HETATM   39  C   UNL     1     -43.333  56.892 -59.669  1.00  0.00     0.010 A 
ENDBRANCH  32  33
ENDBRANCH  28  32
ENDBRANCH   4  25
TORSDOF 9
ENDMDL
