MODEL 1
REMARK VINA RESULT:      -8.8      0.000      0.000
REMARK  7 active torsions:
REMARK  status: ('A' for Active; 'I' for Inactive)
REMARK       I    between atoms: C_2  and  N_3 
REMARK    1  A    between atoms: N_3  and  C_4 
REMARK    2  A    between atoms: C_7  and  N_8 
REMARK       I    between atoms: N_8  and  C_9 
REMARK    3  A    between atoms: C_9  and  C_10 
REMARK       I    between atoms: C_10  and  N_11 
REMARK    4  A    between atoms: N_11  and  C_12 
REMARK    5  A    between atoms: C_12  and  C_13 
REMARK    6  A    between atoms: C_13  and  O_14 
REMARK    7  A    between atoms: C_13  and  C_15 
ROOT
HETATM    1  C   UNL     1     -43.006  56.263 -56.524  1.00  0.00     0.309 C 
HETATM    2  N   UNL     1     -43.079  54.912 -56.322  1.00  0.00    -0.350 N 
HETATM    3  O   UNL     1     -42.600  57.097 -55.726  1.00  0.00    -0.262 OA
HETATM    4  H   UNL     1     -43.301  54.334 -57.128  1.00  0.00     0.163 HD
ENDROOT
BRANCH   1   5
HETATM    5  C   UNL     1     -43.498  56.704 -57.922  1.00  0.00     0.313 C 
HETATM    6  N   UNL     1     -44.862  56.907 -57.949  1.00  0.00    -0.319 N 
HETATM    7  H   UNL     1     -45.322  56.784 -57.050  1.00  0.00     0.169 HD
HETATM    8  O   UNL     1     -42.680  56.831 -58.822  1.00  0.00    -0.262 OA
BRANCH   6   9
HETATM    9  C   UNL     1     -45.660  57.215 -59.064  1.00  0.00     0.035 A 
HETATM   10  C   UNL     1     -46.229  56.256 -59.900  1.00  0.00     0.032 A 
HETATM   11  C   UNL     1     -47.058  56.634 -60.964  1.00  0.00     0.032 A 
HETATM   12  C   UNL     1     -47.326  57.979 -61.215  1.00  0.00     0.034 A 
HETATM   13  C   UNL     1     -46.736  58.943 -60.392  1.00  0.00     0.032 A 
HETATM   14  C   UNL     1     -45.916  58.565 -59.321  1.00  0.00     0.032 A 
BRANCH  12  15
HETATM   15  N   UNL     1     -48.167  58.438 -62.250  1.00  0.00    -0.328 N 
HETATM   16  C   UNL     1     -49.263  57.790 -62.793  1.00  0.00     0.218 C 
HETATM   17  C   UNL     1     -49.940  58.606 -63.866  1.00  0.00     0.117 C 
HETATM   18  O   UNL     1     -49.713  56.698 -62.465  1.00  0.00    -0.274 OA
HETATM   19  H   UNL     1     -47.963  59.362 -62.607  1.00  0.00     0.169 HD
ENDBRANCH  12  15
ENDBRANCH   6   9
ENDBRANCH   1   5
BRANCH   2  20
HETATM   20  C   UNL     1     -42.668  54.254 -55.095  1.00  0.00     0.159 C 
BRANCH  20  21
HETATM   21  C   UNL     1     -41.199  54.540 -54.719  1.00  0.00     0.171 C 
BRANCH  21  22
HETATM   22  O   UNL     1     -40.365  54.211 -55.840  1.00  0.00    -0.389 OA
HETATM   23  H   UNL     1     -40.915  54.352 -56.630  1.00  0.00     0.210 HD
ENDBRANCH  21  22
BRANCH  21  24
HETATM   24  C   UNL     1     -40.732  53.819 -53.485  1.00  0.00     0.000 A 
HETATM   25  C   UNL     1     -40.353  52.439 -53.387  1.00  0.00     0.001 A 
HETATM   26  C   UNL     1     -40.015  52.181 -52.053  1.00  0.00     0.044 A 
HETATM   27  C   UNL     1     -40.274  51.379 -54.318  1.00  0.00     0.014 A 
HETATM   28  C   UNL     1     -39.602  50.909 -51.623  1.00  0.00     0.030 A 
HETATM   29  N   UNL     1     -40.180  53.361 -51.364  1.00  0.00    -0.360 N 
HETATM   30  C   UNL     1     -39.541  49.878 -52.564  1.00  0.00     0.002 A 
HETATM   31  C   UNL     1     -39.872  50.108 -53.895  1.00  0.00     0.001 A 
HETATM   32  C   UNL     1     -39.934  53.575 -49.955  1.00  0.00     0.155 C 
HETATM   33  C   UNL     1     -40.627  54.343 -52.208  1.00  0.00     0.101 A 
ENDBRANCH  21  24
ENDBRANCH  20  21
ENDBRANCH   2  20
TORSDOF 7
ENDMDL
MODEL 2
REMARK VINA RESULT:      -8.6      3.598      4.360
REMARK  7 active torsions:
REMARK  status: ('A' for Active; 'I' for Inactive)
REMARK       I    between atoms: C_2  and  N_3 
REMARK    1  A    between atoms: N_3  and  C_4 
REMARK    2  A    between atoms: C_7  and  N_8 
REMARK       I    between atoms: N_8  and  C_9 
REMARK    3  A    between atoms: C_9  and  C_10 
REMARK       I    between atoms: C_10  and  N_11 
REMARK    4  A    between atoms: N_11  and  C_12 
REMARK    5  A    between atoms: C_12  and  C_13 
REMARK    6  A    between atoms: C_13  and  O_14 
REMARK    7  A    between atoms: C_13  and  C_15 
ROOT
HETATM    1  C   UNL     1     -43.027  56.431 -55.924  1.00  0.00     0.309 C 
HETATM    2  N   UNL     1     -42.543  55.178 -56.187  1.00  0.00    -0.350 N 
HETATM    3  O   UNL     1     -43.248  56.908 -54.819  1.00  0.00    -0.262 OA
HETATM    4  H   UNL     1     -42.275  54.978 -57.147  1.00  0.00     0.163 HD
ENDROOT
BRANCH   1   5
HETATM    5  C   UNL     1     -43.294  57.268 -57.196  1.00  0.00     0.313 C 
HETATM    6  N   UNL     1     -42.124  57.726 -57.767  1.00  0.00    -0.319 N 
HETATM    7  H   UNL     1     -41.278  57.409 -57.300  1.00  0.00     0.169 HD
HETATM    8  O   UNL     1     -44.449  57.435 -57.561  1.00  0.00    -0.262 OA
BRANCH   6   9
HETATM    9  C   UNL     1     -41.989  58.590 -58.866  1.00  0.00     0.035 A 
HETATM   10  C   UNL     1     -41.916  58.157 -60.189  1.00  0.00     0.032 A 
HETATM   11  C   UNL     1     -41.834  59.079 -61.242  1.00  0.00     0.032 A 
HETATM   12  C   UNL     1     -41.815  60.450 -60.988  1.00  0.00     0.034 A 
HETATM   13  C   UNL     1     -41.863  60.884 -59.659  1.00  0.00     0.032 A 
HETATM   14  C   UNL     1     -41.957  59.963 -58.608  1.00  0.00     0.032 A 
BRANCH  12  15
HETATM   15  N   UNL     1     -41.758  61.439 -61.991  1.00  0.00    -0.328 N 
HETATM   16  C   UNL     1     -40.801  62.426 -62.147  1.00  0.00     0.218 C 
HETATM   17  C   UNL     1     -41.053  63.286 -63.361  1.00  0.00     0.117 C 
HETATM   18  O   UNL     1     -39.814  62.615 -61.444  1.00  0.00    -0.274 OA
HETATM   19  H   UNL     1     -42.483  61.394 -62.695  1.00  0.00     0.169 HD
ENDBRANCH  12  15
ENDBRANCH   6   9
ENDBRANCH   1   5
BRANCH   2  20
HETATM   20  C   UNL     1     -42.207  54.208 -55.160  1.00  0.00     0.159 C 
BRANCH  20  21
HETATM   21  C   UNL     1     -40.847  54.487 -54.488  1.00  0.00     0.171 C 
BRANCH  21  22
HETATM   22  O   UNL     1     -39.808  54.329 -55.466  1.00  0.00    -0.389 OA
HETATM   23  H   UNL     1     -38.970  54.395 -54.976  1.00  0.00     0.210 HD
ENDBRANCH  21  22
BRANCH  21  24
HETATM   24  C   UNL     1     -40.572  53.628 -53.284  1.00  0.00     0.000 A 
HETATM   25  C   UNL     1     -40.208  52.240 -53.284  1.00  0.00     0.001 A 
HETATM   26  C   UNL     1     -40.078  51.832 -51.951  1.00  0.00     0.044 A 
HETATM   27  C   UNL     1     -39.984  51.289 -54.303  1.00  0.00     0.014 A 
HETATM   28  C   UNL     1     -39.731  50.515 -51.606  1.00  0.00     0.030 A 
HETATM   29  N   UNL     1     -40.350  52.932 -51.169  1.00  0.00    -0.360 N 
HETATM   30  C   UNL     1     -39.524  49.594 -52.636  1.00  0.00     0.002 A 
HETATM   31  C   UNL     1     -39.647  49.973 -53.968  1.00  0.00     0.001 A 
HETATM   32  C   UNL     1     -40.324  52.985 -49.724  1.00  0.00     0.155 C 
HETATM   33  C   UNL     1     -40.666  54.007 -51.957  1.00  0.00     0.101 A 
ENDBRANCH  21  24
ENDBRANCH  20  21
ENDBRANCH   2  20
TORSDOF 7
ENDMDL
MODEL 3
REMARK VINA RESULT:      -8.6      5.848      7.969
REMARK  7 active torsions:
REMARK  status: ('A' for Active; 'I' for Inactive)
REMARK       I    between atoms: C_2  and  N_3 
REMARK    1  A    between atoms: N_3  and  C_4 
REMARK    2  A    between atoms: C_7  and  N_8 
REMARK       I    between atoms: N_8  and  C_9 
REMARK    3  A    between atoms: C_9  and  C_10 
REMARK       I    between atoms: C_10  and  N_11 
REMARK    4  A    between atoms: N_11  and  C_12 
REMARK    5  A    between atoms: C_12  and  C_13 
REMARK    6  A    between atoms: C_13  and  O_14 
REMARK    7  A    between atoms: C_13  and  C_15 
ROOT
HETATM    1  C   UNL     1     -41.769  57.997 -53.754  1.00  0.00     0.309 C 
HETATM    2  N   UNL     1     -42.706  57.362 -54.523  1.00  0.00    -0.350 N 
HETATM    3  O   UNL     1     -40.619  57.629 -53.556  1.00  0.00    -0.262 OA
HETATM    4  H   UNL     1     -43.570  57.864 -54.709  1.00  0.00     0.163 HD
ENDROOT
BRANCH   1   5
HETATM    5  C   UNL     1     -42.285  59.303 -53.108  1.00  0.00     0.313 C 
HETATM    6  N   UNL     1     -43.308  59.067 -52.212  1.00  0.00    -0.319 N 
HETATM    7  H   UNL     1     -43.530  58.084 -52.080  1.00  0.00     0.169 HD
HETATM    8  O   UNL     1     -41.767  60.364 -53.426  1.00  0.00    -0.262 OA
BRANCH   6   9
HETATM    9  C   UNL     1     -44.075  60.018 -51.518  1.00  0.00     0.035 A 
HETATM   10  C   UNL     1     -45.382  60.361 -51.863  1.00  0.00     0.032 A 
HETATM   11  C   UNL     1     -46.108  61.280 -51.093  1.00  0.00     0.032 A 
HETATM   12  C   UNL     1     -45.535  61.879 -49.972  1.00  0.00     0.034 A 
HETATM   13  C   UNL     1     -44.216  61.554 -49.641  1.00  0.00     0.032 A 
HETATM   14  C   UNL     1     -43.494  60.627 -50.403  1.00  0.00     0.032 A 
BRANCH  12  15
HETATM   15  N   UNL     1     -46.207  62.794 -49.135  1.00  0.00    -0.328 N 
HETATM   16  C   UNL     1     -46.871  62.521 -47.952  1.00  0.00     0.218 C 
HETATM   17  C   UNL     1     -47.443  63.763 -47.314  1.00  0.00     0.117 C 
HETATM   18  O   UNL     1     -46.987  61.431 -47.405  1.00  0.00    -0.274 OA
HETATM   19  H   UNL     1     -46.165  63.764 -49.419  1.00  0.00     0.169 HD
ENDBRANCH  12  15
ENDBRANCH   6   9
ENDBRANCH   1   5
BRANCH   2  20
HETATM   20  C   UNL     1     -42.460  56.124 -55.240  1.00  0.00     0.159 C 
BRANCH  20  21
HETATM   21  C   UNL     1     -43.115  54.898 -54.569  1.00  0.00     0.171 C 
BRANCH  21  22
HETATM   22  O   UNL     1     -44.491  55.203 -54.297  1.00  0.00    -0.389 OA
HETATM   23  H   UNL     1     -44.728  54.681 -53.510  1.00  0.00     0.210 HD
ENDBRANCH  21  22
BRANCH  21  24
HETATM   24  C   UNL     1     -42.419  54.442 -53.316  1.00  0.00     0.000 A 
HETATM   25  C   UNL     1     -41.391  53.446 -53.218  1.00  0.00     0.001 A 
HETATM   26  C   UNL     1     -41.049  53.315 -51.867  1.00  0.00     0.044 A 
HETATM   27  C   UNL     1     -40.723  52.635 -54.162  1.00  0.00     0.014 A 
HETATM   28  C   UNL     1     -40.067  52.410 -51.431  1.00  0.00     0.030 A 
HETATM   29  N   UNL     1     -41.838  54.202 -51.168  1.00  0.00    -0.360 N 
HETATM   30  C   UNL     1     -39.430  51.615 -52.387  1.00  0.00     0.002 A 
HETATM   31  C   UNL     1     -39.750  51.724 -53.735  1.00  0.00     0.001 A 
HETATM   32  C   UNL     1     -41.822  54.424 -49.739  1.00  0.00     0.155 C 
HETATM   33  C   UNL     1     -42.675  54.867 -52.024  1.00  0.00     0.101 A 
ENDBRANCH  21  24
ENDBRANCH  20  21
ENDBRANCH   2  20
TORSDOF 7
ENDMDL
MODEL 4
REMARK VINA RESULT:      -8.3      2.261      2.942
REMARK  7 active torsions:
REMARK  status: ('A' for Active; 'I' for Inactive)
REMARK       I    between atoms: C_2  and  N_3 
REMARK    1  A    between atoms: N_3  and  C_4 
REMARK    2  A    between atoms: C_7  and  N_8 
REMARK       I    between atoms: N_8  and  C_9 
REMARK    3  A    between atoms: C_9  and  C_10 
REMARK       I    between atoms: C_10  and  N_11 
REMARK    4  A    between atoms: N_11  and  C_12 
REMARK    5  A    between atoms: C_12  and  C_13 
REMARK    6  A    between atoms: C_13  and  O_14 
REMARK    7  A    between atoms: C_13  and  C_15 
ROOT
HETATM    1  C   UNL     1     -41.611  58.968 -54.588  1.00  0.00     0.309 C 
HETATM    2  N   UNL     1     -41.791  57.700 -54.104  1.00  0.00    -0.350 N 
HETATM    3  O   UNL     1     -41.035  59.887 -54.022  1.00  0.00    -0.262 OA
HETATM    4  H   UNL     1     -42.161  57.007 -54.749  1.00  0.00     0.163 HD
ENDROOT
BRANCH   1   5
HETATM    5  C   UNL     1     -42.217  59.182 -55.994  1.00  0.00     0.313 C 
HETATM    6  N   UNL     1     -43.265  58.320 -56.241  1.00  0.00    -0.319 N 
HETATM    7  H   UNL     1     -43.506  57.718 -55.458  1.00  0.00     0.169 HD
HETATM    8  O   UNL     1     -41.743  60.049 -56.715  1.00  0.00    -0.262 OA
BRANCH   6   9
HETATM    9  C   UNL     1     -43.982  58.166 -57.440  1.00  0.00     0.035 A 
HETATM   10  C   UNL     1     -43.547  57.384 -58.509  1.00  0.00     0.032 A 
HETATM   11  C   UNL     1     -44.340  57.233 -59.655  1.00  0.00     0.032 A 
HETATM   12  C   UNL     1     -45.577  57.869 -59.754  1.00  0.00     0.034 A 
HETATM   13  C   UNL     1     -46.002  58.674 -58.693  1.00  0.00     0.032 A 
HETATM   14  C   UNL     1     -45.215  58.815 -57.542  1.00  0.00     0.032 A 
BRANCH  12  15
HETATM   15  N   UNL     1     -46.441  57.748 -60.862  1.00  0.00    -0.328 N 
HETATM   16  C   UNL     1     -47.410  56.783 -61.071  1.00  0.00     0.218 C 
HETATM   17  C   UNL     1     -48.164  56.995 -62.361  1.00  0.00     0.117 C 
HETATM   18  O   UNL     1     -47.706  55.858 -60.323  1.00  0.00    -0.274 OA
HETATM   19  H   UNL     1     -46.363  58.472 -61.563  1.00  0.00     0.169 HD
ENDBRANCH  12  15
ENDBRANCH   6   9
ENDBRANCH   1   5
BRANCH   2  20
HETATM   20  C   UNL     1     -41.306  57.251 -52.811  1.00  0.00     0.159 C 
BRANCH  20  21
HETATM   21  C   UNL     1     -42.287  56.298 -52.097  1.00  0.00     0.171 C 
BRANCH  21  22
HETATM   22  O   UNL     1     -43.100  57.064 -51.195  1.00  0.00    -0.389 OA
HETATM   23  H   UNL     1     -42.559  57.831 -50.938  1.00  0.00     0.210 HD
ENDBRANCH  21  22
BRANCH  21  24
HETATM   24  C   UNL     1     -41.617  55.165 -51.369  1.00  0.00     0.000 A 
HETATM   25  C   UNL     1     -40.995  54.014 -51.957  1.00  0.00     0.001 A 
HETATM   26  C   UNL     1     -40.526  53.202 -50.917  1.00  0.00     0.044 A 
HETATM   27  C   UNL     1     -40.795  53.584 -53.287  1.00  0.00     0.014 A 
HETATM   28  C   UNL     1     -39.866  51.986 -51.160  1.00  0.00     0.030 A 
HETATM   29  N   UNL     1     -40.848  53.838 -49.738  1.00  0.00    -0.360 N 
HETATM   30  C   UNL     1     -39.690  51.583 -52.486  1.00  0.00     0.002 A 
HETATM   31  C   UNL     1     -40.146  52.369 -53.538  1.00  0.00     0.001 A 
HETATM   32  C   UNL     1     -40.548  53.374 -48.402  1.00  0.00     0.155 C 
HETATM   33  C   UNL     1     -41.519  55.004 -49.998  1.00  0.00     0.101 A 
ENDBRANCH  21  24
ENDBRANCH  20  21
ENDBRANCH   2  20
TORSDOF 7
ENDMDL
MODEL 5
REMARK VINA RESULT:      -8.3      1.615      2.198
REMARK  7 active torsions:
REMARK  status: ('A' for Active; 'I' for Inactive)
REMARK       I    between atoms: C_2  and  N_3 
REMARK    1  A    between atoms: N_3  and  C_4 
REMARK    2  A    between atoms: C_7  and  N_8 
REMARK       I    between atoms: N_8  and  C_9 
REMARK    3  A    between atoms: C_9  and  C_10 
REMARK       I    between atoms: C_10  and  N_11 
REMARK    4  A    between atoms: N_11  and  C_12 
REMARK    5  A    between atoms: C_12  and  C_13 
REMARK    6  A    between atoms: C_13  and  O_14 
REMARK    7  A    between atoms: C_13  and  C_15 
ROOT
HETATM    1  C   UNL     1     -43.657  56.012 -57.979  1.00  0.00     0.309 C 
HETATM    2  N   UNL     1     -43.420  56.282 -56.658  1.00  0.00    -0.350 N 
HETATM    3  O   UNL     1     -43.231  55.056 -58.613  1.00  0.00    -0.262 OA
HETATM    4  H   UNL     1     -43.959  57.033 -56.235  1.00  0.00     0.163 HD
ENDROOT
BRANCH   1   5
HETATM    5  C   UNL     1     -44.561  57.059 -58.669  1.00  0.00     0.313 C 
HETATM    6  N   UNL     1     -45.588  56.468 -59.375  1.00  0.00    -0.319 N 
HETATM    7  H   UNL     1     -45.622  55.454 -59.296  1.00  0.00     0.169 HD
HETATM    8  O   UNL     1     -44.302  58.246 -58.530  1.00  0.00    -0.262 OA
BRANCH   6   9
HETATM    9  C   UNL     1     -46.536  57.099 -60.198  1.00  0.00     0.035 A 
HETATM   10  C   UNL     1     -46.808  58.466 -60.160  1.00  0.00     0.032 A 
HETATM   11  C   UNL     1     -47.730  59.038 -61.048  1.00  0.00     0.032 A 
HETATM   12  C   UNL     1     -48.403  58.250 -61.981  1.00  0.00     0.034 A 
HETATM   13  C   UNL     1     -48.149  56.875 -62.002  1.00  0.00     0.032 A 
HETATM   14  C   UNL     1     -47.219  56.305 -61.123  1.00  0.00     0.032 A 
BRANCH  12  15
HETATM   15  N   UNL     1     -49.326  58.754 -62.921  1.00  0.00    -0.328 N 
HETATM   16  C   UNL     1     -50.707  58.718 -62.846  1.00  0.00     0.218 C 
HETATM   17  C   UNL     1     -51.364  59.387 -64.028  1.00  0.00     0.117 C 
HETATM   18  O   UNL     1     -51.386  58.251 -61.939  1.00  0.00    -0.274 OA
HETATM   19  H   UNL     1     -48.926  59.225 -63.722  1.00  0.00     0.169 HD
ENDBRANCH  12  15
ENDBRANCH   6   9
ENDBRANCH   1   5
BRANCH   2  20
HETATM   20  C   UNL     1     -42.609  55.443 -55.794  1.00  0.00     0.159 C 
BRANCH  20  21
HETATM   21  C   UNL     1     -43.441  54.667 -54.752  1.00  0.00     0.171 C 
BRANCH  21  22
HETATM   22  O   UNL     1     -44.635  55.411 -54.469  1.00  0.00    -0.389 OA
HETATM   23  H   UNL     1     -44.552  56.244 -54.965  1.00  0.00     0.210 HD
ENDBRANCH  21  22
BRANCH  21  24
HETATM   24  C   UNL     1     -42.698  54.360 -53.481  1.00  0.00     0.000 A 
HETATM   25  C   UNL     1     -41.612  53.436 -53.322  1.00  0.00     0.001 A 
HETATM   26  C   UNL     1     -41.240  53.441 -51.973  1.00  0.00     0.044 A 
HETATM   27  C   UNL     1     -40.915  52.585 -54.208  1.00  0.00     0.014 A 
HETATM   28  C   UNL     1     -40.199  52.633 -51.484  1.00  0.00     0.030 A 
HETATM   29  N   UNL     1     -42.066  54.339 -51.334  1.00  0.00    -0.360 N 
HETATM   30  C   UNL     1     -39.534  51.796 -52.383  1.00  0.00     0.002 A 
HETATM   31  C   UNL     1     -39.884  51.770 -53.727  1.00  0.00     0.001 A 
HETATM   32  C   UNL     1     -42.037  54.684 -49.930  1.00  0.00     0.155 C 
HETATM   33  C   UNL     1     -42.955  54.880 -52.225  1.00  0.00     0.101 A 
ENDBRANCH  21  24
ENDBRANCH  20  21
ENDBRANCH   2  20
TORSDOF 7
ENDMDL
MODEL 6
REMARK VINA RESULT:      -8.2      1.912      2.743
REMARK  7 active torsions:
REMARK  status: ('A' for Active; 'I' for Inactive)
REMARK       I    between atoms: C_2  and  N_3 
REMARK    1  A    between atoms: N_3  and  C_4 
REMARK    2  A    between atoms: C_7  and  N_8 
REMARK       I    between atoms: N_8  and  C_9 
REMARK    3  A    between atoms: C_9  and  C_10 
REMARK       I    between atoms: C_10  and  N_11 
REMARK    4  A    between atoms: N_11  and  C_12 
REMARK    5  A    between atoms: C_12  and  C_13 
REMARK    6  A    between atoms: C_13  and  O_14 
REMARK    7  A    between atoms: C_13  and  C_15 
ROOT
HETATM    1  C   UNL     1     -42.831  56.070 -56.880  1.00  0.00     0.309 C 
HETATM    2  N   UNL     1     -43.197  54.814 -56.480  1.00  0.00    -0.350 N 
HETATM    3  O   UNL     1     -42.089  56.837 -56.280  1.00  0.00    -0.262 OA
HETATM    4  H   UNL     1     -43.702  54.242 -57.153  1.00  0.00     0.163 HD
ENDROOT
BRANCH   1   5
HETATM    5  C   UNL     1     -43.450  56.491 -58.233  1.00  0.00     0.313 C 
HETATM    6  N   UNL     1     -44.763  56.890 -58.097  1.00  0.00    -0.319 N 
HETATM    7  H   UNL     1     -45.104  56.891 -57.139  1.00  0.00     0.169 HD
HETATM    8  O   UNL     1     -42.757  56.441 -59.240  1.00  0.00    -0.262 OA
BRANCH   6   9
HETATM    9  C   UNL     1     -45.661  57.242 -59.119  1.00  0.00     0.035 A 
HETATM   10  C   UNL     1     -46.300  56.317 -59.943  1.00  0.00     0.032 A 
HETATM   11  C   UNL     1     -47.225  56.737 -60.910  1.00  0.00     0.032 A 
HETATM   12  C   UNL     1     -47.519  58.090 -61.073  1.00  0.00     0.034 A 
HETATM   13  C   UNL     1     -46.859  59.020 -60.264  1.00  0.00     0.032 A 
HETATM   14  C   UNL     1     -45.943  58.600 -59.291  1.00  0.00     0.032 A 
BRANCH  12  15
HETATM   15  N   UNL     1     -48.452  58.589 -62.005  1.00  0.00    -0.328 N 
HETATM   16  C   UNL     1     -49.471  57.892 -62.631  1.00  0.00     0.218 C 
HETATM   17  C   UNL     1     -50.292  58.769 -63.543  1.00  0.00     0.117 C 
HETATM   18  O   UNL     1     -49.758  56.710 -62.481  1.00  0.00    -0.274 OA
HETATM   19  H   UNL     1     -48.388  59.578 -62.208  1.00  0.00     0.169 HD
ENDBRANCH  12  15
ENDBRANCH   6   9
ENDBRANCH   1   5
BRANCH   2  20
HETATM   20  C   UNL     1     -42.741  54.190 -55.251  1.00  0.00     0.159 C 
BRANCH  20  21
HETATM   21  C   UNL     1     -43.620  54.543 -54.033  1.00  0.00     0.171 C 
BRANCH  21  22
HETATM   22  O   UNL     1     -44.795  55.227 -54.496  1.00  0.00    -0.389 OA
HETATM   23  H   UNL     1     -44.499  55.795 -55.228  1.00  0.00     0.210 HD
ENDBRANCH  21  22
BRANCH  21  24
HETATM   24  C   UNL     1     -42.914  55.358 -52.985  1.00  0.00     0.000 A 
HETATM   25  C   UNL     1     -41.973  54.881 -52.014  1.00  0.00     0.001 A 
HETATM   26  C   UNL     1     -41.588  55.968 -51.220  1.00  0.00     0.044 A 
HETATM   27  C   UNL     1     -41.418  53.613 -51.732  1.00  0.00     0.014 A 
HETATM   28  C   UNL     1     -40.670  55.832 -50.164  1.00  0.00     0.030 A 
HETATM   29  N   UNL     1     -42.267  57.068 -51.694  1.00  0.00    -0.360 N 
HETATM   30  C   UNL     1     -40.145  54.564 -49.905  1.00  0.00     0.002 A 
HETATM   31  C   UNL     1     -40.511  53.467 -50.676  1.00  0.00     0.001 A 
HETATM   32  C   UNL     1     -42.171  58.420 -51.188  1.00  0.00     0.155 C 
HETATM   33  C   UNL     1     -43.078  56.710 -52.738  1.00  0.00     0.101 A 
ENDBRANCH  21  24
ENDBRANCH  20  21
ENDBRANCH   2  20
TORSDOF 7
ENDMDL
MODEL 7
REMARK VINA RESULT:      -8.2     15.718     17.752
REMARK  7 active torsions:
REMARK  status: ('A' for Active; 'I' for Inactive)
REMARK       I    between atoms: C_2  and  N_3 
REMARK    1  A    between atoms: N_3  and  C_4 
REMARK    2  A    between atoms: C_7  and  N_8 
REMARK       I    between atoms: N_8  and  C_9 
REMARK    3  A    between atoms: C_9  and  C_10 
REMARK       I    between atoms: C_10  and  N_11 
REMARK    4  A    between atoms: N_11  and  C_12 
REMARK    5  A    between atoms: C_12  and  C_13 
REMARK    6  A    between atoms: C_13  and  O_14 
REMARK    7  A    between atoms: C_13  and  C_15 
ROOT
HETATM    1  C   UNL     1     -36.046  42.160 -53.588  1.00  0.00     0.309 C 
HETATM    2  N   UNL     1     -34.826  42.007 -52.988  1.00  0.00    -0.350 N 
HETATM    3  O   UNL     1     -37.119  42.328 -53.023  1.00  0.00    -0.262 OA
HETATM    4  H   UNL     1     -34.008  42.021 -53.591  1.00  0.00     0.163 HD
ENDROOT
BRANCH   1   5
HETATM    5  C   UNL     1     -35.984  42.109 -55.132  1.00  0.00     0.313 C 
HETATM    6  N   UNL     1     -37.031  41.388 -55.667  1.00  0.00    -0.319 N 
HETATM    7  H   UNL     1     -37.698  41.046 -54.981  1.00  0.00     0.169 HD
HETATM    8  O   UNL     1     -35.069  42.684 -55.705  1.00  0.00    -0.262 OA
BRANCH   6   9
HETATM    9  C   UNL     1     -37.240  41.054 -57.016  1.00  0.00     0.035 A 
HETATM   10  C   UNL     1     -37.077  41.951 -58.071  1.00  0.00     0.032 A 
HETATM   11  C   UNL     1     -37.252  41.535 -59.398  1.00  0.00     0.032 A 
HETATM   12  C   UNL     1     -37.600  40.217 -59.692  1.00  0.00     0.034 A 
HETATM   13  C   UNL     1     -37.787  39.324 -58.632  1.00  0.00     0.032 A 
HETATM   14  C   UNL     1     -37.602  39.736 -57.307  1.00  0.00     0.032 A 
BRANCH  12  15
HETATM   15  N   UNL     1     -37.770  39.717 -60.999  1.00  0.00    -0.328 N 
HETATM   16  C   UNL     1     -36.847  39.022 -61.761  1.00  0.00     0.218 C 
HETATM   17  C   UNL     1     -37.398  38.618 -63.106  1.00  0.00     0.117 C 
HETATM   18  O   UNL     1     -35.710  38.702 -61.433  1.00  0.00    -0.274 OA
HETATM   19  H   UNL     1     -38.685  39.853 -61.408  1.00  0.00     0.169 HD
ENDBRANCH  12  15
ENDBRANCH   6   9
ENDBRANCH   1   5
BRANCH   2  20
HETATM   20  C   UNL     1     -34.624  42.026 -51.550  1.00  0.00     0.159 C 
BRANCH  20  21
HETATM   21  C   UNL     1     -33.368  41.246 -51.107  1.00  0.00     0.171 C 
BRANCH  21  22
HETATM   22  O   UNL     1     -32.623  40.871 -52.276  1.00  0.00    -0.389 OA
HETATM   23  H   UNL     1     -31.716  41.190 -52.126  1.00  0.00     0.210 HD
ENDBRANCH  21  22
BRANCH  21  24
HETATM   24  C   UNL     1     -33.666  40.038 -50.262  1.00  0.00     0.000 A 
HETATM   25  C   UNL     1     -32.901  39.560 -49.146  1.00  0.00     0.001 A 
HETATM   26  C   UNL     1     -33.518  38.396 -48.672  1.00  0.00     0.044 A 
HETATM   27  C   UNL     1     -31.729  40.010 -48.500  1.00  0.00     0.014 A 
HETATM   28  C   UNL     1     -33.007  37.675 -47.579  1.00  0.00     0.030 A 
HETATM   29  N   UNL     1     -34.620  38.176 -49.467  1.00  0.00    -0.360 N 
HETATM   30  C   UNL     1     -31.842  38.141 -46.966  1.00  0.00     0.002 A 
HETATM   31  C   UNL     1     -31.209  39.293 -47.417  1.00  0.00     0.001 A 
HETATM   32  C   UNL     1     -35.569  37.092 -49.339  1.00  0.00     0.155 C 
HETATM   33  C   UNL     1     -34.707  39.142 -50.434  1.00  0.00     0.101 A 
ENDBRANCH  21  24
ENDBRANCH  20  21
ENDBRANCH   2  20
TORSDOF 7
ENDMDL
MODEL 8
REMARK VINA RESULT:      -8.2      2.947      5.053
REMARK  7 active torsions:
REMARK  status: ('A' for Active; 'I' for Inactive)
REMARK       I    between atoms: C_2  and  N_3 
REMARK    1  A    between atoms: N_3  and  C_4 
REMARK    2  A    between atoms: C_7  and  N_8 
REMARK       I    between atoms: N_8  and  C_9 
REMARK    3  A    between atoms: C_9  and  C_10 
REMARK       I    between atoms: C_10  and  N_11 
REMARK    4  A    between atoms: N_11  and  C_12 
REMARK    5  A    between atoms: C_12  and  C_13 
REMARK    6  A    between atoms: C_13  and  O_14 
REMARK    7  A    between atoms: C_13  and  C_15 
ROOT
HETATM    1  C   UNL     1     -41.187  57.966 -50.999  1.00  0.00     0.309 C 
HETATM    2  N   UNL     1     -41.234  56.598 -51.001  1.00  0.00    -0.350 N 
HETATM    3  O   UNL     1     -40.675  58.675 -50.144  1.00  0.00    -0.262 OA
HETATM    4  H   UNL     1     -41.565  56.147 -51.849  1.00  0.00     0.163 HD
ENDROOT
BRANCH   1   5
HETATM    5  C   UNL     1     -41.864  58.607 -52.233  1.00  0.00     0.313 C 
HETATM    6  N   UNL     1     -42.589  57.686 -52.960  1.00  0.00    -0.319 N 
HETATM    7  H   UNL     1     -42.608  56.753 -52.555  1.00  0.00     0.169 HD
HETATM    8  O   UNL     1     -41.707  59.802 -52.437  1.00  0.00    -0.262 OA
BRANCH   6   9
HETATM    9  C   UNL     1     -43.249  57.889 -54.184  1.00  0.00     0.035 A 
HETATM   10  C   UNL     1     -44.605  58.196 -54.292  1.00  0.00     0.032 A 
HETATM   11  C   UNL     1     -45.187  58.438 -55.544  1.00  0.00     0.032 A 
HETATM   12  C   UNL     1     -44.424  58.368 -56.709  1.00  0.00     0.034 A 
HETATM   13  C   UNL     1     -43.070  58.036 -56.603  1.00  0.00     0.032 A 
HETATM   14  C   UNL     1     -42.486  57.805 -55.351  1.00  0.00     0.032 A 
BRANCH  12  15
HETATM   15  N   UNL     1     -44.930  58.621 -58.001  1.00  0.00    -0.328 N 
HETATM   16  C   UNL     1     -45.089  57.714 -59.035  1.00  0.00     0.218 C 
HETATM   17  C   UNL     1     -45.693  58.345 -60.265  1.00  0.00     0.117 C 
HETATM   18  O   UNL     1     -44.831  56.516 -59.013  1.00  0.00    -0.274 OA
HETATM   19  H   UNL     1     -45.244  59.567 -58.174  1.00  0.00     0.169 HD
ENDBRANCH  12  15
ENDBRANCH   6   9
ENDBRANCH   1   5
BRANCH   2  20
HETATM   20  C   UNL     1     -40.661  55.768 -49.956  1.00  0.00     0.159 C 
BRANCH  20  21
HETATM   21  C   UNL     1     -41.384  54.414 -49.797  1.00  0.00     0.171 C 
BRANCH  21  22
HETATM   22  O   UNL     1     -41.391  54.056 -48.407  1.00  0.00    -0.389 OA
HETATM   23  H   UNL     1     -41.584  53.102 -48.380  1.00  0.00     0.210 HD
ENDBRANCH  21  22
BRANCH  21  24
HETATM   24  C   UNL     1     -40.793  53.305 -50.624  1.00  0.00     0.000 A 
HETATM   25  C   UNL     1     -40.618  53.294 -52.048  1.00  0.00     0.001 A 
HETATM   26  C   UNL     1     -40.060  52.059 -52.400  1.00  0.00     0.044 A 
HETATM   27  C   UNL     1     -40.894  54.224 -53.073  1.00  0.00     0.014 A 
HETATM   28  C   UNL     1     -39.768  51.727 -53.734  1.00  0.00     0.030 A 
HETATM   29  N   UNL     1     -39.898  51.346 -51.234  1.00  0.00    -0.360 N 
HETATM   30  C   UNL     1     -40.060  52.665 -54.728  1.00  0.00     0.002 A 
HETATM   31  C   UNL     1     -40.614  53.898 -54.405  1.00  0.00     0.001 A 
HETATM   32  C   UNL     1     -39.341  50.017 -51.110  1.00  0.00     0.155 C 
HETATM   33  C   UNL     1     -40.351  52.076 -50.167  1.00  0.00     0.101 A 
ENDBRANCH  21  24
ENDBRANCH  20  21
ENDBRANCH   2  20
TORSDOF 7
ENDMDL
MODEL 9
REMARK VINA RESULT:      -8.2      2.580     10.142
REMARK  7 active torsions:
REMARK  status: ('A' for Active; 'I' for Inactive)
REMARK       I    between atoms: C_2  and  N_3 
REMARK    1  A    between atoms: N_3  and  C_4 
REMARK    2  A    between atoms: C_7  and  N_8 
REMARK       I    between atoms: N_8  and  C_9 
REMARK    3  A    between atoms: C_9  and  C_10 
REMARK       I    between atoms: C_10  and  N_11 
REMARK    4  A    between atoms: N_11  and  C_12 
REMARK    5  A    between atoms: C_12  and  C_13 
REMARK    6  A    between atoms: C_13  and  O_14 
REMARK    7  A    between atoms: C_13  and  C_15 
ROOT
HETATM    1  C   UNL     1     -43.064  57.306 -56.520  1.00  0.00     0.309 C 
HETATM    2  N   UNL     1     -41.928  57.509 -57.255  1.00  0.00    -0.350 N 
HETATM    3  O   UNL     1     -44.139  57.870 -56.672  1.00  0.00    -0.262 OA
HETATM    4  H   UNL     1     -41.157  56.863 -57.105  1.00  0.00     0.163 HD
ENDROOT
BRANCH   1   5
HETATM    5  C   UNL     1     -42.898  56.241 -55.411  1.00  0.00     0.313 C 
HETATM    6  N   UNL     1     -41.648  55.658 -55.439  1.00  0.00    -0.319 N 
HETATM    7  H   UNL     1     -41.021  56.043 -56.141  1.00  0.00     0.169 HD
HETATM    8  O   UNL     1     -43.833  56.029 -54.652  1.00  0.00    -0.262 OA
BRANCH   6   9
HETATM    9  C   UNL     1     -41.183  54.593 -54.649  1.00  0.00     0.035 A 
HETATM   10  C   UNL     1     -40.369  53.568 -55.131  1.00  0.00     0.032 A 
HETATM   11  C   UNL     1     -39.898  52.564 -54.273  1.00  0.00     0.032 A 
HETATM   12  C   UNL     1     -40.241  52.564 -52.921  1.00  0.00     0.034 A 
HETATM   13  C   UNL     1     -41.077  53.577 -52.444  1.00  0.00     0.032 A 
HETATM   14  C   UNL     1     -41.539  54.587 -53.298  1.00  0.00     0.032 A 
BRANCH  12  15
HETATM   15  N   UNL     1     -39.789  51.604 -51.992  1.00  0.00    -0.328 N 
HETATM   16  C   UNL     1     -39.689  50.236 -52.176  1.00  0.00     0.218 C 
HETATM   17  C   UNL     1     -39.131  49.532 -50.964  1.00  0.00     0.117 C 
HETATM   18  O   UNL     1     -39.964  49.606 -53.191  1.00  0.00    -0.274 OA
HETATM   19  H   UNL     1     -39.470  51.968 -51.104  1.00  0.00     0.169 HD
ENDBRANCH  12  15
ENDBRANCH   6   9
ENDBRANCH   1   5
BRANCH   2  20
HETATM   20  C   UNL     1     -41.834  58.451 -58.356  1.00  0.00     0.159 C 
BRANCH  20  21
HETATM   21  C   UNL     1     -41.957  57.776 -59.739  1.00  0.00     0.171 C 
BRANCH  21  22
HETATM   22  O   UNL     1     -41.907  58.791 -60.753  1.00  0.00    -0.389 OA
HETATM   23  H   UNL     1     -42.010  58.324 -61.601  1.00  0.00     0.210 HD
ENDBRANCH  21  22
BRANCH  21  24
HETATM   24  C   UNL     1     -43.192  56.932 -59.899  1.00  0.00     0.000 A 
HETATM   25  C   UNL     1     -44.528  57.399 -60.136  1.00  0.00     0.001 A 
HETATM   26  C   UNL     1     -45.369  56.281 -60.189  1.00  0.00     0.044 A 
HETATM   27  C   UNL     1     -45.100  58.679 -60.302  1.00  0.00     0.014 A 
HETATM   28  C   UNL     1     -46.752  56.400 -60.405  1.00  0.00     0.030 A 
HETATM   29  N   UNL     1     -44.574  55.174 -59.995  1.00  0.00    -0.360 N 
HETATM   30  C   UNL     1     -47.291  57.680 -60.557  1.00  0.00     0.002 A 
HETATM   31  C   UNL     1     -46.478  58.807 -60.508  1.00  0.00     0.001 A 
HETATM   32  C   UNL     1     -45.010  53.795 -59.984  1.00  0.00     0.155 C 
HETATM   33  C   UNL     1     -43.272  55.554 -59.801  1.00  0.00     0.101 A 
ENDBRANCH  21  24
ENDBRANCH  20  21
ENDBRANCH   2  20
TORSDOF 7
ENDMDL
MODEL 10
REMARK VINA RESULT:      -8.2      7.767     11.523
REMARK  7 active torsions:
REMARK  status: ('A' for Active; 'I' for Inactive)
REMARK       I    between atoms: C_2  and  N_3 
REMARK    1  A    between atoms: N_3  and  C_4 
REMARK    2  A    between atoms: C_7  and  N_8 
REMARK       I    between atoms: N_8  and  C_9 
REMARK    3  A    between atoms: C_9  and  C_10 
REMARK       I    between atoms: C_10  and  N_11 
REMARK    4  A    between atoms: N_11  and  C_12 
REMARK    5  A    between atoms: C_12  and  C_13 
REMARK    6  A    between atoms: C_13  and  O_14 
REMARK    7  A    between atoms: C_13  and  C_15 
ROOT
HETATM    1  C   UNL     1     -42.993  59.262 -51.746  1.00  0.00     0.309 C 
HETATM    2  N   UNL     1     -43.351  59.593 -50.467  1.00  0.00    -0.350 N 
HETATM    3  O   UNL     1     -43.214  59.916 -52.756  1.00  0.00    -0.262 OA
HETATM    4  H   UNL     1     -42.971  59.022 -49.717  1.00  0.00     0.163 HD
ENDROOT
BRANCH   1   5
HETATM    5  C   UNL     1     -42.233  57.919 -51.845  1.00  0.00     0.313 C 
HETATM    6  N   UNL     1     -42.367  57.341 -53.090  1.00  0.00    -0.319 N 
HETATM    7  H   UNL     1     -42.896  57.898 -53.756  1.00  0.00     0.169 HD
HETATM    8  O   UNL     1     -41.614  57.518 -50.869  1.00  0.00    -0.262 OA
BRANCH   6   9
HETATM    9  C   UNL     1     -41.898  56.083 -53.505  1.00  0.00     0.035 A 
HETATM   10  C   UNL     1     -40.752  55.899 -54.277  1.00  0.00     0.032 A 
HETATM   11  C   UNL     1     -40.313  54.610 -54.610  1.00  0.00     0.032 A 
HETATM   12  C   UNL     1     -41.018  53.485 -54.185  1.00  0.00     0.034 A 
HETATM   13  C   UNL     1     -42.181  53.670 -53.432  1.00  0.00     0.032 A 
HETATM   14  C   UNL     1     -42.614  54.957 -53.088  1.00  0.00     0.032 A 
BRANCH  12  15
HETATM   15  N   UNL     1     -40.628  52.157 -54.460  1.00  0.00    -0.328 N 
HETATM   16  C   UNL     1     -39.809  51.346 -53.694  1.00  0.00     0.218 C 
HETATM   17  C   UNL     1     -39.642  49.971 -54.292  1.00  0.00     0.117 C 
HETATM   18  O   UNL     1     -39.280  51.629 -52.625  1.00  0.00    -0.274 OA
HETATM   19  H   UNL     1     -41.024  51.746 -55.294  1.00  0.00     0.169 HD
ENDBRANCH  12  15
ENDBRANCH   6   9
ENDBRANCH   1   5
BRANCH   2  20
HETATM   20  C   UNL     1     -44.065  60.808 -50.116  1.00  0.00     0.159 C 
BRANCH  20  21
HETATM   21  C   UNL     1     -45.011  60.624 -48.911  1.00  0.00     0.171 C 
BRANCH  21  22
HETATM   22  O   UNL     1     -45.867  59.500 -49.164  1.00  0.00    -0.389 OA
HETATM   23  H   UNL     1     -46.625  59.852 -49.662  1.00  0.00     0.210 HD
ENDBRANCH  21  22
BRANCH  21  24
HETATM   24  C   UNL     1     -45.827  61.845 -48.583  1.00  0.00     0.000 A 
HETATM   25  C   UNL     1     -45.861  62.546 -47.333  1.00  0.00     0.001 A 
HETATM   26  C   UNL     1     -46.774  63.601 -47.458  1.00  0.00     0.044 A 
HETATM   27  C   UNL     1     -45.201  62.372 -46.097  1.00  0.00     0.014 A 
HETATM   28  C   UNL     1     -47.043  64.483 -46.398  1.00  0.00     0.030 A 
HETATM   29  N   UNL     1     -47.274  63.545 -48.740  1.00  0.00    -0.360 N 
HETATM   30  C   UNL     1     -46.380  64.280 -45.185  1.00  0.00     0.002 A 
HETATM   31  C   UNL     1     -45.470  63.241 -45.033  1.00  0.00     0.001 A 
HETATM   32  C   UNL     1     -48.240  64.449 -49.324  1.00  0.00     0.155 C 
HETATM   33  C   UNL     1     -46.728  62.486 -49.415  1.00  0.00     0.101 A 
ENDBRANCH  21  24
ENDBRANCH  20  21
ENDBRANCH   2  20
TORSDOF 7
ENDMDL
