MODEL 1
REMARK VINA RESULT:      -8.0      0.000      0.000
REMARK  4 active torsions:
REMARK  status: ('A' for Active; 'I' for Inactive)
REMARK    1  A    between atoms: C_5  and  C_6 
REMARK    2  A    between atoms: N_7  and  N_8 
REMARK       I    between atoms: N_8  and  C_9 
REMARK    3  A    between atoms: C_9  and  C_10 
REMARK    4  A    between atoms: C_21  and  O_22 
ROOT
HETATM    1  N   UNL     1     -42.262  54.445 -54.302  1.00  0.00    -0.242 N 
HETATM    2  C   UNL     1     -40.968  54.681 -53.864  1.00  0.00     0.292 C 
HETATM    3  O   UNL     1     -40.252  55.602 -54.248  1.00  0.00    -0.264 OA
HETATM    4  H   UNL     1     -42.743  53.643 -53.900  1.00  0.00     0.192 HD
ENDROOT
BRANCH   1   5
HETATM    5  N   UNL     1     -42.851  55.263 -55.214  1.00  0.00    -0.183 NA
HETATM    6  C   UNL     1     -42.515  55.061 -56.447  1.00  0.00     0.153 C 
BRANCH   6   7
HETATM    7  C   UNL     1     -43.096  55.885 -57.527  1.00  0.00     0.017 A 
HETATM    8  C   UNL     1     -43.692  55.228 -58.608  1.00  0.00     0.034 A 
HETATM    9  C   UNL     1     -44.252  55.981 -59.642  1.00  0.00     0.012 A 
HETATM   10  C   UNL     1     -44.223  57.376 -59.608  1.00  0.00     0.022 A 
HETATM   11 BR   UNL     1     -45.059  55.100 -61.107  1.00  0.00    -0.051 Br
HETATM   12  C   UNL     1     -43.628  58.028 -58.528  1.00  0.00     0.039 A 
HETATM   13  C   UNL     1     -43.066  57.286 -57.491  1.00  0.00     0.077 A 
BRANCH  13  14
HETATM   14  O   UNL     1     -42.503  58.003 -56.471  1.00  0.00    -0.360 OA
HETATM   15  H   UNL     1     -42.573  58.962 -56.687  1.00  0.00     0.217 HD
ENDBRANCH  13  14
ENDBRANCH   6   7
ENDBRANCH   1   5
BRANCH   2  16
HETATM   16  C   UNL     1     -40.532  53.690 -52.865  1.00  0.00     0.154 A 
HETATM   17  N   UNL     1     -40.410  54.008 -51.552  1.00  0.00    -0.169 NA
HETATM   18  N   UNL     1     -40.008  52.861 -50.967  1.00  0.00    -0.281 N 
HETATM   19  H   UNL     1     -39.845  52.859 -49.965  1.00  0.00     0.189 HD
HETATM   20  C   UNL     1     -39.870  51.833 -51.844  1.00  0.00     0.036 A 
HETATM   21  C   UNL     1     -40.193  52.330 -53.085  1.00  0.00     0.002 A 
HETATM   22  C   UNL     1     -39.428  50.453 -51.533  1.00  0.00     0.059 C 
HETATM   23  C   UNL     1     -40.176  51.500 -54.319  1.00  0.00     0.043 C 
HETATM   24  C   UNL     1     -39.404  50.185 -54.082  1.00  0.00     0.005 C 
HETATM   25  C   UNL     1     -39.749  49.532 -52.728  1.00  0.00     0.006 C 
ENDBRANCH   2  16
TORSDOF 4
ENDMDL
MODEL 2
REMARK VINA RESULT:      -7.5      1.920      2.190
REMARK  4 active torsions:
REMARK  status: ('A' for Active; 'I' for Inactive)
REMARK    1  A    between atoms: C_5  and  C_6 
REMARK    2  A    between atoms: N_7  and  N_8 
REMARK       I    between atoms: N_8  and  C_9 
REMARK    3  A    between atoms: C_9  and  C_10 
REMARK    4  A    between atoms: C_21  and  O_22 
ROOT
HETATM    1  N   UNL     1     -42.043  54.701 -55.670  1.00  0.00    -0.242 N 
HETATM    2  C   UNL     1     -42.633  54.498 -54.432  1.00  0.00     0.292 C 
HETATM    3  O   UNL     1     -43.819  54.694 -54.177  1.00  0.00    -0.264 OA
HETATM    4  H   UNL     1     -41.049  54.497 -55.743  1.00  0.00     0.192 HD
ENDROOT
BRANCH   1   5
HETATM    5  N   UNL     1     -42.775  55.135 -56.730  1.00  0.00    -0.183 NA
HETATM    6  C   UNL     1     -42.736  56.410 -56.952  1.00  0.00     0.153 C 
BRANCH   6   7
HETATM    7  C   UNL     1     -43.487  56.997 -58.081  1.00  0.00     0.017 A 
HETATM    8  C   UNL     1     -44.602  57.790 -57.789  1.00  0.00     0.034 A 
HETATM    9  C   UNL     1     -45.329  58.360 -58.835  1.00  0.00     0.012 A 
HETATM   10  C   UNL     1     -44.957  58.150 -60.163  1.00  0.00     0.022 A 
HETATM   11 BR   UNL     1     -46.838  59.431 -58.446  1.00  0.00    -0.051 Br
HETATM   12  C   UNL     1     -43.845  57.359 -60.451  1.00  0.00     0.039 A 
HETATM   13  C   UNL     1     -43.112  56.784 -59.414  1.00  0.00     0.077 A 
BRANCH  13  14
HETATM   14  O   UNL     1     -42.036  56.025 -59.784  1.00  0.00    -0.360 OA
HETATM   15  H   UNL     1     -41.295  56.208 -59.160  1.00  0.00     0.217 HD
ENDBRANCH  13  14
ENDBRANCH   6   7
ENDBRANCH   1   5
BRANCH   2  16
HETATM   16  C   UNL     1     -41.668  54.007 -53.432  1.00  0.00     0.154 A 
HETATM   17  N   UNL     1     -41.340  54.740 -52.340  1.00  0.00    -0.169 NA
HETATM   18  N   UNL     1     -40.456  53.969 -51.674  1.00  0.00    -0.281 N 
HETATM   19  H   UNL     1     -40.062  54.320 -50.807  1.00  0.00     0.189 HD
HETATM   20  C   UNL     1     -40.208  52.785 -52.292  1.00  0.00     0.036 A 
HETATM   21  C   UNL     1     -40.968  52.774 -53.438  1.00  0.00     0.002 A 
HETATM   22  C   UNL     1     -39.278  51.723 -51.838  1.00  0.00     0.059 C 
HETATM   23  C   UNL     1     -40.983  51.630 -54.389  1.00  0.00     0.043 C 
HETATM   24  C   UNL     1     -39.791  50.686 -54.126  1.00  0.00     0.005 C 
HETATM   25  C   UNL     1     -39.562  50.426 -52.622  1.00  0.00     0.006 C 
ENDBRANCH   2  16
TORSDOF 4
ENDMDL
MODEL 3
REMARK VINA RESULT:      -7.5      1.590      1.699
REMARK  4 active torsions:
REMARK  status: ('A' for Active; 'I' for Inactive)
REMARK    1  A    between atoms: C_5  and  C_6 
REMARK    2  A    between atoms: N_7  and  N_8 
REMARK       I    between atoms: N_8  and  C_9 
REMARK    3  A    between atoms: C_9  and  C_10 
REMARK    4  A    between atoms: C_21  and  O_22 
ROOT
HETATM    1  N   UNL     1     -42.064  54.278 -54.739  1.00  0.00    -0.242 N 
HETATM    2  C   UNL     1     -40.703  54.246 -54.474  1.00  0.00     0.292 C 
HETATM    3  O   UNL     1     -39.844  54.822 -55.137  1.00  0.00    -0.264 OA
HETATM    4  H   UNL     1     -42.666  53.755 -54.107  1.00  0.00     0.192 HD
ENDROOT
BRANCH   1   5
HETATM    5  N   UNL     1     -42.555  54.990 -55.787  1.00  0.00    -0.183 NA
HETATM    6  C   UNL     1     -42.927  56.200 -55.517  1.00  0.00     0.153 C 
BRANCH   6   7
HETATM    7  C   UNL     1     -43.472  57.071 -56.578  1.00  0.00     0.017 A 
HETATM    8  C   UNL     1     -42.685  57.297 -57.712  1.00  0.00     0.034 A 
HETATM    9  C   UNL     1     -43.175  58.114 -58.733  1.00  0.00     0.012 A 
HETATM   10  C   UNL     1     -44.436  58.704 -58.634  1.00  0.00     0.022 A 
HETATM   11 BR   UNL     1     -42.117  58.425 -60.269  1.00  0.00    -0.051 Br
HETATM   12  C   UNL     1     -45.218  58.476 -57.501  1.00  0.00     0.039 A 
HETATM   13  C   UNL     1     -44.738  57.663 -56.477  1.00  0.00     0.077 A 
BRANCH  13  14
HETATM   14  O   UNL     1     -45.567  57.492 -55.403  1.00  0.00    -0.360 OA
HETATM   15  H   UNL     1     -45.395  58.215 -54.756  1.00  0.00     0.217 HD
ENDBRANCH  13  14
ENDBRANCH   6   7
ENDBRANCH   1   5
BRANCH   2  16
HETATM   16  C   UNL     1     -40.389  53.435 -53.285  1.00  0.00     0.154 A 
HETATM   17  N   UNL     1     -40.375  53.972 -52.040  1.00  0.00    -0.169 NA
HETATM   18  N   UNL     1     -40.062  52.937 -51.234  1.00  0.00    -0.281 N 
HETATM   19  H   UNL     1     -39.989  53.104 -50.235  1.00  0.00     0.189 HD
HETATM   20  C   UNL     1     -39.877  51.772 -51.907  1.00  0.00     0.036 A 
HETATM   21  C   UNL     1     -40.073  52.054 -53.239  1.00  0.00     0.002 A 
HETATM   22  C   UNL     1     -39.507  50.459 -51.326  1.00  0.00     0.059 C 
HETATM   23  C   UNL     1     -39.971  51.023 -54.308  1.00  0.00     0.043 C 
HETATM   24  C   UNL     1     -39.264  49.757 -53.780  1.00  0.00     0.005 C 
HETATM   25  C   UNL     1     -39.748  49.352 -52.373  1.00  0.00     0.006 C 
ENDBRANCH   2  16
TORSDOF 4
ENDMDL
MODEL 4
REMARK VINA RESULT:      -7.3      3.001      8.048
REMARK  4 active torsions:
REMARK  status: ('A' for Active; 'I' for Inactive)
REMARK    1  A    between atoms: C_5  and  C_6 
REMARK    2  A    between atoms: N_7  and  N_8 
REMARK       I    between atoms: N_8  and  C_9 
REMARK    3  A    between atoms: C_9  and  C_10 
REMARK    4  A    between atoms: C_21  and  O_22 
ROOT
HETATM    1  N   UNL     1     -43.201  55.665 -56.139  1.00  0.00    -0.242 N 
HETATM    2  C   UNL     1     -43.038  56.897 -56.754  1.00  0.00     0.292 C 
HETATM    3  O   UNL     1     -42.090  57.655 -56.567  1.00  0.00    -0.264 OA
HETATM    4  H   UNL     1     -44.035  55.136 -56.386  1.00  0.00     0.192 HD
ENDROOT
BRANCH   1   5
HETATM    5  N   UNL     1     -42.274  55.192 -55.264  1.00  0.00    -0.183 NA
HETATM    6  C   UNL     1     -42.431  53.962 -54.892  1.00  0.00     0.153 C 
BRANCH   6   7
HETATM    7  C   UNL     1     -41.482  53.338 -53.947  1.00  0.00     0.017 A 
HETATM    8  C   UNL     1     -40.933  52.098 -54.289  1.00  0.00     0.034 A 
HETATM    9  C   UNL     1     -40.031  51.485 -53.418  1.00  0.00     0.012 A 
HETATM   10  C   UNL     1     -39.672  52.095 -52.215  1.00  0.00     0.022 A 
HETATM   11 BR   UNL     1     -39.286  49.808 -53.873  1.00  0.00    -0.051 Br
HETATM   12  C   UNL     1     -40.222  53.332 -51.877  1.00  0.00     0.039 A 
HETATM   13  C   UNL     1     -41.123  53.951 -52.740  1.00  0.00     0.077 A 
BRANCH  13  14
HETATM   14  O   UNL     1     -41.614  55.162 -52.333  1.00  0.00    -0.360 OA
HETATM   15  H   UNL     1     -41.669  55.162 -51.349  1.00  0.00     0.217 HD
ENDBRANCH  13  14
ENDBRANCH   6   7
ENDBRANCH   1   5
BRANCH   2  16
HETATM   16  C   UNL     1     -44.143  57.206 -57.677  1.00  0.00     0.154 A 
HETATM   17  N   UNL     1     -44.900  58.321 -57.534  1.00  0.00    -0.169 NA
HETATM   18  N   UNL     1     -45.782  58.259 -58.552  1.00  0.00    -0.281 N 
HETATM   19  H   UNL     1     -46.467  59.003 -58.648  1.00  0.00     0.189 HD
HETATM   20  C   UNL     1     -45.621  57.159 -59.332  1.00  0.00     0.036 A 
HETATM   21  C   UNL     1     -44.575  56.447 -58.795  1.00  0.00     0.002 A 
HETATM   22  C   UNL     1     -46.433  56.781 -60.515  1.00  0.00     0.059 C 
HETATM   23  C   UNL     1     -44.078  55.172 -59.379  1.00  0.00     0.043 C 
HETATM   24  C   UNL     1     -45.102  54.593 -60.378  1.00  0.00     0.005 C 
HETATM   25  C   UNL     1     -45.703  55.674 -61.302  1.00  0.00     0.006 C 
ENDBRANCH   2  16
TORSDOF 4
ENDMDL
MODEL 5
REMARK VINA RESULT:      -7.3      3.006      8.270
REMARK  4 active torsions:
REMARK  status: ('A' for Active; 'I' for Inactive)
REMARK    1  A    between atoms: C_5  and  C_6 
REMARK    2  A    between atoms: N_7  and  N_8 
REMARK       I    between atoms: N_8  and  C_9 
REMARK    3  A    between atoms: C_9  and  C_10 
REMARK    4  A    between atoms: C_21  and  O_22 
ROOT
HETATM    1  N   UNL     1     -41.769  56.199 -55.905  1.00  0.00    -0.242 N 
HETATM    2  C   UNL     1     -42.799  55.986 -56.808  1.00  0.00     0.292 C 
HETATM    3  O   UNL     1     -43.206  54.883 -57.163  1.00  0.00    -0.264 OA
HETATM    4  H   UNL     1     -41.532  57.167 -55.699  1.00  0.00     0.192 HD
ENDROOT
BRANCH   1   5
HETATM    5  N   UNL     1     -41.126  55.155 -55.319  1.00  0.00    -0.183 NA
HETATM    6  C   UNL     1     -41.474  54.896 -54.099  1.00  0.00     0.153 C 
BRANCH   6   7
HETATM    7  C   UNL     1     -40.848  53.780 -53.361  1.00  0.00     0.017 A 
HETATM    8  C   UNL     1     -40.550  52.610 -54.068  1.00  0.00     0.034 A 
HETATM    9  C   UNL     1     -39.955  51.538 -53.398  1.00  0.00     0.012 A 
HETATM   10  C   UNL     1     -39.656  51.623 -52.038  1.00  0.00     0.022 A 
HETATM   11 BR   UNL     1     -39.550  49.954 -54.346  1.00  0.00    -0.051 Br
HETATM   12  C   UNL     1     -39.955  52.791 -51.336  1.00  0.00     0.039 A 
HETATM   13  C   UNL     1     -40.549  53.866 -51.995  1.00  0.00     0.077 A 
BRANCH  13  14
HETATM   14  O   UNL     1     -40.808  54.973 -51.235  1.00  0.00    -0.360 OA
HETATM   15  H   UNL     1     -41.765  55.191 -51.315  1.00  0.00     0.217 HD
ENDBRANCH  13  14
ENDBRANCH   6   7
ENDBRANCH   1   5
BRANCH   2  16
HETATM   16  C   UNL     1     -43.368  57.250 -57.306  1.00  0.00     0.154 A 
HETATM   17  N   UNL     1     -44.426  57.843 -56.700  1.00  0.00    -0.169 NA
HETATM   18  N   UNL     1     -44.645  58.959 -57.425  1.00  0.00    -0.281 N 
HETATM   19  H   UNL     1     -45.407  59.573 -57.154  1.00  0.00     0.189 HD
HETATM   20  C   UNL     1     -43.778  59.102 -58.460  1.00  0.00     0.036 A 
HETATM   21  C   UNL     1     -42.939  58.012 -58.423  1.00  0.00     0.002 A 
HETATM   22  C   UNL     1     -43.755  60.200 -59.456  1.00  0.00     0.059 C 
HETATM   23  C   UNL     1     -41.832  57.809 -59.396  1.00  0.00     0.043 C 
HETATM   24  C   UNL     1     -42.003  58.734 -60.619  1.00  0.00     0.005 C 
HETATM   25  C   UNL     1     -42.418  60.166 -60.224  1.00  0.00     0.006 C 
ENDBRANCH   2  16
TORSDOF 4
ENDMDL
MODEL 6
REMARK VINA RESULT:      -7.2      3.445      8.561
REMARK  4 active torsions:
REMARK  status: ('A' for Active; 'I' for Inactive)
REMARK    1  A    between atoms: C_5  and  C_6 
REMARK    2  A    between atoms: N_7  and  N_8 
REMARK       I    between atoms: N_8  and  C_9 
REMARK    3  A    between atoms: C_9  and  C_10 
REMARK    4  A    between atoms: C_21  and  O_22 
ROOT
HETATM    1  N   UNL     1     -41.851  55.261 -56.153  1.00  0.00    -0.242 N 
HETATM    2  C   UNL     1     -42.799  56.218 -56.484  1.00  0.00     0.292 C 
HETATM    3  O   UNL     1     -43.644  56.666 -55.714  1.00  0.00    -0.264 OA
HETATM    4  H   UNL     1     -41.208  54.978 -56.890  1.00  0.00     0.192 HD
ENDROOT
BRANCH   1   5
HETATM    5  N   UNL     1     -41.788  54.746 -54.897  1.00  0.00    -0.183 NA
HETATM    6  C   UNL     1     -40.726  54.055 -54.628  1.00  0.00     0.153 C 
BRANCH   6   7
HETATM    7  C   UNL     1     -40.544  53.452 -53.292  1.00  0.00     0.017 A 
HETATM    8  C   UNL     1     -40.921  54.202 -52.173  1.00  0.00     0.034 A 
HETATM    9  C   UNL     1     -40.762  53.656 -50.898  1.00  0.00     0.012 A 
HETATM   10  C   UNL     1     -40.235  52.376 -50.729  1.00  0.00     0.022 A 
HETATM   11 BR   UNL     1     -41.269  54.665 -49.382  1.00  0.00    -0.051 Br
HETATM   12  C   UNL     1     -39.860  51.630 -51.846  1.00  0.00     0.039 A 
HETATM   13  C   UNL     1     -40.013  52.166 -53.123  1.00  0.00     0.077 A 
BRANCH  13  14
HETATM   14  O   UNL     1     -39.622  51.369 -54.164  1.00  0.00    -0.360 OA
HETATM   15  H   UNL     1     -39.467  50.458 -53.819  1.00  0.00     0.217 HD
ENDBRANCH  13  14
ENDBRANCH   6   7
ENDBRANCH   1   5
BRANCH   2  16
HETATM   16  C   UNL     1     -42.679  56.653 -57.886  1.00  0.00     0.154 A 
HETATM   17  N   UNL     1     -42.861  55.792 -58.917  1.00  0.00    -0.169 NA
HETATM   18  N   UNL     1     -42.683  56.549 -60.020  1.00  0.00    -0.281 N 
HETATM   19  H   UNL     1     -42.769  56.108 -60.930  1.00  0.00     0.189 HD
HETATM   20  C   UNL     1     -42.397  57.846 -59.736  1.00  0.00     0.036 A 
HETATM   21  C   UNL     1     -42.378  57.954 -58.366  1.00  0.00     0.002 A 
HETATM   22  C   UNL     1     -42.127  58.930 -60.712  1.00  0.00     0.059 C 
HETATM   23  C   UNL     1     -42.111  59.235 -57.657  1.00  0.00     0.043 C 
HETATM   24  C   UNL     1     -41.499  60.274 -58.620  1.00  0.00     0.005 C 
HETATM   25  C   UNL     1     -42.202  60.293 -59.993  1.00  0.00     0.006 C 
ENDBRANCH   2  16
TORSDOF 4
ENDMDL
MODEL 7
REMARK VINA RESULT:      -7.1      2.389      3.348
REMARK  4 active torsions:
REMARK  status: ('A' for Active; 'I' for Inactive)
REMARK    1  A    between atoms: C_5  and  C_6 
REMARK    2  A    between atoms: N_7  and  N_8 
REMARK       I    between atoms: N_8  and  C_9 
REMARK    3  A    between atoms: C_9  and  C_10 
REMARK    4  A    between atoms: C_21  and  O_22 
ROOT
HETATM    1  N   UNL     1     -41.980  54.263 -54.907  1.00  0.00    -0.242 N 
HETATM    2  C   UNL     1     -40.667  54.172 -54.472  1.00  0.00     0.292 C 
HETATM    3  O   UNL     1     -39.683  54.491 -55.135  1.00  0.00    -0.264 OA
HETATM    4  H   UNL     1     -42.701  53.964 -54.254  1.00  0.00     0.192 HD
ENDROOT
BRANCH   1   5
HETATM    5  N   UNL     1     -42.276  54.746 -56.143  1.00  0.00    -0.183 NA
HETATM    6  C   UNL     1     -42.507  56.018 -56.207  1.00  0.00     0.153 C 
BRANCH   6   7
HETATM    7  C   UNL     1     -42.832  56.657 -57.498  1.00  0.00     0.017 A 
HETATM    8  C   UNL     1     -42.379  57.962 -57.720  1.00  0.00     0.034 A 
HETATM    9  C   UNL     1     -42.668  58.590 -58.933  1.00  0.00     0.012 A 
HETATM   10  C   UNL     1     -43.402  57.932 -59.921  1.00  0.00     0.022 A 
HETATM   11 BR   UNL     1     -42.059  60.353 -59.239  1.00  0.00    -0.051 Br
HETATM   12  C   UNL     1     -43.853  56.632 -59.696  1.00  0.00     0.039 A 
HETATM   13  C   UNL     1     -43.569  55.996 -58.490  1.00  0.00     0.077 A 
BRANCH  13  14
HETATM   14  O   UNL     1     -44.047  54.722 -58.351  1.00  0.00    -0.360 OA
HETATM   15  H   UNL     1     -43.315  54.146 -58.029  1.00  0.00     0.217 HD
ENDBRANCH  13  14
ENDBRANCH   6   7
ENDBRANCH   1   5
BRANCH   2  16
HETATM   16  C   UNL     1     -40.573  53.643 -53.100  1.00  0.00     0.154 A 
HETATM   17  N   UNL     1     -40.119  52.391 -52.849  1.00  0.00    -0.169 NA
HETATM   18  N   UNL     1     -40.170  52.280 -51.506  1.00  0.00    -0.281 N 
HETATM   19  H   UNL     1     -39.874  51.408 -51.079  1.00  0.00     0.189 HD
HETATM   20  C   UNL     1     -40.634  53.401 -50.895  1.00  0.00     0.036 A 
HETATM   21  C   UNL     1     -40.914  54.305 -51.893  1.00  0.00     0.002 A 
HETATM   22  C   UNL     1     -40.832  53.603 -49.439  1.00  0.00     0.059 C 
HETATM   23  C   UNL     1     -41.436  55.672 -51.625  1.00  0.00     0.043 C 
HETATM   24  C   UNL     1     -41.965  55.780 -50.179  1.00  0.00     0.005 C 
HETATM   25  C   UNL     1     -41.029  55.106 -49.155  1.00  0.00     0.006 C 
ENDBRANCH   2  16
TORSDOF 4
ENDMDL
MODEL 8
REMARK VINA RESULT:      -7.0      3.361      8.115
REMARK  4 active torsions:
REMARK  status: ('A' for Active; 'I' for Inactive)
REMARK    1  A    between atoms: C_5  and  C_6 
REMARK    2  A    between atoms: N_7  and  N_8 
REMARK       I    between atoms: N_8  and  C_9 
REMARK    3  A    between atoms: C_9  and  C_10 
REMARK    4  A    between atoms: C_21  and  O_22 
ROOT
HETATM    1  N   UNL     1     -41.307  55.870 -55.684  1.00  0.00    -0.242 N 
HETATM    2  C   UNL     1     -42.386  56.733 -55.569  1.00  0.00     0.292 C 
HETATM    3  O   UNL     1     -42.962  57.003 -54.519  1.00  0.00    -0.264 OA
HETATM    4  H   UNL     1     -40.924  55.736 -56.617  1.00  0.00     0.192 HD
ENDROOT
BRANCH   1   5
HETATM    5  N   UNL     1     -40.787  55.252 -54.590  1.00  0.00    -0.183 NA
HETATM    6  C   UNL     1     -41.102  54.004 -54.449  1.00  0.00     0.153 C 
BRANCH   6   7
HETATM    7  C   UNL     1     -40.591  53.227 -53.302  1.00  0.00     0.017 A 
HETATM    8  C   UNL     1     -40.594  53.835 -52.042  1.00  0.00     0.034 A 
HETATM    9  C   UNL     1     -40.120  53.124 -50.938  1.00  0.00     0.012 A 
HETATM   10  C   UNL     1     -39.645  51.819 -51.078  1.00  0.00     0.022 A 
HETATM   11 BR   UNL     1     -40.120  53.939 -49.232  1.00  0.00    -0.051 Br
HETATM   12  C   UNL     1     -39.643  51.216 -52.336  1.00  0.00     0.039 A 
HETATM   13  C   UNL     1     -40.114  51.917 -53.444  1.00  0.00     0.077 A 
BRANCH  13  14
HETATM   14  O   UNL     1     -40.078  51.253 -54.639  1.00  0.00    -0.360 OA
HETATM   15  H   UNL     1     -40.940  51.387 -55.098  1.00  0.00     0.217 HD
ENDBRANCH  13  14
ENDBRANCH   6   7
ENDBRANCH   1   5
BRANCH   2  16
HETATM   16  C   UNL     1     -42.775  57.308 -56.869  1.00  0.00     0.154 A 
HETATM   17  N   UNL     1     -42.678  58.637 -57.117  1.00  0.00    -0.169 NA
HETATM   18  N   UNL     1     -43.109  58.771 -58.388  1.00  0.00    -0.281 N 
HETATM   19  H   UNL     1     -43.128  59.700 -58.799  1.00  0.00     0.189 HD
HETATM   20  C   UNL     1     -43.474  57.592 -58.956  1.00  0.00     0.036 A 
HETATM   21  C   UNL     1     -43.280  56.621 -58.003  1.00  0.00     0.002 A 
HETATM   22  C   UNL     1     -44.006  57.393 -60.326  1.00  0.00     0.059 C 
HETATM   23  C   UNL     1     -43.556  55.179 -58.247  1.00  0.00     0.043 C 
HETATM   24  C   UNL     1     -44.417  54.996 -59.515  1.00  0.00     0.005 C 
HETATM   25  C   UNL     1     -43.953  55.893 -60.680  1.00  0.00     0.006 C 
ENDBRANCH   2  16
TORSDOF 4
ENDMDL
MODEL 9
REMARK VINA RESULT:      -7.0      5.215      5.874
REMARK  4 active torsions:
REMARK  status: ('A' for Active; 'I' for Inactive)
REMARK    1  A    between atoms: C_5  and  C_6 
REMARK    2  A    between atoms: N_7  and  N_8 
REMARK       I    between atoms: N_8  and  C_9 
REMARK    3  A    between atoms: C_9  and  C_10 
REMARK    4  A    between atoms: C_21  and  O_22 
ROOT
HETATM    1  N   UNL     1     -42.457  56.237 -51.495  1.00  0.00    -0.242 N 
HETATM    2  C   UNL     1     -42.835  55.018 -50.953  1.00  0.00     0.292 C 
HETATM    3  O   UNL     1     -43.948  54.764 -50.501  1.00  0.00    -0.264 OA
HETATM    4  H   UNL     1     -41.500  56.312 -51.834  1.00  0.00     0.192 HD
ENDROOT
BRANCH   1   5
HETATM    5  N   UNL     1     -43.339  57.268 -51.578  1.00  0.00    -0.183 NA
HETATM    6  C   UNL     1     -42.863  58.437 -51.290  1.00  0.00     0.153 C 
BRANCH   6   7
HETATM    7  C   UNL     1     -43.727  59.634 -51.351  1.00  0.00     0.017 A 
HETATM    8  C   UNL     1     -43.270  60.739 -52.077  1.00  0.00     0.034 A 
HETATM    9  C   UNL     1     -44.066  61.883 -52.155  1.00  0.00     0.012 A 
HETATM   10  C   UNL     1     -45.307  61.935 -51.520  1.00  0.00     0.022 A 
HETATM   11 BR   UNL     1     -43.454  63.380 -53.134  1.00  0.00    -0.051 Br
HETATM   12  C   UNL     1     -45.759  60.832 -50.796  1.00  0.00     0.039 A 
HETATM   13  C   UNL     1     -44.973  59.685 -50.712  1.00  0.00     0.077 A 
BRANCH  13  14
HETATM   14  O   UNL     1     -45.491  58.649 -49.984  1.00  0.00    -0.360 OA
HETATM   15  H   UNL     1     -44.851  57.899 -50.009  1.00  0.00     0.217 HD
ENDBRANCH  13  14
ENDBRANCH   6   7
ENDBRANCH   1   5
BRANCH   2  16
HETATM   16  C   UNL     1     -41.736  54.037 -50.978  1.00  0.00     0.154 A 
HETATM   17  N   UNL     1     -41.098  53.652 -49.846  1.00  0.00    -0.169 NA
HETATM   18  N   UNL     1     -40.182  52.756 -50.266  1.00  0.00    -0.281 N 
HETATM   19  H   UNL     1     -39.571  52.326 -49.578  1.00  0.00     0.189 HD
HETATM   20  C   UNL     1     -40.209  52.555 -51.609  1.00  0.00     0.036 A 
HETATM   21  C   UNL     1     -41.197  53.371 -52.108  1.00  0.00     0.002 A 
HETATM   22  C   UNL     1     -39.327  51.655 -52.391  1.00  0.00     0.059 C 
HETATM   23  C   UNL     1     -41.547  53.428 -53.554  1.00  0.00     0.043 C 
HETATM   24  C   UNL     1     -40.439  52.778 -54.409  1.00  0.00     0.005 C 
HETATM   25  C   UNL     1     -39.919  51.459 -53.801  1.00  0.00     0.006 C 
ENDBRANCH   2  16
TORSDOF 4
ENDMDL
MODEL 10
REMARK VINA RESULT:      -6.9      2.519      3.255
REMARK  4 active torsions:
REMARK  status: ('A' for Active; 'I' for Inactive)
REMARK    1  A    between atoms: C_5  and  C_6 
REMARK    2  A    between atoms: N_7  and  N_8 
REMARK       I    between atoms: N_8  and  C_9 
REMARK    3  A    between atoms: C_9  and  C_10 
REMARK    4  A    between atoms: C_21  and  O_22 
ROOT
HETATM    1  N   UNL     1     -42.033  55.684 -55.055  1.00  0.00    -0.242 N 
HETATM    2  C   UNL     1     -42.700  54.794 -54.226  1.00  0.00     0.292 C 
HETATM    3  O   UNL     1     -43.918  54.634 -54.202  1.00  0.00    -0.264 OA
HETATM    4  H   UNL     1     -41.020  55.716 -54.972  1.00  0.00     0.192 HD
ENDROOT
BRANCH   1   5
HETATM    5  N   UNL     1     -42.714  56.457 -55.942  1.00  0.00    -0.183 NA
HETATM    6  C   UNL     1     -42.735  56.025 -57.162  1.00  0.00     0.153 C 
BRANCH   6   7
HETATM    7  C   UNL     1     -43.449  56.778 -58.212  1.00  0.00     0.017 A 
HETATM    8  C   UNL     1     -44.600  57.486 -57.848  1.00  0.00     0.034 A 
HETATM    9  C   UNL     1     -45.294  58.210 -58.819  1.00  0.00     0.012 A 
HETATM   10  C   UNL     1     -44.854  58.236 -60.143  1.00  0.00     0.022 A 
HETATM   11 BR   UNL     1     -46.850  59.167 -58.333  1.00  0.00    -0.051 Br
HETATM   12  C   UNL     1     -43.706  57.529 -60.502  1.00  0.00     0.039 A 
HETATM   13  C   UNL     1     -43.006  56.803 -59.541  1.00  0.00     0.077 A 
BRANCH  13  14
HETATM   14  O   UNL     1     -41.892  56.140 -59.978  1.00  0.00    -0.360 OA
HETATM   15  H   UNL     1     -42.142  55.208 -60.181  1.00  0.00     0.217 HD
ENDBRANCH  13  14
ENDBRANCH   6   7
ENDBRANCH   1   5
BRANCH   2  16
HETATM   16  C   UNL     1     -41.774  54.044 -53.361  1.00  0.00     0.154 A 
HETATM   17  N   UNL     1     -41.120  52.942 -53.804  1.00  0.00    -0.169 NA
HETATM   18  N   UNL     1     -40.376  52.549 -52.750  1.00  0.00    -0.281 N 
HETATM   19  H   UNL     1     -39.792  51.724 -52.848  1.00  0.00     0.189 HD
HETATM   20  C   UNL     1     -40.526  53.348 -51.662  1.00  0.00     0.036 A 
HETATM   21  C   UNL     1     -41.429  54.324 -52.014  1.00  0.00     0.002 A 
HETATM   22  C   UNL     1     -39.870  53.186 -50.342  1.00  0.00     0.059 C 
HETATM   23  C   UNL     1     -41.851  55.409 -51.087  1.00  0.00     0.043 C 
HETATM   24  C   UNL     1     -41.459  55.069 -49.634  1.00  0.00     0.005 C 
HETATM   25  C   UNL     1     -40.035  54.484 -49.527  1.00  0.00     0.006 C 
ENDBRANCH   2  16
TORSDOF 4
ENDMDL
