MODEL 1
REMARK VINA RESULT:      -7.5      0.000      0.000
REMARK  6 active torsions:
REMARK  status: ('A' for Active; 'I' for Inactive)
REMARK    1  A    between atoms: C_2  and  C_3 
REMARK    2  A    between atoms: C_3  and  N_4 
REMARK    3  A    between atoms: C_3  and  C_15 
REMARK       I    between atoms: N_4  and  C_5 
REMARK    4  A    between atoms: C_5  and  C_6 
REMARK    5  A    between atoms: C_6  and  C_7 
REMARK    6  A    between atoms: C_16  and  O_17 
ROOT
HETATM    1  C   UNL     1     -43.085  56.385 -56.413  1.00  0.00     0.128 C 
ENDROOT
BRANCH   1   2
HETATM    2  C   UNL     1     -43.798  57.399 -55.437  1.00  0.00    -0.026 C 
HETATM    3  C   UNL     1     -42.828  58.407 -54.792  1.00  0.00     0.016 C 
HETATM    4  C   UNL     1     -44.495  56.625 -54.294  1.00  0.00     0.016 C 
HETATM    5  C   UNL     1     -44.895  58.190 -56.183  1.00  0.00     0.016 C 
ENDBRANCH   1   2
BRANCH   1   6
HETATM    6  N   UNL     1     -41.840  55.845 -55.853  1.00  0.00    -0.351 N 
HETATM    7  C   UNL     1     -41.729  54.566 -55.346  1.00  0.00     0.222 C 
HETATM    8  O   UNL     1     -42.675  53.792 -55.247  1.00  0.00    -0.273 OA
HETATM    9  H   UNL     1     -41.021  56.434 -55.868  1.00  0.00     0.163 HD
BRANCH   7  10
HETATM   10  C   UNL     1     -40.318  54.234 -54.885  1.00  0.00     0.142 C 
BRANCH  10  11
HETATM   11  C   UNL     1     -40.192  53.161 -53.831  1.00  0.00    -0.032 A 
HETATM   12  C   UNL     1     -39.851  51.844 -54.133  1.00  0.00     0.126 A 
HETATM   13  N   UNL     1     -39.654  50.876 -53.207  1.00  0.00    -0.248 NA
HETATM   14  C   UNL     1     -39.808  51.238 -51.920  1.00  0.00     0.125 A 
HETATM   15 CL   UNL     1     -39.551  49.980 -50.784  1.00  0.00    -0.063 Cl
HETATM   16  C   UNL     1     -40.133  52.516 -51.502  1.00  0.00     0.045 A 
HETATM   17  C   UNL     1     -40.319  53.492 -52.476  1.00  0.00     0.012 A 
ENDBRANCH  10  11
ENDBRANCH   7  10
ENDBRANCH   1   6
BRANCH   1  18
HETATM   18  C   UNL     1     -42.815  56.924 -57.826  1.00  0.00    -0.001 A 
HETATM   19  C   UNL     1     -43.247  56.211 -58.966  1.00  0.00     0.076 A 
HETATM   20  C   UNL     1     -42.987  56.716 -60.247  1.00  0.00     0.037 A 
HETATM   21  C   UNL     1     -42.301  57.920 -60.411  1.00  0.00     0.003 A 
HETATM   22  C   UNL     1     -41.872  58.632 -59.299  1.00  0.00     0.001 A 
HETATM   23  C   UNL     1     -42.127  58.140 -58.019  1.00  0.00     0.012 A 
BRANCH  19  24
HETATM   24  O   UNL     1     -43.932  55.047 -58.731  1.00  0.00    -0.355 OA
HETATM   25  C   UNL     1     -44.632  54.456 -59.818  1.00  0.00     0.210 C 
ENDBRANCH  19  24
ENDBRANCH   1  18
TORSDOF 6
ENDMDL
MODEL 2
REMARK VINA RESULT:      -7.4      3.475      5.060
REMARK  6 active torsions:
REMARK  status: ('A' for Active; 'I' for Inactive)
REMARK    1  A    between atoms: C_2  and  C_3 
REMARK    2  A    between atoms: C_3  and  N_4 
REMARK    3  A    between atoms: C_3  and  C_15 
REMARK       I    between atoms: N_4  and  C_5 
REMARK    4  A    between atoms: C_5  and  C_6 
REMARK    5  A    between atoms: C_6  and  C_7 
REMARK    6  A    between atoms: C_16  and  O_17 
ROOT
HETATM    1  C   UNL     1     -41.896  57.471 -51.380  1.00  0.00     0.128 C 
ENDROOT
BRANCH   1   2
HETATM    2  C   UNL     1     -41.185  58.878 -51.304  1.00  0.00    -0.026 C 
HETATM    3  C   UNL     1     -41.964  59.993 -52.029  1.00  0.00     0.016 C 
HETATM    4  C   UNL     1     -39.783  58.792 -51.949  1.00  0.00     0.016 C 
HETATM    5  C   UNL     1     -40.982  59.305 -49.834  1.00  0.00     0.016 C 
ENDBRANCH   1   2
BRANCH   1   6
HETATM    6  N   UNL     1     -40.977  56.361 -51.098  1.00  0.00    -0.351 N 
HETATM    7  C   UNL     1     -41.391  55.147 -50.585  1.00  0.00     0.222 C 
HETATM    8  O   UNL     1     -42.547  54.912 -50.249  1.00  0.00    -0.273 OA
HETATM    9  H   UNL     1     -40.001  56.487 -51.317  1.00  0.00     0.163 HD
BRANCH   7  10
HETATM   10  C   UNL     1     -40.253  54.148 -50.444  1.00  0.00     0.142 C 
BRANCH  10  11
HETATM   11  C   UNL     1     -40.103  53.141 -51.559  1.00  0.00    -0.032 A 
HETATM   12  C   UNL     1     -39.562  51.872 -51.360  1.00  0.00     0.126 A 
HETATM   13  N   UNL     1     -39.484  50.919 -52.318  1.00  0.00    -0.248 NA
HETATM   14  C   UNL     1     -39.964  51.248 -53.531  1.00  0.00     0.125 A 
HETATM   15 CL   UNL     1     -39.842  50.010 -54.712  1.00  0.00    -0.063 Cl
HETATM   16  C   UNL     1     -40.533  52.469 -53.841  1.00  0.00     0.045 A 
HETATM   17  C   UNL     1     -40.609  53.426 -52.833  1.00  0.00     0.012 A 
ENDBRANCH  10  11
ENDBRANCH   7  10
ENDBRANCH   1   6
BRANCH   1  18
HETATM   18  C   UNL     1     -42.643  57.190 -52.693  1.00  0.00    -0.001 A 
HETATM   19  C   UNL     1     -44.052  57.273 -52.754  1.00  0.00     0.076 A 
HETATM   20  C   UNL     1     -44.715  57.008 -53.960  1.00  0.00     0.037 A 
HETATM   21  C   UNL     1     -43.999  56.662 -55.106  1.00  0.00     0.003 A 
HETATM   22  C   UNL     1     -42.614  56.579 -55.060  1.00  0.00     0.001 A 
HETATM   23  C   UNL     1     -41.942  56.842 -53.866  1.00  0.00     0.012 A 
BRANCH  19  24
HETATM   24  O   UNL     1     -44.689  57.639 -51.598  1.00  0.00    -0.355 OA
HETATM   25  C   UNL     1     -45.384  58.879 -51.584  1.00  0.00     0.210 C 
ENDBRANCH  19  24
ENDBRANCH   1  18
TORSDOF 6
ENDMDL
MODEL 3
REMARK VINA RESULT:      -7.2      2.995      4.085
REMARK  6 active torsions:
REMARK  status: ('A' for Active; 'I' for Inactive)
REMARK    1  A    between atoms: C_2  and  C_3 
REMARK    2  A    between atoms: C_3  and  N_4 
REMARK    3  A    between atoms: C_3  and  C_15 
REMARK       I    between atoms: N_4  and  C_5 
REMARK    4  A    between atoms: C_5  and  C_6 
REMARK    5  A    between atoms: C_6  and  C_7 
REMARK    6  A    between atoms: C_16  and  O_17 
ROOT
HETATM    1  C   UNL     1     -42.848  55.849 -52.962  1.00  0.00     0.128 C 
ENDROOT
BRANCH   1   2
HETATM    2  C   UNL     1     -43.175  55.642 -51.432  1.00  0.00    -0.026 C 
HETATM    3  C   UNL     1     -44.215  56.641 -50.892  1.00  0.00     0.016 C 
HETATM    4  C   UNL     1     -41.886  55.810 -50.594  1.00  0.00     0.016 C 
HETATM    5  C   UNL     1     -43.697  54.211 -51.178  1.00  0.00     0.016 C 
ENDBRANCH   1   2
BRANCH   1   6
HETATM    6  N   UNL     1     -41.767  54.972 -53.431  1.00  0.00    -0.351 N 
HETATM    7  C   UNL     1     -41.842  54.235 -54.595  1.00  0.00     0.222 C 
HETATM    8  O   UNL     1     -42.841  54.186 -55.304  1.00  0.00    -0.273 OA
HETATM    9  H   UNL     1     -40.920  54.932 -52.884  1.00  0.00     0.163 HD
BRANCH   7  10
HETATM   10  C   UNL     1     -40.565  53.458 -54.885  1.00  0.00     0.142 C 
BRANCH  10  11
HETATM   11  C   UNL     1     -40.159  52.430 -53.857  1.00  0.00    -0.032 A 
HETATM   12  C   UNL     1     -40.011  52.734 -52.505  1.00  0.00     0.126 A 
HETATM   13  N   UNL     1     -39.725  51.822 -51.547  1.00  0.00    -0.248 NA
HETATM   14  C   UNL     1     -39.573  50.549 -51.957  1.00  0.00     0.125 A 
HETATM   15 CL   UNL     1     -39.208  49.430 -50.709  1.00  0.00    -0.063 Cl
HETATM   16  C   UNL     1     -39.708  50.130 -53.267  1.00  0.00     0.045 A 
HETATM   17  C   UNL     1     -40.013  51.087 -54.229  1.00  0.00     0.012 A 
ENDBRANCH  10  11
ENDBRANCH   7  10
ENDBRANCH   1   6
BRANCH   1  18
HETATM   18  C   UNL     1     -42.539  57.297 -53.370  1.00  0.00    -0.001 A 
HETATM   19  C   UNL     1     -43.491  58.068 -54.074  1.00  0.00     0.076 A 
HETATM   20  C   UNL     1     -43.189  59.386 -54.442  1.00  0.00     0.037 A 
HETATM   21  C   UNL     1     -41.953  59.949 -54.121  1.00  0.00     0.003 A 
HETATM   22  C   UNL     1     -41.010  59.204 -53.428  1.00  0.00     0.001 A 
HETATM   23  C   UNL     1     -41.299  57.891 -53.055  1.00  0.00     0.012 A 
BRANCH  19  24
HETATM   24  O   UNL     1     -44.690  57.459 -54.337  1.00  0.00    -0.355 OA
HETATM   25  C   UNL     1     -45.425  57.899 -55.473  1.00  0.00     0.210 C 
ENDBRANCH  19  24
ENDBRANCH   1  18
TORSDOF 6
ENDMDL
MODEL 4
REMARK VINA RESULT:      -7.1      2.768      4.035
REMARK  6 active torsions:
REMARK  status: ('A' for Active; 'I' for Inactive)
REMARK    1  A    between atoms: C_2  and  C_3 
REMARK    2  A    between atoms: C_3  and  N_4 
REMARK    3  A    between atoms: C_3  and  C_15 
REMARK       I    between atoms: N_4  and  C_5 
REMARK    4  A    between atoms: C_5  and  C_6 
REMARK    5  A    between atoms: C_6  and  C_7 
REMARK    6  A    between atoms: C_16  and  O_17 
ROOT
HETATM    1  C   UNL     1     -43.397  55.839 -53.049  1.00  0.00     0.128 C 
ENDROOT
BRANCH   1   2
HETATM    2  C   UNL     1     -43.384  56.225 -51.519  1.00  0.00    -0.026 C 
HETATM    3  C   UNL     1     -44.000  57.609 -51.236  1.00  0.00     0.016 C 
HETATM    4  C   UNL     1     -41.930  56.245 -50.995  1.00  0.00     0.016 C 
HETATM    5  C   UNL     1     -44.151  55.173 -50.687  1.00  0.00     0.016 C 
ENDBRANCH   1   2
BRANCH   1   6
HETATM    6  N   UNL     1     -42.185  55.116 -53.456  1.00  0.00    -0.351 N 
HETATM    7  C   UNL     1     -42.146  54.249 -54.530  1.00  0.00     0.222 C 
HETATM    8  O   UNL     1     -43.132  53.946 -55.193  1.00  0.00    -0.273 OA
HETATM    9  H   UNL     1     -41.336  55.286 -52.939  1.00  0.00     0.163 HD
BRANCH   7  10
HETATM   10  C   UNL     1     -40.757  53.679 -54.777  1.00  0.00     0.142 C 
BRANCH  10  11
HETATM   11  C   UNL     1     -40.283  52.624 -53.807  1.00  0.00    -0.032 A 
HETATM   12  C   UNL     1     -40.110  52.875 -52.447  1.00  0.00     0.126 A 
HETATM   13  N   UNL     1     -39.761  51.935 -51.538  1.00  0.00    -0.248 NA
HETATM   14  C   UNL     1     -39.572  50.688 -52.007  1.00  0.00     0.125 A 
HETATM   15 CL   UNL     1     -39.130  49.532 -50.819  1.00  0.00    -0.063 Cl
HETATM   16  C   UNL     1     -39.727  50.320 -53.331  1.00  0.00     0.045 A 
HETATM   17  C   UNL     1     -40.096  51.305 -54.241  1.00  0.00     0.012 A 
ENDBRANCH  10  11
ENDBRANCH   7  10
ENDBRANCH   1   6
BRANCH   1  18
HETATM   18  C   UNL     1     -43.637  57.009 -54.013  1.00  0.00    -0.001 A 
HETATM   19  C   UNL     1     -42.590  57.897 -54.348  1.00  0.00     0.076 A 
HETATM   20  C   UNL     1     -42.831  58.962 -55.226  1.00  0.00     0.037 A 
HETATM   21  C   UNL     1     -44.098  59.159 -55.776  1.00  0.00     0.003 A 
HETATM   22  C   UNL     1     -45.135  58.293 -55.458  1.00  0.00     0.001 A 
HETATM   23  C   UNL     1     -44.907  57.228 -54.586  1.00  0.00     0.012 A 
BRANCH  19  24
HETATM   24  O   UNL     1     -41.368  57.632 -53.788  1.00  0.00    -0.355 OA
HETATM   25  C   UNL     1     -40.597  58.732 -53.322  1.00  0.00     0.210 C 
ENDBRANCH  19  24
ENDBRANCH   1  18
TORSDOF 6
ENDMDL
MODEL 5
REMARK VINA RESULT:      -7.0      4.061      7.390
REMARK  6 active torsions:
REMARK  status: ('A' for Active; 'I' for Inactive)
REMARK    1  A    between atoms: C_2  and  C_3 
REMARK    2  A    between atoms: C_3  and  N_4 
REMARK    3  A    between atoms: C_3  and  C_15 
REMARK       I    between atoms: N_4  and  C_5 
REMARK    4  A    between atoms: C_5  and  C_6 
REMARK    5  A    between atoms: C_6  and  C_7 
REMARK    6  A    between atoms: C_16  and  O_17 
ROOT
HETATM    1  C   UNL     1     -42.066  54.807 -53.206  1.00  0.00     0.128 C 
ENDROOT
BRANCH   1   2
HETATM    2  C   UNL     1     -41.625  54.091 -54.541  1.00  0.00    -0.026 C 
HETATM    3  C   UNL     1     -40.273  54.593 -55.082  1.00  0.00     0.016 C 
HETATM    4  C   UNL     1     -42.686  54.332 -55.640  1.00  0.00     0.016 C 
HETATM    5  C   UNL     1     -41.528  52.564 -54.332  1.00  0.00     0.016 C 
ENDBRANCH   1   2
BRANCH   1   6
HETATM    6  N   UNL     1     -41.845  56.258 -53.245  1.00  0.00    -0.351 N 
HETATM    7  C   UNL     1     -42.869  57.178 -53.351  1.00  0.00     0.222 C 
HETATM    8  O   UNL     1     -44.046  56.868 -53.497  1.00  0.00    -0.273 OA
HETATM    9  H   UNL     1     -40.897  56.594 -53.163  1.00  0.00     0.163 HD
BRANCH   7  10
HETATM   10  C   UNL     1     -42.376  58.617 -53.307  1.00  0.00     0.142 C 
BRANCH  10  11
HETATM   11  C   UNL     1     -41.250  58.911 -52.346  1.00  0.00    -0.032 A 
HETATM   12  C   UNL     1     -39.921  59.015 -52.752  1.00  0.00     0.126 A 
HETATM   13  N   UNL     1     -38.898  59.353 -51.932  1.00  0.00    -0.248 NA
HETATM   14  C   UNL     1     -39.216  59.595 -50.646  1.00  0.00     0.125 A 
HETATM   15 CL   UNL     1     -37.889  60.017 -49.645  1.00  0.00    -0.063 Cl
HETATM   16  C   UNL     1     -40.499  59.534 -50.135  1.00  0.00     0.045 A 
HETATM   17  C   UNL     1     -41.531  59.194 -51.003  1.00  0.00     0.012 A 
ENDBRANCH  10  11
ENDBRANCH   7  10
ENDBRANCH   1   6
BRANCH   1  18
HETATM   18  C   UNL     1     -41.443  54.234 -51.925  1.00  0.00    -0.001 A 
HETATM   19  C   UNL     1     -42.010  54.508 -50.660  1.00  0.00     0.076 A 
HETATM   20  C   UNL     1     -41.424  53.979 -49.502  1.00  0.00     0.037 A 
HETATM   21  C   UNL     1     -40.282  53.182 -49.582  1.00  0.00     0.003 A 
HETATM   22  C   UNL     1     -39.715  52.903 -50.819  1.00  0.00     0.001 A 
HETATM   23  C   UNL     1     -40.290  53.423 -51.979  1.00  0.00     0.012 A 
BRANCH  19  24
HETATM   24  O   UNL     1     -43.143  55.279 -50.657  1.00  0.00    -0.355 OA
HETATM   25  C   UNL     1     -44.366  54.665 -50.271  1.00  0.00     0.210 C 
ENDBRANCH  19  24
ENDBRANCH   1  18
TORSDOF 6
ENDMDL
MODEL 6
REMARK VINA RESULT:      -6.7      3.354      5.909
REMARK  6 active torsions:
REMARK  status: ('A' for Active; 'I' for Inactive)
REMARK    1  A    between atoms: C_2  and  C_3 
REMARK    2  A    between atoms: C_3  and  N_4 
REMARK    3  A    between atoms: C_3  and  C_15 
REMARK       I    between atoms: N_4  and  C_5 
REMARK    4  A    between atoms: C_5  and  C_6 
REMARK    5  A    between atoms: C_6  and  C_7 
REMARK    6  A    between atoms: C_16  and  O_17 
ROOT
HETATM    1  C   UNL     1     -43.049  57.954 -52.830  1.00  0.00     0.128 C 
ENDROOT
BRANCH   1   2
HETATM    2  C   UNL     1     -43.718  57.953 -54.259  1.00  0.00    -0.026 C 
HETATM    3  C   UNL     1     -44.756  56.830 -54.444  1.00  0.00     0.016 C 
HETATM    4  C   UNL     1     -42.633  57.771 -55.345  1.00  0.00     0.016 C 
HETATM    5  C   UNL     1     -44.411  59.306 -54.534  1.00  0.00     0.016 C 
ENDBRANCH   1   2
BRANCH   1   6
HETATM    6  N   UNL     1     -42.858  56.599 -52.297  1.00  0.00    -0.351 N 
HETATM    7  C   UNL     1     -41.637  55.955 -52.284  1.00  0.00     0.222 C 
HETATM    8  O   UNL     1     -40.619  56.423 -52.783  1.00  0.00    -0.273 OA
HETATM    9  H   UNL     1     -43.658  56.132 -51.896  1.00  0.00     0.163 HD
BRANCH   7  10
HETATM   10  C   UNL     1     -41.698  54.587 -51.622  1.00  0.00     0.142 C 
BRANCH  10  11
HETATM   11  C   UNL     1     -41.039  53.452 -52.366  1.00  0.00    -0.032 A 
HETATM   12  C   UNL     1     -40.125  52.588 -51.766  1.00  0.00     0.126 A 
HETATM   13  N   UNL     1     -39.574  51.515 -52.381  1.00  0.00    -0.248 NA
HETATM   14  C   UNL     1     -39.950  51.296 -53.655  1.00  0.00     0.125 A 
HETATM   15 CL   UNL     1     -39.225  49.928 -54.393  1.00  0.00    -0.063 Cl
HETATM   16  C   UNL     1     -40.856  52.078 -54.347  1.00  0.00     0.045 A 
HETATM   17  C   UNL     1     -41.414  53.168 -53.686  1.00  0.00     0.012 A 
ENDBRANCH  10  11
ENDBRANCH   7  10
ENDBRANCH   1   6
BRANCH   1  18
HETATM   18  C   UNL     1     -43.764  58.817 -51.779  1.00  0.00    -0.001 A 
HETATM   19  C   UNL     1     -43.098  59.897 -51.157  1.00  0.00     0.076 A 
HETATM   20  C   UNL     1     -43.766  60.669 -50.197  1.00  0.00     0.037 A 
HETATM   21  C   UNL     1     -45.085  60.383 -49.844  1.00  0.00     0.003 A 
HETATM   22  C   UNL     1     -45.751  59.326 -50.448  1.00  0.00     0.001 A 
HETATM   23  C   UNL     1     -45.098  58.551 -51.407  1.00  0.00     0.012 A 
BRANCH  19  24
HETATM   24  O   UNL     1     -41.812  60.134 -51.566  1.00  0.00    -0.355 OA
HETATM   25  C   UNL     1     -40.754  59.664 -50.741  1.00  0.00     0.210 C 
ENDBRANCH  19  24
ENDBRANCH   1  18
TORSDOF 6
ENDMDL
MODEL 7
REMARK VINA RESULT:      -6.6     14.667     17.476
REMARK  6 active torsions:
REMARK  status: ('A' for Active; 'I' for Inactive)
REMARK    1  A    between atoms: C_2  and  C_3 
REMARK    2  A    between atoms: C_3  and  N_4 
REMARK    3  A    between atoms: C_3  and  C_15 
REMARK       I    between atoms: N_4  and  C_5 
REMARK    4  A    between atoms: C_5  and  C_6 
REMARK    5  A    between atoms: C_6  and  C_7 
REMARK    6  A    between atoms: C_16  and  O_17 
ROOT
HETATM    1  C   UNL     1     -34.612  41.011 -53.580  1.00  0.00     0.128 C 
ENDROOT
BRANCH   1   2
HETATM    2  C   UNL     1     -34.914  40.653 -52.073  1.00  0.00    -0.026 C 
HETATM    3  C   UNL     1     -34.146  39.413 -51.577  1.00  0.00     0.016 C 
HETATM    4  C   UNL     1     -36.423  40.371 -51.894  1.00  0.00     0.016 C 
HETATM    5  C   UNL     1     -34.563  41.842 -51.152  1.00  0.00     0.016 C 
ENDBRANCH   1   2
BRANCH   1   6
HETATM    6  N   UNL     1     -35.835  41.199 -54.370  1.00  0.00    -0.351 N 
HETATM    7  C   UNL     1     -35.946  42.129 -55.384  1.00  0.00     0.222 C 
HETATM    8  O   UNL     1     -35.063  42.931 -55.668  1.00  0.00    -0.273 OA
HETATM    9  H   UNL     1     -36.621  40.598 -54.175  1.00  0.00     0.163 HD
BRANCH   7  10
HETATM   10  C   UNL     1     -37.295  42.079 -56.086  1.00  0.00     0.142 C 
BRANCH  10  11
HETATM   11  C   UNL     1     -37.317  41.441 -57.454  1.00  0.00    -0.032 A 
HETATM   12  C   UNL     1     -37.669  40.108 -57.658  1.00  0.00     0.126 A 
HETATM   13  N   UNL     1     -37.773  39.526 -58.875  1.00  0.00    -0.248 NA
HETATM   14  C   UNL     1     -37.509  40.308 -59.938  1.00  0.00     0.125 A 
HETATM   15 CL   UNL     1     -37.652  39.528 -61.459  1.00  0.00    -0.063 Cl
HETATM   16  C   UNL     1     -37.163  41.644 -59.857  1.00  0.00     0.045 A 
HETATM   17  C   UNL     1     -37.073  42.218 -58.593  1.00  0.00     0.012 A 
ENDBRANCH  10  11
ENDBRANCH   7  10
ENDBRANCH   1   6
BRANCH   1  18
HETATM   18  C   UNL     1     -33.684  40.028 -54.308  1.00  0.00    -0.001 A 
HETATM   19  C   UNL     1     -34.194  38.838 -54.876  1.00  0.00     0.076 A 
HETATM   20  C   UNL     1     -33.330  37.951 -55.533  1.00  0.00     0.037 A 
HETATM   21  C   UNL     1     -31.967  38.228 -55.633  1.00  0.00     0.003 A 
HETATM   22  C   UNL     1     -31.453  39.394 -55.081  1.00  0.00     0.001 A 
HETATM   23  C   UNL     1     -32.302  40.286 -54.427  1.00  0.00     0.012 A 
BRANCH  19  24
HETATM   24  O   UNL     1     -35.545  38.641 -54.758  1.00  0.00    -0.355 OA
HETATM   25  C   UNL     1     -36.137  37.609 -55.537  1.00  0.00     0.210 C 
ENDBRANCH  19  24
ENDBRANCH   1  18
TORSDOF 6
ENDMDL
MODEL 8
REMARK VINA RESULT:      -6.5      3.710      6.902
REMARK  6 active torsions:
REMARK  status: ('A' for Active; 'I' for Inactive)
REMARK    1  A    between atoms: C_2  and  C_3 
REMARK    2  A    between atoms: C_3  and  N_4 
REMARK    3  A    between atoms: C_3  and  C_15 
REMARK       I    between atoms: N_4  and  C_5 
REMARK    4  A    between atoms: C_5  and  C_6 
REMARK    5  A    between atoms: C_6  and  C_7 
REMARK    6  A    between atoms: C_16  and  O_17 
ROOT
HETATM    1  C   UNL     1     -41.345  55.338 -51.943  1.00  0.00     0.128 C 
ENDROOT
BRANCH   1   2
HETATM    2  C   UNL     1     -42.615  55.229 -51.014  1.00  0.00    -0.026 C 
HETATM    3  C   UNL     1     -43.546  56.453 -51.111  1.00  0.00     0.016 C 
HETATM    4  C   UNL     1     -42.175  55.094 -49.538  1.00  0.00     0.016 C 
HETATM    5  C   UNL     1     -43.434  53.966 -51.360  1.00  0.00     0.016 C 
ENDBRANCH   1   2
BRANCH   1   6
HETATM    6  N   UNL     1     -41.435  56.455 -52.893  1.00  0.00    -0.351 N 
HETATM    7  C   UNL     1     -40.974  57.726 -52.613  1.00  0.00     0.222 C 
HETATM    8  O   UNL     1     -40.517  58.057 -51.524  1.00  0.00    -0.273 OA
HETATM    9  H   UNL     1     -41.830  56.271 -53.802  1.00  0.00     0.163 HD
BRANCH   7  10
HETATM   10  C   UNL     1     -41.130  58.681 -53.786  1.00  0.00     0.142 C 
BRANCH  10  11
HETATM   11  C   UNL     1     -42.440  58.615 -54.535  1.00  0.00    -0.032 A 
HETATM   12  C   UNL     1     -42.530  58.193 -55.860  1.00  0.00     0.126 A 
HETATM   13  N   UNL     1     -43.694  58.048 -56.536  1.00  0.00    -0.248 NA
HETATM   14  C   UNL     1     -44.820  58.343 -55.860  1.00  0.00     0.125 A 
HETATM   15 CL   UNL     1     -46.268  58.147 -56.757  1.00  0.00    -0.063 Cl
HETATM   16  C   UNL     1     -44.853  58.759 -54.542  1.00  0.00     0.045 A 
HETATM   17  C   UNL     1     -43.642  58.889 -53.869  1.00  0.00     0.012 A 
ENDBRANCH  10  11
ENDBRANCH   7  10
ENDBRANCH   1   6
BRANCH   1  18
HETATM   18  C   UNL     1     -40.984  54.053 -52.704  1.00  0.00    -0.001 A 
HETATM   19  C   UNL     1     -41.528  53.794 -53.982  1.00  0.00     0.076 A 
HETATM   20  C   UNL     1     -41.191  52.614 -54.659  1.00  0.00     0.037 A 
HETATM   21  C   UNL     1     -40.322  51.687 -54.083  1.00  0.00     0.003 A 
HETATM   22  C   UNL     1     -39.778  51.930 -52.829  1.00  0.00     0.001 A 
HETATM   23  C   UNL     1     -40.105  53.102 -52.146  1.00  0.00     0.012 A 
BRANCH  19  24
HETATM   24  O   UNL     1     -42.358  54.756 -54.495  1.00  0.00    -0.355 OA
HETATM   25  C   UNL     1     -42.944  54.519 -55.769  1.00  0.00     0.210 C 
ENDBRANCH  19  24
ENDBRANCH   1  18
TORSDOF 6
ENDMDL
MODEL 9
REMARK VINA RESULT:      -6.5      2.184      4.090
REMARK  6 active torsions:
REMARK  status: ('A' for Active; 'I' for Inactive)
REMARK    1  A    between atoms: C_2  and  C_3 
REMARK    2  A    between atoms: C_3  and  N_4 
REMARK    3  A    between atoms: C_3  and  C_15 
REMARK       I    between atoms: N_4  and  C_5 
REMARK    4  A    between atoms: C_5  and  C_6 
REMARK    5  A    between atoms: C_6  and  C_7 
REMARK    6  A    between atoms: C_16  and  O_17 
ROOT
HETATM    1  C   UNL     1     -43.465  57.268 -58.079  1.00  0.00     0.128 C 
ENDROOT
BRANCH   1   2
HETATM    2  C   UNL     1     -43.322  56.908 -59.608  1.00  0.00    -0.026 C 
HETATM    3  C   UNL     1     -44.136  57.834 -60.531  1.00  0.00     0.016 C 
HETATM    4  C   UNL     1     -43.806  55.460 -59.853  1.00  0.00     0.016 C 
HETATM    5  C   UNL     1     -41.841  56.968 -60.043  1.00  0.00     0.016 C 
ENDBRANCH   1   2
BRANCH   1   6
HETATM    6  N   UNL     1     -43.629  56.079 -57.233  1.00  0.00    -0.351 N 
HETATM    7  C   UNL     1     -42.842  55.822 -56.128  1.00  0.00     0.222 C 
HETATM    8  O   UNL     1     -41.890  56.520 -55.797  1.00  0.00    -0.273 OA
HETATM    9  H   UNL     1     -44.372  55.436 -57.460  1.00  0.00     0.163 HD
BRANCH   7  10
HETATM   10  C   UNL     1     -43.257  54.558 -55.390  1.00  0.00     0.142 C 
BRANCH  10  11
HETATM   11  C   UNL     1     -42.301  54.053 -54.336  1.00  0.00    -0.032 A 
HETATM   12  C   UNL     1     -42.550  54.181 -52.971  1.00  0.00     0.126 A 
HETATM   13  N   UNL     1     -41.754  53.672 -52.001  1.00  0.00    -0.248 NA
HETATM   14  C   UNL     1     -40.657  53.009 -52.412  1.00  0.00     0.125 A 
HETATM   15 CL   UNL     1     -39.679  52.385 -51.149  1.00  0.00    -0.063 Cl
HETATM   16  C   UNL     1     -40.317  52.809 -53.737  1.00  0.00     0.045 A 
HETATM   17  C   UNL     1     -41.159  53.334 -54.712  1.00  0.00     0.012 A 
ENDBRANCH  10  11
ENDBRANCH   7  10
ENDBRANCH   1   6
BRANCH   1  18
HETATM   18  C   UNL     1     -44.574  58.280 -57.751  1.00  0.00    -0.001 A 
HETATM   19  C   UNL     1     -44.256  59.605 -57.379  1.00  0.00     0.076 A 
HETATM   20  C   UNL     1     -45.281  60.512 -57.080  1.00  0.00     0.037 A 
HETATM   21  C   UNL     1     -46.619  60.121 -57.143  1.00  0.00     0.003 A 
HETATM   22  C   UNL     1     -46.946  58.822 -57.509  1.00  0.00     0.001 A 
HETATM   23  C   UNL     1     -45.934  57.910 -57.811  1.00  0.00     0.012 A 
BRANCH  19  24
HETATM   24  O   UNL     1     -42.924  59.926 -57.358  1.00  0.00    -0.355 OA
HETATM   25  C   UNL     1     -42.327  60.207 -56.099  1.00  0.00     0.210 C 
ENDBRANCH  19  24
ENDBRANCH   1  18
TORSDOF 6
ENDMDL
MODEL 10
REMARK VINA RESULT:      -6.4      2.617      4.241
REMARK  6 active torsions:
REMARK  status: ('A' for Active; 'I' for Inactive)
REMARK    1  A    between atoms: C_2  and  C_3 
REMARK    2  A    between atoms: C_3  and  N_4 
REMARK    3  A    between atoms: C_3  and  C_15 
REMARK       I    between atoms: N_4  and  C_5 
REMARK    4  A    between atoms: C_5  and  C_6 
REMARK    5  A    between atoms: C_6  and  C_7 
REMARK    6  A    between atoms: C_16  and  O_17 
ROOT
HETATM    1  C   UNL     1     -43.842  58.359 -58.387  1.00  0.00     0.128 C 
ENDROOT
BRANCH   1   2
HETATM    2  C   UNL     1     -42.733  59.177 -59.154  1.00  0.00    -0.026 C 
HETATM    3  C   UNL     1     -42.042  58.369 -60.269  1.00  0.00     0.016 C 
HETATM    4  C   UNL     1     -41.639  59.635 -58.163  1.00  0.00     0.016 C 
HETATM    5  C   UNL     1     -43.337  60.453 -59.782  1.00  0.00     0.016 C 
ENDBRANCH   1   2
BRANCH   1   6
HETATM    6  N   UNL     1     -43.489  58.111 -56.983  1.00  0.00    -0.351 N 
HETATM    7  C   UNL     1     -44.426  57.985 -55.977  1.00  0.00     0.222 C 
HETATM    8  O   UNL     1     -45.629  58.144 -56.148  1.00  0.00    -0.273 OA
HETATM    9  H   UNL     1     -42.513  58.000 -56.754  1.00  0.00     0.163 HD
BRANCH   7  10
HETATM   10  C   UNL     1     -43.802  57.670 -54.626  1.00  0.00     0.142 C 
BRANCH  10  11
HETATM   11  C   UNL     1     -42.891  56.467 -54.572  1.00  0.00    -0.032 A 
HETATM   12  C   UNL     1     -43.331  55.176 -54.861  1.00  0.00     0.126 A 
HETATM   13  N   UNL     1     -42.526  54.089 -54.898  1.00  0.00    -0.248 NA
HETATM   14  C   UNL     1     -41.223  54.297 -54.631  1.00  0.00     0.125 A 
HETATM   15 CL   UNL     1     -40.243  52.891 -54.688  1.00  0.00    -0.063 Cl
HETATM   16  C   UNL     1     -40.673  55.533 -54.344  1.00  0.00     0.045 A 
HETATM   17  C   UNL     1     -41.523  56.634 -54.323  1.00  0.00     0.012 A 
ENDBRANCH  10  11
ENDBRANCH   7  10
ENDBRANCH   1   6
BRANCH   1  18
HETATM   18  C   UNL     1     -44.247  57.034 -59.050  1.00  0.00    -0.001 A 
HETATM   19  C   UNL     1     -45.299  56.989 -59.992  1.00  0.00     0.076 A 
HETATM   20  C   UNL     1     -45.657  55.769 -60.582  1.00  0.00     0.037 A 
HETATM   21  C   UNL     1     -44.985  54.592 -60.249  1.00  0.00     0.003 A 
HETATM   22  C   UNL     1     -43.948  54.623 -59.326  1.00  0.00     0.001 A 
HETATM   23  C   UNL     1     -43.582  55.831 -58.733  1.00  0.00     0.012 A 
BRANCH  19  24
HETATM   24  O   UNL     1     -45.901  58.184 -60.287  1.00  0.00    -0.355 OA
HETATM   25  C   UNL     1     -47.266  58.162 -60.681  1.00  0.00     0.210 C 
ENDBRANCH  19  24
ENDBRANCH   1  18
TORSDOF 6
ENDMDL
