MODEL 1
REMARK VINA RESULT:      -8.0      0.000      0.000
REMARK  3 active torsions:
REMARK  status: ('A' for Active; 'I' for Inactive)
REMARK    1  A    between atoms: C_3  and  N_4 
REMARK    2  A    between atoms: C_14  and  N_15 
REMARK       I    between atoms: N_15  and  C_16 
REMARK    3  A    between atoms: C_16  and  C_17 
ROOT
HETATM    1  N   UNL     1     -42.033  54.845 -52.801  1.00  0.00    -0.237 N 
HETATM    2  N   UNL     1     -43.004  54.640 -53.734  1.00  0.00    -0.179 NA
HETATM    3  C   UNL     1     -43.547  55.834 -53.954  1.00  0.00     0.150 A 
HETATM    4  C   UNL     1     -42.953  56.838 -53.182  1.00  0.00     0.008 A 
HETATM    5  C   UNL     1     -41.961  56.192 -52.464  1.00  0.00     0.047 A 
HETATM    6  C   UNL     1     -41.166  56.826 -51.365  1.00  0.00     0.069 C 
HETATM    7  C   UNL     1     -41.219  58.383 -51.454  1.00  0.00    -0.040 C 
HETATM    8  C   UNL     1     -40.212  58.885 -52.511  1.00  0.00     0.015 C 
HETATM    9  C   UNL     1     -40.794  58.966 -50.092  1.00  0.00     0.015 C 
HETATM   10  C   UNL     1     -42.665  58.880 -51.773  1.00  0.00     0.039 C 
HETATM   11  C   UNL     1     -43.311  58.274 -53.041  1.00  0.00     0.122 C 
ENDROOT
BRANCH  11  12
HETATM   12  N   UNL     1     -42.918  58.959 -54.256  1.00  0.00    -0.347 N 
HETATM   13  C   UNL     1     -43.856  59.364 -55.169  1.00  0.00     0.270 C 
HETATM   14  O   UNL     1     -45.063  59.196 -55.024  1.00  0.00    -0.266 OA
HETATM   15  H   UNL     1     -41.935  59.138 -54.406  1.00  0.00     0.163 HD
BRANCH  13  16
HETATM   16  C   UNL     1     -43.337  60.029 -56.392  1.00  0.00     0.120 A 
HETATM   17  N   UNL     1     -42.007  60.383 -56.483  1.00  0.00    -0.303 N 
HETATM   18  C   UNL     1     -41.770  61.000 -57.711  1.00  0.00     0.324 A 
HETATM   19  H   UNL     1     -41.319  60.223 -55.761  1.00  0.00     0.171 HD
HETATM   20  O   UNL     1     -40.723  61.447 -58.136  1.00  0.00    -0.247 OA
HETATM   21  N   UNL     1     -43.018  60.994 -58.350  1.00  0.00    -0.316 N 
HETATM   22  C   UNL     1     -43.947  60.402 -57.529  1.00  0.00     0.128 A 
HETATM   23  H   UNL     1     -43.167  61.384 -59.269  1.00  0.00     0.170 HD
ENDBRANCH  13  16
ENDBRANCH  11  12
BRANCH   1  24
HETATM   24  C   UNL     1     -41.264  53.746 -52.318  1.00  0.00     0.064 A 
HETATM   25  C   UNL     1     -40.417  53.003 -53.175  1.00  0.00    -0.033 A 
HETATM   26  C   UNL     1     -40.285  53.262 -54.654  1.00  0.00     0.050 C 
HETATM   27  C   UNL     1     -39.667  51.942 -52.633  1.00  0.00     0.009 A 
HETATM   28  C   UNL     1     -39.755  51.613 -51.281  1.00  0.00     0.001 A 
HETATM   29  C   UNL     1     -40.578  52.352 -50.441  1.00  0.00     0.002 A 
HETATM   30  C   UNL     1     -41.324  53.416 -50.954  1.00  0.00     0.032 A 
ENDBRANCH   1  24
TORSDOF 3
ENDMDL
MODEL 2
REMARK VINA RESULT:      -8.0      4.015      6.393
REMARK  3 active torsions:
REMARK  status: ('A' for Active; 'I' for Inactive)
REMARK    1  A    between atoms: C_3  and  N_4 
REMARK    2  A    between atoms: C_14  and  N_15 
REMARK       I    between atoms: N_15  and  C_16 
REMARK    3  A    between atoms: C_16  and  C_17 
ROOT
HETATM    1  N   UNL     1     -41.523  57.000 -52.106  1.00  0.00    -0.237 N 
HETATM    2  N   UNL     1     -40.740  57.225 -51.014  1.00  0.00    -0.179 NA
HETATM    3  C   UNL     1     -41.112  58.412 -50.545  1.00  0.00     0.150 A 
HETATM    4  C   UNL     1     -42.135  58.987 -51.305  1.00  0.00     0.008 A 
HETATM    5  C   UNL     1     -42.410  58.055 -52.292  1.00  0.00     0.047 A 
HETATM    6  C   UNL     1     -43.318  58.300 -53.456  1.00  0.00     0.069 C 
HETATM    7  C   UNL     1     -44.285  59.494 -53.177  1.00  0.00    -0.040 C 
HETATM    8  C   UNL     1     -45.473  59.020 -52.314  1.00  0.00     0.015 C 
HETATM    9  C   UNL     1     -44.854  59.988 -54.523  1.00  0.00     0.015 C 
HETATM   10  C   UNL     1     -43.532  60.681 -52.497  1.00  0.00     0.039 C 
HETATM   11  C   UNL     1     -42.770  60.327 -51.197  1.00  0.00     0.122 C 
ENDROOT
BRANCH  11  12
HETATM   12  N   UNL     1     -43.623  60.330 -50.026  1.00  0.00    -0.347 N 
HETATM   13  C   UNL     1     -43.922  61.500 -49.378  1.00  0.00     0.270 C 
HETATM   14  O   UNL     1     -43.515  62.601 -49.738  1.00  0.00    -0.266 OA
HETATM   15  H   UNL     1     -43.999  59.448 -49.707  1.00  0.00     0.163 HD
BRANCH  13  16
HETATM   16  C   UNL     1     -44.780  61.381 -48.172  1.00  0.00     0.120 A 
HETATM   17  N   UNL     1     -45.478  60.217 -47.923  1.00  0.00    -0.303 N 
HETATM   18  C   UNL     1     -46.217  60.356 -46.748  1.00  0.00     0.324 A 
HETATM   19  H   UNL     1     -45.458  59.398 -48.513  1.00  0.00     0.171 HD
HETATM   20  O   UNL     1     -46.950  59.543 -46.223  1.00  0.00    -0.247 OA
HETATM   21  N   UNL     1     -45.924  61.654 -46.305  1.00  0.00    -0.316 N 
HETATM   22  C   UNL     1     -45.055  62.251 -47.185  1.00  0.00     0.128 A 
HETATM   23  H   UNL     1     -46.321  62.050 -45.466  1.00  0.00     0.170 HD
ENDBRANCH  13  16
ENDBRANCH  11  12
BRANCH   1  24
HETATM   24  C   UNL     1     -41.359  55.806 -52.869  1.00  0.00     0.064 A 
HETATM   25  C   UNL     1     -41.968  54.591 -52.478  1.00  0.00    -0.033 A 
HETATM   26  C   UNL     1     -42.789  54.428 -51.224  1.00  0.00     0.050 C 
HETATM   27  C   UNL     1     -41.786  53.451 -53.285  1.00  0.00     0.009 A 
HETATM   28  C   UNL     1     -41.014  53.505 -54.445  1.00  0.00     0.001 A 
HETATM   29  C   UNL     1     -40.427  54.704 -54.831  1.00  0.00     0.002 A 
HETATM   30  C   UNL     1     -40.603  55.850 -54.052  1.00  0.00     0.032 A 
ENDBRANCH   1  24
TORSDOF 3
ENDMDL
MODEL 3
REMARK VINA RESULT:      -7.7      3.516      6.505
REMARK  3 active torsions:
REMARK  status: ('A' for Active; 'I' for Inactive)
REMARK    1  A    between atoms: C_3  and  N_4 
REMARK    2  A    between atoms: C_14  and  N_15 
REMARK       I    between atoms: N_15  and  C_16 
REMARK    3  A    between atoms: C_16  and  C_17 
ROOT
HETATM    1  N   UNL     1     -43.848  57.454 -56.441  1.00  0.00    -0.237 N 
HETATM    2  N   UNL     1     -45.050  58.085 -56.326  1.00  0.00    -0.179 NA
HETATM    3  C   UNL     1     -45.337  58.073 -55.028  1.00  0.00     0.150 A 
HETATM    4  C   UNL     1     -44.344  57.445 -54.270  1.00  0.00     0.008 A 
HETATM    5  C   UNL     1     -43.378  57.074 -55.189  1.00  0.00     0.047 A 
HETATM    6  C   UNL     1     -42.197  56.211 -54.872  1.00  0.00     0.069 C 
HETATM    7  C   UNL     1     -41.906  56.192 -53.338  1.00  0.00    -0.040 C 
HETATM    8  C   UNL     1     -41.123  57.459 -52.934  1.00  0.00     0.015 C 
HETATM    9  C   UNL     1     -41.015  54.973 -53.023  1.00  0.00     0.015 C 
HETATM   10  C   UNL     1     -43.227  56.060 -52.516  1.00  0.00     0.039 C 
HETATM   11  C   UNL     1     -44.307  57.127 -52.818  1.00  0.00     0.122 C 
ENDROOT
BRANCH  11  12
HETATM   12  N   UNL     1     -44.097  58.363 -52.090  1.00  0.00    -0.347 N 
HETATM   13  C   UNL     1     -44.920  58.714 -51.052  1.00  0.00     0.270 C 
HETATM   14  O   UNL     1     -45.858  58.025 -50.664  1.00  0.00    -0.266 OA
HETATM   15  H   UNL     1     -43.322  58.950 -52.362  1.00  0.00     0.163 HD
BRANCH  13  16
HETATM   16  C   UNL     1     -44.630  60.016 -50.398  1.00  0.00     0.120 A 
HETATM   17  N   UNL     1     -45.106  60.282 -49.131  1.00  0.00    -0.303 N 
HETATM   18  C   UNL     1     -44.717  61.565 -48.745  1.00  0.00     0.324 A 
HETATM   19  H   UNL     1     -45.659  59.644 -48.579  1.00  0.00     0.171 HD
HETATM   20  O   UNL     1     -44.957  62.139 -47.702  1.00  0.00    -0.247 OA
HETATM   21  N   UNL     1     -43.983  62.049 -49.837  1.00  0.00    -0.316 N 
HETATM   22  C   UNL     1     -43.948  61.093 -50.823  1.00  0.00     0.128 A 
HETATM   23  H   UNL     1     -43.569  62.969 -49.856  1.00  0.00     0.170 HD
ENDBRANCH  13  16
ENDBRANCH  11  12
BRANCH   1  24
HETATM   24  C   UNL     1     -43.258  57.271 -57.727  1.00  0.00     0.064 A 
HETATM   25  C   UNL     1     -42.377  58.232 -58.278  1.00  0.00    -0.033 A 
HETATM   26  C   UNL     1     -42.023  59.531 -57.602  1.00  0.00     0.050 C 
HETATM   27  C   UNL     1     -41.810  57.983 -59.543  1.00  0.00     0.009 A 
HETATM   28  C   UNL     1     -42.110  56.821 -60.253  1.00  0.00     0.001 A 
HETATM   29  C   UNL     1     -42.966  55.876 -59.702  1.00  0.00     0.002 A 
HETATM   30  C   UNL     1     -43.532  56.095 -58.444  1.00  0.00     0.032 A 
ENDBRANCH   1  24
TORSDOF 3
ENDMDL
MODEL 4
REMARK VINA RESULT:      -7.5     17.008     18.692
REMARK  3 active torsions:
REMARK  status: ('A' for Active; 'I' for Inactive)
REMARK    1  A    between atoms: C_3  and  N_4 
REMARK    2  A    between atoms: C_14  and  N_15 
REMARK       I    between atoms: N_15  and  C_16 
REMARK    3  A    between atoms: C_16  and  C_17 
ROOT
HETATM    1  N   UNL     1     -35.998  40.258 -53.456  1.00  0.00    -0.237 N 
HETATM    2  N   UNL     1     -37.224  40.789 -53.721  1.00  0.00    -0.179 NA
HETATM    3  C   UNL     1     -37.173  41.192 -54.987  1.00  0.00     0.150 A 
HETATM    4  C   UNL     1     -35.931  40.937 -55.576  1.00  0.00     0.008 A 
HETATM    5  C   UNL     1     -35.192  40.311 -54.587  1.00  0.00     0.047 A 
HETATM    6  C   UNL     1     -33.731  40.002 -54.693  1.00  0.00     0.069 C 
HETATM    7  C   UNL     1     -33.259  40.001 -56.181  1.00  0.00    -0.040 C 
HETATM    8  C   UNL     1     -33.620  38.657 -56.848  1.00  0.00     0.015 C 
HETATM    9  C   UNL     1     -31.723  40.137 -56.208  1.00  0.00     0.015 C 
HETATM   10  C   UNL     1     -33.873  41.203 -56.967  1.00  0.00     0.039 C 
HETATM   11  C   UNL     1     -35.416  41.308 -56.921  1.00  0.00     0.122 C 
ENDROOT
BRANCH  11  12
HETATM   12  N   UNL     1     -36.067  40.464 -57.903  1.00  0.00    -0.347 N 
HETATM   13  C   UNL     1     -36.862  41.008 -58.878  1.00  0.00     0.270 C 
HETATM   14  O   UNL     1     -37.064  42.213 -58.999  1.00  0.00    -0.266 OA
HETATM   15  H   UNL     1     -35.911  39.468 -57.854  1.00  0.00     0.163 HD
BRANCH  13  16
HETATM   16  C   UNL     1     -37.504  40.047 -59.811  1.00  0.00     0.120 A 
HETATM   17  N   UNL     1     -37.095  39.973 -61.127  1.00  0.00    -0.303 N 
HETATM   18  C   UNL     1     -37.854  39.014 -61.799  1.00  0.00     0.324 A 
HETATM   19  H   UNL     1     -36.365  40.537 -61.534  1.00  0.00     0.171 HD
HETATM   20  O   UNL     1     -37.779  38.681 -62.965  1.00  0.00    -0.247 OA
HETATM   21  N   UNL     1     -38.729  38.516 -60.823  1.00  0.00    -0.316 N 
HETATM   22  C   UNL     1     -38.497  39.160 -59.632  1.00  0.00     0.128 A 
HETATM   23  H   UNL     1     -39.415  37.801 -61.014  1.00  0.00     0.170 HD
ENDBRANCH  13  16
ENDBRANCH  11  12
BRANCH   1  24
HETATM   24  C   UNL     1     -35.706  39.749 -52.156  1.00  0.00     0.064 A 
HETATM   25  C   UNL     1     -35.074  40.549 -51.174  1.00  0.00    -0.033 A 
HETATM   26  C   UNL     1     -34.614  41.964 -51.414  1.00  0.00     0.050 C 
HETATM   27  C   UNL     1     -34.833  39.995 -49.902  1.00  0.00     0.009 A 
HETATM   28  C   UNL     1     -35.197  38.682 -49.606  1.00  0.00     0.001 A 
HETATM   29  C   UNL     1     -35.827  37.905 -50.569  1.00  0.00     0.002 A 
HETATM   30  C   UNL     1     -36.087  38.436 -51.834  1.00  0.00     0.032 A 
ENDBRANCH   1  24
TORSDOF 3
ENDMDL
MODEL 5
REMARK VINA RESULT:      -7.5      2.140      2.560
REMARK  3 active torsions:
REMARK  status: ('A' for Active; 'I' for Inactive)
REMARK    1  A    between atoms: C_3  and  N_4 
REMARK    2  A    between atoms: C_14  and  N_15 
REMARK       I    between atoms: N_15  and  C_16 
REMARK    3  A    between atoms: C_16  and  C_17 
ROOT
HETATM    1  N   UNL     1     -42.276  54.578 -53.673  1.00  0.00    -0.237 N 
HETATM    2  N   UNL     1     -42.708  53.832 -54.728  1.00  0.00    -0.179 NA
HETATM    3  C   UNL     1     -43.315  54.688 -55.546  1.00  0.00     0.150 A 
HETATM    4  C   UNL     1     -43.294  55.997 -55.055  1.00  0.00     0.008 A 
HETATM    5  C   UNL     1     -42.599  55.917 -53.861  1.00  0.00     0.047 A 
HETATM    6  C   UNL     1     -42.470  57.042 -52.881  1.00  0.00     0.069 C 
HETATM    7  C   UNL     1     -42.762  58.418 -53.559  1.00  0.00    -0.040 C 
HETATM    8  C   UNL     1     -41.514  58.904 -54.324  1.00  0.00     0.015 C 
HETATM    9  C   UNL     1     -43.065  59.452 -52.455  1.00  0.00     0.015 C 
HETATM   10  C   UNL     1     -44.003  58.328 -54.503  1.00  0.00     0.039 C 
HETATM   11  C   UNL     1     -43.932  57.229 -55.590  1.00  0.00     0.122 C 
ENDROOT
BRANCH  11  12
HETATM   12  N   UNL     1     -43.195  57.646 -56.766  1.00  0.00    -0.347 N 
HETATM   13  C   UNL     1     -43.802  57.697 -57.994  1.00  0.00     0.270 C 
HETATM   14  O   UNL     1     -44.981  57.416 -58.182  1.00  0.00    -0.266 OA
HETATM   15  H   UNL     1     -42.226  57.908 -56.653  1.00  0.00     0.163 HD
BRANCH  13  16
HETATM   16  C   UNL     1     -42.942  58.108 -59.133  1.00  0.00     0.120 A 
HETATM   17  N   UNL     1     -42.928  59.420 -59.558  1.00  0.00    -0.303 N 
HETATM   18  C   UNL     1     -42.061  59.551 -60.643  1.00  0.00     0.324 A 
HETATM   19  H   UNL     1     -43.473  60.163 -59.147  1.00  0.00     0.171 HD
HETATM   20  O   UNL     1     -41.799  60.553 -61.278  1.00  0.00    -0.247 OA
HETATM   21  N   UNL     1     -41.554  58.259 -60.841  1.00  0.00    -0.316 N 
HETATM   22  C   UNL     1     -42.105  57.406 -59.915  1.00  0.00     0.128 A 
HETATM   23  H   UNL     1     -40.894  58.033 -61.571  1.00  0.00     0.170 HD
ENDBRANCH  13  16
ENDBRANCH  11  12
BRANCH   1  24
HETATM   24  C   UNL     1     -41.596  53.951 -52.587  1.00  0.00     0.064 A 
HETATM   25  C   UNL     1     -40.499  53.084 -52.803  1.00  0.00    -0.033 A 
HETATM   26  C   UNL     1     -39.984  52.707 -54.169  1.00  0.00     0.050 C 
HETATM   27  C   UNL     1     -39.857  52.513 -51.688  1.00  0.00     0.009 A 
HETATM   28  C   UNL     1     -40.290  52.781 -50.390  1.00  0.00     0.001 A 
HETATM   29  C   UNL     1     -41.360  53.642 -50.182  1.00  0.00     0.002 A 
HETATM   30  C   UNL     1     -42.005  54.229 -51.272  1.00  0.00     0.032 A 
ENDBRANCH   1  24
TORSDOF 3
ENDMDL
MODEL 6
REMARK VINA RESULT:      -7.4      1.374      2.013
REMARK  3 active torsions:
REMARK  status: ('A' for Active; 'I' for Inactive)
REMARK    1  A    between atoms: C_3  and  N_4 
REMARK    2  A    between atoms: C_14  and  N_15 
REMARK       I    between atoms: N_15  and  C_16 
REMARK    3  A    between atoms: C_16  and  C_17 
ROOT
HETATM    1  N   UNL     1     -42.226  54.757 -53.049  1.00  0.00    -0.237 N 
HETATM    2  N   UNL     1     -43.257  54.395 -53.863  1.00  0.00    -0.179 NA
HETATM    3  C   UNL     1     -43.878  55.527 -54.180  1.00  0.00     0.150 A 
HETATM    4  C   UNL     1     -43.277  56.645 -53.592  1.00  0.00     0.008 A 
HETATM    5  C   UNL     1     -42.199  56.138 -52.888  1.00  0.00     0.047 A 
HETATM    6  C   UNL     1     -41.353  56.938 -51.948  1.00  0.00     0.069 C 
HETATM    7  C   UNL     1     -41.494  58.469 -52.223  1.00  0.00    -0.040 C 
HETATM    8  C   UNL     1     -40.603  58.874 -53.415  1.00  0.00     0.015 C 
HETATM    9  C   UNL     1     -40.993  59.238 -50.984  1.00  0.00     0.015 C 
HETATM   10  C   UNL     1     -42.985  58.860 -52.475  1.00  0.00     0.039 C 
HETATM   11  C   UNL     1     -43.698  58.071 -53.599  1.00  0.00     0.122 C 
ENDROOT
BRANCH  11  12
HETATM   12  N   UNL     1     -43.439  58.612 -54.918  1.00  0.00    -0.347 N 
HETATM   13  C   UNL     1     -44.433  58.672 -55.860  1.00  0.00     0.270 C 
HETATM   14  O   UNL     1     -45.585  58.298 -55.658  1.00  0.00    -0.266 OA
HETATM   15  H   UNL     1     -42.510  58.952 -55.120  1.00  0.00     0.163 HD
BRANCH  13  16
HETATM   16  C   UNL     1     -44.047  59.217 -57.186  1.00  0.00     0.120 A 
HETATM   17  N   UNL     1     -44.621  58.722 -58.338  1.00  0.00    -0.303 N 
HETATM   18  C   UNL     1     -44.088  59.379 -59.447  1.00  0.00     0.324 A 
HETATM   19  H   UNL     1     -45.315  57.989 -58.366  1.00  0.00     0.171 HD
HETATM   20  O   UNL     1     -44.350  59.205 -60.621  1.00  0.00    -0.247 OA
HETATM   21  N   UNL     1     -43.173  60.292 -58.903  1.00  0.00    -0.316 N 
HETATM   22  C   UNL     1     -43.168  60.171 -57.535  1.00  0.00     0.128 A 
HETATM   23  H   UNL     1     -42.618  60.917 -59.469  1.00  0.00     0.170 HD
ENDBRANCH  13  16
ENDBRANCH  11  12
BRANCH   1  24
HETATM   24  C   UNL     1     -41.364  53.761 -52.502  1.00  0.00     0.064 A 
HETATM   25  C   UNL     1     -41.348  53.479 -51.116  1.00  0.00    -0.033 A 
HETATM   26  C   UNL     1     -42.181  54.217 -50.099  1.00  0.00     0.050 C 
HETATM   27  C   UNL     1     -40.490  52.469 -50.640  1.00  0.00     0.009 A 
HETATM   28  C   UNL     1     -39.661  51.759 -51.507  1.00  0.00     0.001 A 
HETATM   29  C   UNL     1     -39.688  52.032 -52.869  1.00  0.00     0.002 A 
HETATM   30  C   UNL     1     -40.540  53.022 -53.366  1.00  0.00     0.032 A 
ENDBRANCH   1  24
TORSDOF 3
ENDMDL
MODEL 7
REMARK VINA RESULT:      -7.4      3.489      6.245
REMARK  3 active torsions:
REMARK  status: ('A' for Active; 'I' for Inactive)
REMARK    1  A    between atoms: C_3  and  N_4 
REMARK    2  A    between atoms: C_14  and  N_15 
REMARK       I    between atoms: N_15  and  C_16 
REMARK    3  A    between atoms: C_16  and  C_17 
ROOT
HETATM    1  N   UNL     1     -43.699  59.097 -53.661  1.00  0.00    -0.237 N 
HETATM    2  N   UNL     1     -43.677  59.915 -54.750  1.00  0.00    -0.179 NA
HETATM    3  C   UNL     1     -43.202  59.173 -55.745  1.00  0.00     0.150 A 
HETATM    4  C   UNL     1     -42.907  57.867 -55.340  1.00  0.00     0.008 A 
HETATM    5  C   UNL     1     -43.256  57.823 -54.002  1.00  0.00     0.047 A 
HETATM    6  C   UNL     1     -42.957  56.677 -53.088  1.00  0.00     0.069 C 
HETATM    7  C   UNL     1     -42.672  55.370 -53.894  1.00  0.00    -0.040 C 
HETATM    8  C   UNL     1     -44.001  54.716 -54.325  1.00  0.00     0.015 C 
HETATM    9  C   UNL     1     -41.940  54.375 -52.971  1.00  0.00     0.015 C 
HETATM   10  C   UNL     1     -41.759  55.659 -55.128  1.00  0.00     0.039 C 
HETATM   11  C   UNL     1     -42.274  56.753 -56.094  1.00  0.00     0.122 C 
ENDROOT
BRANCH  11  12
HETATM   12  N   UNL     1     -43.237  56.250 -57.052  1.00  0.00    -0.347 N 
HETATM   13  C   UNL     1     -43.156  56.594 -58.376  1.00  0.00     0.270 C 
HETATM   14  O   UNL     1     -42.281  57.320 -58.838  1.00  0.00    -0.266 OA
HETATM   15  H   UNL     1     -43.962  55.631 -56.719  1.00  0.00     0.163 HD
BRANCH  13  16
HETATM   16  C   UNL     1     -44.214  56.046 -59.262  1.00  0.00     0.120 A 
HETATM   17  N   UNL     1     -45.493  56.561 -59.225  1.00  0.00    -0.303 N 
HETATM   18  C   UNL     1     -46.301  55.875 -60.131  1.00  0.00     0.324 A 
HETATM   19  H   UNL     1     -45.791  57.314 -58.623  1.00  0.00     0.171 HD
HETATM   20  O   UNL     1     -47.480  56.049 -60.366  1.00  0.00    -0.247 OA
HETATM   21  N   UNL     1     -45.445  54.930 -60.714  1.00  0.00    -0.316 N 
HETATM   22  C   UNL     1     -44.190  55.055 -60.169  1.00  0.00     0.128 A 
HETATM   23  H   UNL     1     -45.749  54.273 -61.417  1.00  0.00     0.170 HD
ENDBRANCH  13  16
ENDBRANCH  11  12
BRANCH   1  24
HETATM   24  C   UNL     1     -44.138  59.598 -52.400  1.00  0.00     0.064 A 
HETATM   25  C   UNL     1     -43.218  60.047 -51.422  1.00  0.00    -0.033 A 
HETATM   26  C   UNL     1     -41.722  59.995 -51.592  1.00  0.00     0.050 C 
HETATM   27  C   UNL     1     -43.715  60.551 -50.205  1.00  0.00     0.009 A 
HETATM   28  C   UNL     1     -45.086  60.604 -49.952  1.00  0.00     0.001 A 
HETATM   29  C   UNL     1     -45.985  60.173 -50.919  1.00  0.00     0.002 A 
HETATM   30  C   UNL     1     -45.516  59.680 -52.138  1.00  0.00     0.032 A 
ENDBRANCH   1  24
TORSDOF 3
ENDMDL
MODEL 8
REMARK VINA RESULT:      -7.2     16.636     18.951
REMARK  3 active torsions:
REMARK  status: ('A' for Active; 'I' for Inactive)
REMARK    1  A    between atoms: C_3  and  N_4 
REMARK    2  A    between atoms: C_14  and  N_15 
REMARK       I    between atoms: N_15  and  C_16 
REMARK    3  A    between atoms: C_16  and  C_17 
ROOT
HETATM    1  N   UNL     1     -36.230  40.606 -56.929  1.00  0.00    -0.237 N 
HETATM    2  N   UNL     1     -34.992  41.082 -57.243  1.00  0.00    -0.179 NA
HETATM    3  C   UNL     1     -34.528  41.637 -56.127  1.00  0.00     0.150 A 
HETATM    4  C   UNL     1     -35.436  41.539 -55.068  1.00  0.00     0.008 A 
HETATM    5  C   UNL     1     -36.517  40.849 -55.590  1.00  0.00     0.047 A 
HETATM    6  C   UNL     1     -37.819  40.655 -54.878  1.00  0.00     0.069 C 
HETATM    7  C   UNL     1     -37.658  40.865 -53.339  1.00  0.00    -0.040 C 
HETATM    8  C   UNL     1     -37.080  39.590 -52.690  1.00  0.00     0.015 C 
HETATM    9  C   UNL     1     -39.054  41.106 -52.730  1.00  0.00     0.015 C 
HETATM   10  C   UNL     1     -36.766  42.108 -53.031  1.00  0.00     0.039 C 
HETATM   11  C   UNL     1     -35.367  42.103 -53.695  1.00  0.00     0.122 C 
ENDROOT
BRANCH  11  12
HETATM   12  N   UNL     1     -34.390  41.342 -52.942  1.00  0.00    -0.347 N 
HETATM   13  C   UNL     1     -34.083  41.678 -51.649  1.00  0.00     0.270 C 
HETATM   14  O   UNL     1     -34.607  42.610 -51.046  1.00  0.00    -0.266 OA
HETATM   15  H   UNL     1     -33.951  40.553 -53.393  1.00  0.00     0.163 HD
BRANCH  13  16
HETATM   16  C   UNL     1     -33.046  40.849 -50.985  1.00  0.00     0.120 A 
HETATM   17  N   UNL     1     -33.233  40.396 -49.696  1.00  0.00    -0.303 N 
HETATM   18  C   UNL     1     -32.121  39.657 -49.293  1.00  0.00     0.324 A 
HETATM   19  H   UNL     1     -34.051  40.583 -49.134  1.00  0.00     0.171 HD
HETATM   20  O   UNL     1     -31.930  39.111 -48.225  1.00  0.00    -0.247 OA
HETATM   21  N   UNL     1     -31.264  39.685 -50.402  1.00  0.00    -0.316 N 
HETATM   22  C   UNL     1     -31.847  40.415 -51.410  1.00  0.00     0.128 A 
HETATM   23  H   UNL     1     -30.362  39.234 -50.411  1.00  0.00     0.170 HD
ENDBRANCH  13  16
ENDBRANCH  11  12
BRANCH   1  24
HETATM   24  C   UNL     1     -37.023  39.965 -57.926  1.00  0.00     0.064 A 
HETATM   25  C   UNL     1     -37.439  40.651 -59.092  1.00  0.00    -0.033 A 
HETATM   26  C   UNL     1     -37.138  42.102 -59.365  1.00  0.00     0.050 C 
HETATM   27  C   UNL     1     -38.203  39.956 -60.050  1.00  0.00     0.009 A 
HETATM   28  C   UNL     1     -38.555  38.620 -59.861  1.00  0.00     0.001 A 
HETATM   29  C   UNL     1     -38.134  37.948 -58.721  1.00  0.00     0.002 A 
HETATM   30  C   UNL     1     -37.366  38.613 -57.762  1.00  0.00     0.032 A 
ENDBRANCH   1  24
TORSDOF 3
ENDMDL
MODEL 9
REMARK VINA RESULT:      -7.2      3.412      6.548
REMARK  3 active torsions:
REMARK  status: ('A' for Active; 'I' for Inactive)
REMARK    1  A    between atoms: C_3  and  N_4 
REMARK    2  A    between atoms: C_14  and  N_15 
REMARK       I    between atoms: N_15  and  C_16 
REMARK    3  A    between atoms: C_16  and  C_17 
ROOT
HETATM    1  N   UNL     1     -43.531  61.483 -51.749  1.00  0.00    -0.237 N 
HETATM    2  N   UNL     1     -43.716  62.179 -52.905  1.00  0.00    -0.179 NA
HETATM    3  C   UNL     1     -42.999  61.541 -53.826  1.00  0.00     0.150 A 
HETATM    4  C   UNL     1     -42.338  60.425 -53.303  1.00  0.00     0.008 A 
HETATM    5  C   UNL     1     -42.710  60.383 -51.971  1.00  0.00     0.047 A 
HETATM    6  C   UNL     1     -42.113  59.459 -50.956  1.00  0.00     0.069 C 
HETATM    7  C   UNL     1     -41.413  58.243 -51.640  1.00  0.00    -0.040 C 
HETATM    8  C   UNL     1     -42.463  57.181 -52.030  1.00  0.00     0.015 C 
HETATM    9  C   UNL     1     -40.451  57.596 -50.623  1.00  0.00     0.015 C 
HETATM   10  C   UNL     1     -40.583  58.697 -52.882  1.00  0.00     0.039 C 
HETATM   11  C   UNL     1     -41.367  59.501 -53.947  1.00  0.00     0.122 C 
ENDROOT
BRANCH  11  12
HETATM   12  N   UNL     1     -42.093  58.653 -54.871  1.00  0.00    -0.347 N 
HETATM   13  C   UNL     1     -42.120  58.936 -56.211  1.00  0.00     0.270 C 
HETATM   14  O   UNL     1     -41.538  59.890 -56.717  1.00  0.00    -0.266 OA
HETATM   15  H   UNL     1     -42.569  57.843 -54.500  1.00  0.00     0.163 HD
BRANCH  13  16
HETATM   16  C   UNL     1     -42.921  58.016 -57.059  1.00  0.00     0.120 A 
HETATM   17  N   UNL     1     -42.301  57.194 -57.977  1.00  0.00    -0.303 N 
HETATM   18  C   UNL     1     -43.260  56.443 -58.655  1.00  0.00     0.324 A 
HETATM   19  H   UNL     1     -41.305  57.156 -58.133  1.00  0.00     0.171 HD
HETATM   20  O   UNL     1     -43.086  55.621 -59.533  1.00  0.00    -0.247 OA
HETATM   21  N   UNL     1     -44.480  56.850 -58.097  1.00  0.00    -0.316 N 
HETATM   22  C   UNL     1     -44.245  57.803 -57.136  1.00  0.00     0.128 A 
HETATM   23  H   UNL     1     -45.371  56.479 -58.393  1.00  0.00     0.170 HD
ENDBRANCH  13  16
ENDBRANCH  11  12
BRANCH   1  24
HETATM   24  C   UNL     1     -44.152  61.924 -50.543  1.00  0.00     0.064 A 
HETATM   25  C   UNL     1     -45.245  61.228 -49.977  1.00  0.00    -0.033 A 
HETATM   26  C   UNL     1     -45.879  60.011 -50.601  1.00  0.00     0.050 C 
HETATM   27  C   UNL     1     -45.801  61.702 -48.773  1.00  0.00     0.009 A 
HETATM   28  C   UNL     1     -45.297  62.841 -48.145  1.00  0.00     0.001 A 
HETATM   29  C   UNL     1     -44.216  63.514 -48.699  1.00  0.00     0.002 A 
HETATM   30  C   UNL     1     -43.641  63.056 -49.886  1.00  0.00     0.032 A 
ENDBRANCH   1  24
TORSDOF 3
ENDMDL
MODEL 10
REMARK VINA RESULT:      -7.2      1.789      2.343
REMARK  3 active torsions:
REMARK  status: ('A' for Active; 'I' for Inactive)
REMARK    1  A    between atoms: C_3  and  N_4 
REMARK    2  A    between atoms: C_14  and  N_15 
REMARK       I    between atoms: N_15  and  C_16 
REMARK    3  A    between atoms: C_16  and  C_17 
ROOT
HETATM    1  N   UNL     1     -42.112  55.442 -51.766  1.00  0.00    -0.237 N 
HETATM    2  N   UNL     1     -43.446  55.361 -52.032  1.00  0.00    -0.179 NA
HETATM    3  C   UNL     1     -43.889  56.615 -52.029  1.00  0.00     0.150 A 
HETATM    4  C   UNL     1     -42.871  57.537 -51.766  1.00  0.00     0.008 A 
HETATM    5  C   UNL     1     -41.726  56.771 -51.625  1.00  0.00     0.047 A 
HETATM    6  C   UNL     1     -40.406  57.302 -51.161  1.00  0.00     0.069 C 
HETATM    7  C   UNL     1     -40.328  58.852 -51.334  1.00  0.00    -0.040 C 
HETATM    8  C   UNL     1     -39.986  59.203 -52.797  1.00  0.00     0.015 C 
HETATM    9  C   UNL     1     -39.185  59.386 -50.448  1.00  0.00     0.015 C 
HETATM   10  C   UNL     1     -41.658  59.536 -50.886  1.00  0.00     0.039 C 
HETATM   11  C   UNL     1     -42.941  59.009 -51.574  1.00  0.00     0.122 C 
ENDROOT
BRANCH  11  12
HETATM   12  N   UNL     1     -43.179  59.623 -52.866  1.00  0.00    -0.347 N 
HETATM   13  C   UNL     1     -43.714  60.881 -52.957  1.00  0.00     0.270 C 
HETATM   14  O   UNL     1     -44.009  61.568 -51.983  1.00  0.00    -0.266 OA
HETATM   15  H   UNL     1     -42.930  59.102 -53.694  1.00  0.00     0.163 HD
BRANCH  13  16
HETATM   16  C   UNL     1     -43.943  61.398 -54.330  1.00  0.00     0.120 A 
HETATM   17  N   UNL     1     -42.904  61.946 -55.053  1.00  0.00    -0.303 N 
HETATM   18  C   UNL     1     -43.371  62.369 -56.297  1.00  0.00     0.324 A 
HETATM   19  H   UNL     1     -41.955  62.032 -54.719  1.00  0.00     0.171 HD
HETATM   20  O   UNL     1     -42.745  62.901 -57.192  1.00  0.00    -0.247 OA
HETATM   21  N   UNL     1     -44.735  62.044 -56.286  1.00  0.00    -0.316 N 
HETATM   22  C   UNL     1     -45.054  61.459 -55.084  1.00  0.00     0.128 A 
HETATM   23  H   UNL     1     -45.352  62.236 -57.061  1.00  0.00     0.170 HD
ENDBRANCH  13  16
ENDBRANCH  11  12
BRANCH   1  24
HETATM   24  C   UNL     1     -41.329  54.254 -51.671  1.00  0.00     0.064 A 
HETATM   25  C   UNL     1     -40.969  53.705 -50.418  1.00  0.00    -0.033 A 
HETATM   26  C   UNL     1     -41.325  54.331 -49.094  1.00  0.00     0.050 C 
HETATM   27  C   UNL     1     -40.213  52.517 -50.391  1.00  0.00     0.009 A 
HETATM   28  C   UNL     1     -39.813  51.890 -51.570  1.00  0.00     0.001 A 
HETATM   29  C   UNL     1     -40.179  52.427 -52.798  1.00  0.00     0.002 A 
HETATM   30  C   UNL     1     -40.938  53.597 -52.850  1.00  0.00     0.032 A 
ENDBRANCH   1  24
TORSDOF 3
ENDMDL
