MODEL 1
REMARK VINA RESULT:      -7.5      0.000      0.000
REMARK  5 active torsions:
REMARK  status: ('A' for Active; 'I' for Inactive)
REMARK    1  A    between atoms: C_8  and  N_9 
REMARK       I    between atoms: N_9  and  C_10 
REMARK    2  A    between atoms: C_10  and  C_11 
REMARK    3  A    between atoms: C_11  and  N_12 
REMARK    4  A    between atoms: N_12  and  C_13 
REMARK    5  A    between atoms: C_13  and  C_14 
ROOT
HETATM    1  C   UNL     1     -42.779  54.238 -51.798  1.00  0.00     0.372 C 
ENDROOT
BRANCH   1   2
HETATM    2  C   UNL     1     -42.771  55.764 -51.983  1.00  0.00     0.250 C 
HETATM    3  N   UNL     1     -42.008  56.154 -53.062  1.00  0.00    -0.322 N 
HETATM    4  H   UNL     1     -41.578  55.384 -53.570  1.00  0.00     0.169 HD
HETATM    5  O   UNL     1     -43.421  56.485 -51.233  1.00  0.00    -0.271 OA
BRANCH   3   6
HETATM    6  C   UNL     1     -41.735  57.435 -53.501  1.00  0.00     0.085 A 
HETATM    7  C   UNL     1     -42.177  57.884 -54.731  1.00  0.00     0.052 A 
HETATM    8  C   UNL     1     -42.968  57.239 -55.806  1.00  0.00     0.072 C 
HETATM    9  N   UNL     1     -41.727  59.167 -54.846  1.00  0.00    -0.280 N 
HETATM   10  H   UNL     1     -41.859  59.812 -55.617  1.00  0.00     0.189 HD
HETATM   11  N   UNL     1     -41.024  59.589 -53.792  1.00  0.00    -0.177 NA
HETATM   12  C   UNL     1     -41.022  58.541 -52.953  1.00  0.00     0.079 A 
HETATM   13  C   UNL     1     -40.312  58.687 -51.658  1.00  0.00     0.075 C 
ENDBRANCH   3   6
ENDBRANCH   1   2
BRANCH   1  14
HETATM   14  N   UNL     1     -41.920  53.853 -50.655  1.00  0.00     0.100 N 
HETATM   15  H   UNL     1     -42.278  52.972 -50.279  1.00  0.00     0.317 HD
BRANCH  14  16
HETATM   16  C   UNL     1     -40.500  53.648 -51.005  1.00  0.00     0.251 C 
HETATM   17  C   UNL     1     -39.569  54.267 -49.948  1.00  0.00     0.048 C 
BRANCH  16  18
HETATM   18  C   UNL     1     -40.180  52.212 -51.411  1.00  0.00    -0.002 A 
HETATM   19  C   UNL     1     -40.024  51.838 -52.768  1.00  0.00     0.064 A 
HETATM   20 CL   UNL     1     -40.197  53.022 -54.031  1.00  0.00    -0.082 Cl
HETATM   21  C   UNL     1     -39.730  50.504 -53.105  1.00  0.00     0.056 A 
HETATM   22 CL   UNL     1     -39.513  49.979 -54.740  1.00  0.00    -0.083 Cl
HETATM   23  C   UNL     1     -39.598  49.534 -52.109  1.00  0.00     0.026 A 
HETATM   24  C   UNL     1     -39.763  49.884 -50.774  1.00  0.00     0.002 A 
HETATM   25  C   UNL     1     -40.053  51.205 -50.429  1.00  0.00     0.011 A 
ENDBRANCH  16  18
ENDBRANCH  14  16
ENDBRANCH   1  14
TORSDOF 5
ENDMDL
MODEL 2
REMARK VINA RESULT:      -7.4      3.388      4.860
REMARK  5 active torsions:
REMARK  status: ('A' for Active; 'I' for Inactive)
REMARK    1  A    between atoms: C_8  and  N_9 
REMARK       I    between atoms: N_9  and  C_10 
REMARK    2  A    between atoms: C_10  and  C_11 
REMARK    3  A    between atoms: C_11  and  N_12 
REMARK    4  A    between atoms: N_12  and  C_13 
REMARK    5  A    between atoms: C_13  and  C_14 
ROOT
HETATM    1  C   UNL     1     -42.140  55.814 -54.920  1.00  0.00     0.372 C 
ENDROOT
BRANCH   1   2
HETATM    2  C   UNL     1     -43.000  56.282 -56.106  1.00  0.00     0.250 C 
HETATM    3  N   UNL     1     -42.510  55.836 -57.313  1.00  0.00    -0.322 N 
HETATM    4  H   UNL     1     -41.669  55.266 -57.239  1.00  0.00     0.169 HD
HETATM    5  O   UNL     1     -44.012  56.949 -55.914  1.00  0.00    -0.271 OA
BRANCH   3   6
HETATM    6  C   UNL     1     -42.989  56.096 -58.583  1.00  0.00     0.085 A 
HETATM    7  C   UNL     1     -42.704  57.283 -59.231  1.00  0.00     0.052 A 
HETATM    8  C   UNL     1     -41.914  58.473 -58.837  1.00  0.00     0.072 C 
HETATM    9  N   UNL     1     -43.335  57.210 -60.440  1.00  0.00    -0.280 N 
HETATM   10  H   UNL     1     -43.350  57.901 -61.182  1.00  0.00     0.189 HD
HETATM   11  N   UNL     1     -44.010  56.074 -60.629  1.00  0.00    -0.177 NA
HETATM   12  C   UNL     1     -43.806  55.374 -59.501  1.00  0.00     0.079 A 
HETATM   13  C   UNL     1     -44.432  54.033 -59.391  1.00  0.00     0.075 C 
ENDBRANCH   3   6
ENDBRANCH   1   2
BRANCH   1  14
HETATM   14  N   UNL     1     -42.345  54.368 -54.675  1.00  0.00     0.100 N 
HETATM   15  H   UNL     1     -42.864  53.987 -55.470  1.00  0.00     0.317 HD
BRANCH  14  16
HETATM   16  C   UNL     1     -41.096  53.592 -54.540  1.00  0.00     0.251 C 
HETATM   17  C   UNL     1     -39.927  54.285 -55.262  1.00  0.00     0.048 C 
BRANCH  16  18
HETATM   18  C   UNL     1     -40.817  53.142 -53.108  1.00  0.00    -0.002 A 
HETATM   19  C   UNL     1     -40.221  51.889 -52.824  1.00  0.00     0.064 A 
HETATM   20 CL   UNL     1     -39.784  50.810 -54.117  1.00  0.00    -0.082 Cl
HETATM   21  C   UNL     1     -39.980  51.506 -51.491  1.00  0.00     0.056 A 
HETATM   22 CL   UNL     1     -39.242  49.997 -51.071  1.00  0.00    -0.083 Cl
HETATM   23  C   UNL     1     -40.332  52.351 -50.437  1.00  0.00     0.026 A 
HETATM   24  C   UNL     1     -40.931  53.577 -50.701  1.00  0.00     0.002 A 
HETATM   25  C   UNL     1     -41.173  53.967 -52.019  1.00  0.00     0.011 A 
ENDBRANCH  16  18
ENDBRANCH  14  16
ENDBRANCH   1  14
TORSDOF 5
ENDMDL
MODEL 3
REMARK VINA RESULT:      -7.3      1.873      2.595
REMARK  5 active torsions:
REMARK  status: ('A' for Active; 'I' for Inactive)
REMARK    1  A    between atoms: C_8  and  N_9 
REMARK       I    between atoms: N_9  and  C_10 
REMARK    2  A    between atoms: C_10  and  C_11 
REMARK    3  A    between atoms: C_11  and  N_12 
REMARK    4  A    between atoms: N_12  and  C_13 
REMARK    5  A    between atoms: C_13  and  C_14 
ROOT
HETATM    1  C   UNL     1     -42.212  55.147 -52.259  1.00  0.00     0.372 C 
ENDROOT
BRANCH   1   2
HETATM    2  C   UNL     1     -42.833  56.324 -51.489  1.00  0.00     0.250 C 
HETATM    3  N   UNL     1     -42.267  57.530 -51.837  1.00  0.00    -0.322 N 
HETATM    4  H   UNL     1     -41.540  57.462 -52.546  1.00  0.00     0.169 HD
HETATM    5  O   UNL     1     -43.747  56.133 -50.694  1.00  0.00    -0.271 OA
BRANCH   3   6
HETATM    6  C   UNL     1     -42.537  58.784 -51.324  1.00  0.00     0.085 A 
HETATM    7  C   UNL     1     -41.541  59.562 -50.763  1.00  0.00     0.052 A 
HETATM    8  C   UNL     1     -40.089  59.338 -50.565  1.00  0.00     0.072 C 
HETATM    9  N   UNL     1     -42.150  60.713 -50.355  1.00  0.00    -0.280 N 
HETATM   10  H   UNL     1     -41.732  61.516 -49.898  1.00  0.00     0.189 HD
HETATM   11  N   UNL     1     -43.462  60.748 -50.602  1.00  0.00    -0.177 NA
HETATM   12  C   UNL     1     -43.718  59.573 -51.201  1.00  0.00     0.079 A 
HETATM   13  C   UNL     1     -45.115  59.294 -51.615  1.00  0.00     0.075 C 
ENDBRANCH   3   6
ENDBRANCH   1   2
BRANCH   1  14
HETATM   14  N   UNL     1     -41.888  54.038 -51.332  1.00  0.00     0.100 N 
HETATM   15  H   UNL     1     -42.380  53.203 -51.660  1.00  0.00     0.317 HD
BRANCH  14  16
HETATM   16  C   UNL     1     -40.450  53.712 -51.254  1.00  0.00     0.251 C 
HETATM   17  C   UNL     1     -39.824  54.251 -49.956  1.00  0.00     0.048 C 
BRANCH  16  18
HETATM   18  C   UNL     1     -40.145  52.252 -51.581  1.00  0.00    -0.002 A 
HETATM   19  C   UNL     1     -39.992  51.805 -52.916  1.00  0.00     0.064 A 
HETATM   20 CL   UNL     1     -40.152  52.921 -54.241  1.00  0.00    -0.082 Cl
HETATM   21  C   UNL     1     -39.711  50.451 -53.181  1.00  0.00     0.056 A 
HETATM   22 CL   UNL     1     -39.498  49.837 -54.785  1.00  0.00    -0.083 Cl
HETATM   23  C   UNL     1     -39.590  49.535 -52.134  1.00  0.00     0.026 A 
HETATM   24  C   UNL     1     -39.752  49.958 -50.819  1.00  0.00     0.002 A 
HETATM   25  C   UNL     1     -40.028  51.299 -50.547  1.00  0.00     0.011 A 
ENDBRANCH  16  18
ENDBRANCH  14  16
ENDBRANCH   1  14
TORSDOF 5
ENDMDL
MODEL 4
REMARK VINA RESULT:      -7.2      3.670      5.319
REMARK  5 active torsions:
REMARK  status: ('A' for Active; 'I' for Inactive)
REMARK    1  A    between atoms: C_8  and  N_9 
REMARK       I    between atoms: N_9  and  C_10 
REMARK    2  A    between atoms: C_10  and  C_11 
REMARK    3  A    between atoms: C_11  and  N_12 
REMARK    4  A    between atoms: N_12  and  C_13 
REMARK    5  A    between atoms: C_13  and  C_14 
ROOT
HETATM    1  C   UNL     1     -41.760  56.678 -55.419  1.00  0.00     0.372 C 
ENDROOT
BRANCH   1   2
HETATM    2  C   UNL     1     -42.819  56.907 -56.510  1.00  0.00     0.250 C 
HETATM    3  N   UNL     1     -42.406  56.449 -57.741  1.00  0.00    -0.322 N 
HETATM    4  H   UNL     1     -41.479  56.027 -57.742  1.00  0.00     0.169 HD
HETATM    5  O   UNL     1     -43.898  57.419 -56.231  1.00  0.00    -0.271 OA
BRANCH   3   6
HETATM    6  C   UNL     1     -43.068  56.526 -58.952  1.00  0.00     0.085 A 
HETATM    7  C   UNL     1     -43.013  57.667 -59.731  1.00  0.00     0.052 A 
HETATM    8  C   UNL     1     -42.331  58.970 -59.549  1.00  0.00     0.072 C 
HETATM    9  N   UNL     1     -43.775  57.406 -60.832  1.00  0.00    -0.280 N 
HETATM   10  H   UNL     1     -43.967  58.013 -61.621  1.00  0.00     0.189 HD
HETATM   11  N   UNL     1     -44.325  56.188 -60.833  1.00  0.00    -0.177 NA
HETATM   12  C   UNL     1     -43.898  55.631 -59.688  1.00  0.00     0.079 A 
HETATM   13  C   UNL     1     -44.337  54.247 -59.382  1.00  0.00     0.075 C 
ENDBRANCH   3   6
ENDBRANCH   1   2
BRANCH   1  14
HETATM   14  N   UNL     1     -41.286  55.275 -55.449  1.00  0.00     0.100 N 
HETATM   15  H   UNL     1     -40.324  55.263 -55.099  1.00  0.00     0.317 HD
BRANCH  14  16
HETATM   16  C   UNL     1     -42.079  54.348 -54.615  1.00  0.00     0.251 C 
HETATM   17  C   UNL     1     -43.162  53.639 -55.445  1.00  0.00     0.048 C 
BRANCH  16  18
HETATM   18  C   UNL     1     -41.220  53.444 -53.735  1.00  0.00    -0.002 A 
HETATM   19  C   UNL     1     -41.188  53.587 -52.327  1.00  0.00     0.064 A 
HETATM   20 CL   UNL     1     -42.142  54.816 -51.547  1.00  0.00    -0.082 Cl
HETATM   21  C   UNL     1     -40.384  52.736 -51.546  1.00  0.00     0.056 A 
HETATM   22 CL   UNL     1     -40.308  52.844 -49.820  1.00  0.00    -0.083 Cl
HETATM   23  C   UNL     1     -39.602  51.750 -52.151  1.00  0.00     0.026 A 
HETATM   24  C   UNL     1     -39.611  51.608 -53.534  1.00  0.00     0.002 A 
HETATM   25  C   UNL     1     -40.408  52.446 -54.316  1.00  0.00     0.011 A 
ENDBRANCH  16  18
ENDBRANCH  14  16
ENDBRANCH   1  14
TORSDOF 5
ENDMDL
MODEL 5
REMARK VINA RESULT:      -7.2      1.734      2.325
REMARK  5 active torsions:
REMARK  status: ('A' for Active; 'I' for Inactive)
REMARK    1  A    between atoms: C_8  and  N_9 
REMARK       I    between atoms: N_9  and  C_10 
REMARK    2  A    between atoms: C_10  and  C_11 
REMARK    3  A    between atoms: C_11  and  N_12 
REMARK    4  A    between atoms: N_12  and  C_13 
REMARK    5  A    between atoms: C_13  and  C_14 
ROOT
HETATM    1  C   UNL     1     -42.291  55.382 -50.994  1.00  0.00     0.372 C 
ENDROOT
BRANCH   1   2
HETATM    2  C   UNL     1     -42.158  56.074 -52.361  1.00  0.00     0.250 C 
HETATM    3  N   UNL     1     -43.372  56.207 -52.998  1.00  0.00    -0.322 N 
HETATM    4  H   UNL     1     -44.163  55.840 -52.473  1.00  0.00     0.169 HD
HETATM    5  O   UNL     1     -41.064  56.462 -52.757  1.00  0.00    -0.271 OA
BRANCH   3   6
HETATM    6  C   UNL     1     -43.631  56.731 -54.250  1.00  0.00     0.085 A 
HETATM    7  C   UNL     1     -44.346  57.904 -54.405  1.00  0.00     0.052 A 
HETATM    8  C   UNL     1     -44.967  58.833 -53.431  1.00  0.00     0.072 C 
HETATM    9  N   UNL     1     -44.424  58.121 -55.751  1.00  0.00    -0.280 N 
HETATM   10  H   UNL     1     -44.876  58.886 -56.238  1.00  0.00     0.189 HD
HETATM   11  N   UNL     1     -43.819  57.183 -56.484  1.00  0.00    -0.177 NA
HETATM   12  C   UNL     1     -43.322  56.323 -55.580  1.00  0.00     0.079 A 
HETATM   13  C   UNL     1     -42.573  55.143 -56.081  1.00  0.00     0.075 C 
ENDBRANCH   3   6
ENDBRANCH   1   2
BRANCH   1  14
HETATM   14  N   UNL     1     -41.956  53.945 -51.109  1.00  0.00     0.100 N 
HETATM   15  H   UNL     1     -42.342  53.604 -51.993  1.00  0.00     0.317 HD
BRANCH  14  16
HETATM   16  C   UNL     1     -40.507  53.657 -51.111  1.00  0.00     0.251 C 
HETATM   17  C   UNL     1     -39.830  54.193 -49.837  1.00  0.00     0.048 C 
BRANCH  16  18
HETATM   18  C   UNL     1     -40.179  52.213 -51.478  1.00  0.00    -0.002 A 
HETATM   19  C   UNL     1     -39.998  51.809 -52.823  1.00  0.00     0.064 A 
HETATM   20 CL   UNL     1     -40.147  52.964 -54.115  1.00  0.00    -0.082 Cl
HETATM   21  C   UNL     1     -39.697  50.467 -53.125  1.00  0.00     0.056 A 
HETATM   22 CL   UNL     1     -39.449  49.906 -54.744  1.00  0.00    -0.083 Cl
HETATM   23  C   UNL     1     -39.584  49.520 -52.105  1.00  0.00     0.026 A 
HETATM   24  C   UNL     1     -39.774  49.900 -50.781  1.00  0.00     0.002 A 
HETATM   25  C   UNL     1     -40.071  51.228 -50.472  1.00  0.00     0.011 A 
ENDBRANCH  16  18
ENDBRANCH  14  16
ENDBRANCH   1  14
TORSDOF 5
ENDMDL
MODEL 6
REMARK VINA RESULT:      -7.1      2.995      4.330
REMARK  5 active torsions:
REMARK  status: ('A' for Active; 'I' for Inactive)
REMARK    1  A    between atoms: C_8  and  N_9 
REMARK       I    between atoms: N_9  and  C_10 
REMARK    2  A    between atoms: C_10  and  C_11 
REMARK    3  A    between atoms: C_11  and  N_12 
REMARK    4  A    between atoms: N_12  and  C_13 
REMARK    5  A    between atoms: C_13  and  C_14 
ROOT
HETATM    1  C   UNL     1     -41.577  56.009 -54.575  1.00  0.00     0.372 C 
ENDROOT
BRANCH   1   2
HETATM    2  C   UNL     1     -42.494  55.793 -55.791  1.00  0.00     0.250 C 
HETATM    3  N   UNL     1     -42.865  56.982 -56.379  1.00  0.00    -0.322 N 
HETATM    4  H   UNL     1     -42.477  57.810 -55.932  1.00  0.00     0.169 HD
HETATM    5  O   UNL     1     -42.790  54.660 -56.152  1.00  0.00    -0.271 OA
BRANCH   3   6
HETATM    6  C   UNL     1     -43.712  57.179 -57.454  1.00  0.00     0.085 A 
HETATM    7  C   UNL     1     -44.863  57.934 -57.333  1.00  0.00     0.052 A 
HETATM    8  C   UNL     1     -45.467  58.664 -56.193  1.00  0.00     0.072 C 
HETATM    9  N   UNL     1     -45.456  57.912 -58.563  1.00  0.00    -0.280 N 
HETATM   10  H   UNL     1     -46.320  58.357 -58.851  1.00  0.00     0.189 HD
HETATM   11  N   UNL     1     -44.785  57.202 -59.473  1.00  0.00    -0.177 NA
HETATM   12  C   UNL     1     -43.708  56.747 -58.812  1.00  0.00     0.079 A 
HETATM   13  C   UNL     1     -42.737  55.908 -59.557  1.00  0.00     0.075 C 
ENDBRANCH   3   6
ENDBRANCH   1   2
BRANCH   1  14
HETATM   14  N   UNL     1     -40.676  54.847 -54.397  1.00  0.00     0.100 N 
HETATM   15  H   UNL     1     -39.713  55.188 -54.457  1.00  0.00     0.317 HD
BRANCH  14  16
HETATM   16  C   UNL     1     -40.827  54.154 -53.102  1.00  0.00     0.251 C 
HETATM   17  C   UNL     1     -42.194  54.456 -52.463  1.00  0.00     0.048 C 
BRANCH  16  18
HETATM   18  C   UNL     1     -40.432  52.680 -53.157  1.00  0.00    -0.002 A 
HETATM   19  C   UNL     1     -40.015  51.977 -52.001  1.00  0.00     0.064 A 
HETATM   20 CL   UNL     1     -39.940  52.784 -50.461  1.00  0.00    -0.082 Cl
HETATM   21  C   UNL     1     -39.658  50.619 -52.089  1.00  0.00     0.056 A 
HETATM   22 CL   UNL     1     -39.153  49.694 -50.715  1.00  0.00    -0.083 Cl
HETATM   23  C   UNL     1     -39.700  49.953 -53.316  1.00  0.00     0.026 A 
HETATM   24  C   UNL     1     -40.093  50.636 -54.462  1.00  0.00     0.002 A 
HETATM   25  C   UNL     1     -40.452  51.982 -54.384  1.00  0.00     0.011 A 
ENDBRANCH  16  18
ENDBRANCH  14  16
ENDBRANCH   1  14
TORSDOF 5
ENDMDL
MODEL 7
REMARK VINA RESULT:      -7.1      2.163      3.284
REMARK  5 active torsions:
REMARK  status: ('A' for Active; 'I' for Inactive)
REMARK    1  A    between atoms: C_8  and  N_9 
REMARK       I    between atoms: N_9  and  C_10 
REMARK    2  A    between atoms: C_10  and  C_11 
REMARK    3  A    between atoms: C_11  and  N_12 
REMARK    4  A    between atoms: N_12  and  C_13 
REMARK    5  A    between atoms: C_13  and  C_14 
ROOT
HETATM    1  C   UNL     1     -42.443  55.007 -55.662  1.00  0.00     0.372 C 
ENDROOT
BRANCH   1   2
HETATM    2  C   UNL     1     -42.939  56.304 -55.002  1.00  0.00     0.250 C 
HETATM    3  N   UNL     1     -42.405  56.485 -53.745  1.00  0.00    -0.322 N 
HETATM    4  H   UNL     1     -41.767  55.748 -53.451  1.00  0.00     0.169 HD
HETATM    5  O   UNL     1     -43.698  57.056 -55.602  1.00  0.00    -0.271 OA
BRANCH   3   6
HETATM    6  C   UNL     1     -42.656  57.503 -52.844  1.00  0.00     0.085 A 
HETATM    7  C   UNL     1     -43.265  57.254 -51.629  1.00  0.00     0.052 A 
HETATM    8  C   UNL     1     -43.764  56.010 -50.995  1.00  0.00     0.072 C 
HETATM    9  N   UNL     1     -43.366  58.465 -51.006  1.00  0.00    -0.280 N 
HETATM   10  H   UNL     1     -43.762  58.671 -50.095  1.00  0.00     0.189 HD
HETATM   11  N   UNL     1     -42.875  59.482 -51.719  1.00  0.00    -0.177 NA
HETATM   12  C   UNL     1     -42.430  58.910 -52.850  1.00  0.00     0.079 A 
HETATM   13  C   UNL     1     -41.811  59.786 -53.875  1.00  0.00     0.075 C 
ENDBRANCH   3   6
ENDBRANCH   1   2
BRANCH   1  14
HETATM   14  N   UNL     1     -42.356  53.919 -54.661  1.00  0.00     0.100 N 
HETATM   15  H   UNL     1     -42.977  53.165 -54.964  1.00  0.00     0.317 HD
BRANCH  14  16
HETATM   16  C   UNL     1     -41.004  53.350 -54.498  1.00  0.00     0.251 C 
HETATM   17  C   UNL     1     -39.942  54.228 -55.183  1.00  0.00     0.048 C 
BRANCH  16  18
HETATM   18  C   UNL     1     -40.693  52.933 -53.063  1.00  0.00    -0.002 A 
HETATM   19  C   UNL     1     -40.131  51.669 -52.759  1.00  0.00     0.064 A 
HETATM   20 CL   UNL     1     -39.774  50.538 -54.032  1.00  0.00    -0.082 Cl
HETATM   21  C   UNL     1     -39.859  51.318 -51.424  1.00  0.00     0.056 A 
HETATM   22 CL   UNL     1     -39.160  49.797 -50.981  1.00  0.00    -0.083 Cl
HETATM   23  C   UNL     1     -40.148  52.205 -50.385  1.00  0.00     0.026 A 
HETATM   24  C   UNL     1     -40.714  53.443 -50.668  1.00  0.00     0.002 A 
HETATM   25  C   UNL     1     -40.985  53.801 -51.989  1.00  0.00     0.011 A 
ENDBRANCH  16  18
ENDBRANCH  14  16
ENDBRANCH   1  14
TORSDOF 5
ENDMDL
MODEL 8
REMARK VINA RESULT:      -7.0      3.367      4.728
REMARK  5 active torsions:
REMARK  status: ('A' for Active; 'I' for Inactive)
REMARK    1  A    between atoms: C_8  and  N_9 
REMARK       I    between atoms: N_9  and  C_10 
REMARK    2  A    between atoms: C_10  and  C_11 
REMARK    3  A    between atoms: C_11  and  N_12 
REMARK    4  A    between atoms: N_12  and  C_13 
REMARK    5  A    between atoms: C_13  and  C_14 
ROOT
HETATM    1  C   UNL     1     -42.769  54.562 -55.457  1.00  0.00     0.372 C 
ENDROOT
BRANCH   1   2
HETATM    2  C   UNL     1     -43.218  55.714 -56.370  1.00  0.00     0.250 C 
HETATM    3  N   UNL     1     -43.127  55.386 -57.705  1.00  0.00    -0.322 N 
HETATM    4  H   UNL     1     -42.790  54.442 -57.882  1.00  0.00     0.169 HD
HETATM    5  O   UNL     1     -43.627  56.765 -55.889  1.00  0.00    -0.271 OA
BRANCH   3   6
HETATM    6  C   UNL     1     -43.397  56.179 -58.804  1.00  0.00     0.085 A 
HETATM    7  C   UNL     1     -44.251  55.755 -59.805  1.00  0.00     0.052 A 
HETATM    8  C   UNL     1     -45.033  54.510 -59.992  1.00  0.00     0.072 C 
HETATM    9  N   UNL     1     -44.280  56.763 -60.725  1.00  0.00    -0.280 N 
HETATM   10  H   UNL     1     -44.799  56.805 -61.594  1.00  0.00     0.189 HD
HETATM   11  N   UNL     1     -43.512  57.808 -60.405  1.00  0.00    -0.177 NA
HETATM   12  C   UNL     1     -42.965  57.470 -59.226  1.00  0.00     0.079 A 
HETATM   13  C   UNL     1     -42.042  58.439 -58.584  1.00  0.00     0.075 C 
ENDBRANCH   3   6
ENDBRANCH   1   2
BRANCH   1  14
HETATM   14  N   UNL     1     -42.687  55.021 -54.051  1.00  0.00     0.100 N 
HETATM   15  H   UNL     1     -43.104  54.296 -53.461  1.00  0.00     0.317 HD
BRANCH  14  16
HETATM   16  C   UNL     1     -41.311  55.255 -53.569  1.00  0.00     0.251 C 
HETATM   17  C   UNL     1     -41.008  56.759 -53.455  1.00  0.00     0.048 C 
BRANCH  16  18
HETATM   18  C   UNL     1     -40.947  54.411 -52.350  1.00  0.00    -0.002 A 
HETATM   19  C   UNL     1     -40.429  53.100 -52.479  1.00  0.00     0.064 A 
HETATM   20 CL   UNL     1     -40.189  52.402 -54.055  1.00  0.00    -0.082 Cl
HETATM   21  C   UNL     1     -40.105  52.350 -51.333  1.00  0.00     0.056 A 
HETATM   22 CL   UNL     1     -39.455  50.748 -51.416  1.00  0.00    -0.083 Cl
HETATM   23  C   UNL     1     -40.300  52.886 -50.058  1.00  0.00     0.026 A 
HETATM   24  C   UNL     1     -40.822  54.166 -49.916  1.00  0.00     0.002 A 
HETATM   25  C   UNL     1     -41.144  54.918 -51.047  1.00  0.00     0.011 A 
ENDBRANCH  16  18
ENDBRANCH  14  16
ENDBRANCH   1  14
TORSDOF 5
ENDMDL
MODEL 9
REMARK VINA RESULT:      -6.9      2.341      3.214
REMARK  5 active torsions:
REMARK  status: ('A' for Active; 'I' for Inactive)
REMARK    1  A    between atoms: C_8  and  N_9 
REMARK       I    between atoms: N_9  and  C_10 
REMARK    2  A    between atoms: C_10  and  C_11 
REMARK    3  A    between atoms: C_11  and  N_12 
REMARK    4  A    between atoms: N_12  and  C_13 
REMARK    5  A    between atoms: C_13  and  C_14 
ROOT
HETATM    1  C   UNL     1     -41.297  56.039 -54.532  1.00  0.00     0.372 C 
ENDROOT
BRANCH   1   2
HETATM    2  C   UNL     1     -41.514  57.429 -53.911  1.00  0.00     0.250 C 
HETATM    3  N   UNL     1     -41.521  57.388 -52.534  1.00  0.00    -0.322 N 
HETATM    4  H   UNL     1     -41.375  56.460 -52.141  1.00  0.00     0.169 HD
HETATM    5  O   UNL     1     -41.628  58.418 -54.626  1.00  0.00    -0.271 OA
BRANCH   3   6
HETATM    6  C   UNL     1     -41.733  58.425 -51.646  1.00  0.00     0.085 A 
HETATM    7  C   UNL     1     -43.010  58.845 -51.322  1.00  0.00     0.052 A 
HETATM    8  C   UNL     1     -44.353  58.387 -51.751  1.00  0.00     0.072 C 
HETATM    9  N   UNL     1     -42.853  59.877 -50.442  1.00  0.00    -0.280 N 
HETATM   10  H   UNL     1     -43.572  60.432 -49.991  1.00  0.00     0.189 HD
HETATM   11  N   UNL     1     -41.577  60.165 -50.170  1.00  0.00    -0.177 NA
HETATM   12  C   UNL     1     -40.875  59.281 -50.896  1.00  0.00     0.079 A 
HETATM   13  C   UNL     1     -39.394  59.334 -50.814  1.00  0.00     0.075 C 
ENDBRANCH   3   6
ENDBRANCH   1   2
BRANCH   1  14
HETATM   14  N   UNL     1     -40.520  55.178 -53.610  1.00  0.00     0.100 N 
HETATM   15  H   UNL     1     -40.116  55.780 -52.888  1.00  0.00     0.317 HD
BRANCH  14  16
HETATM   16  C   UNL     1     -41.318  54.137 -52.933  1.00  0.00     0.251 C 
HETATM   17  C   UNL     1     -42.811  54.261 -53.284  1.00  0.00     0.048 C 
BRANCH  16  18
HETATM   18  C   UNL     1     -40.721  52.739 -53.063  1.00  0.00    -0.002 A 
HETATM   19  C   UNL     1     -40.258  52.018 -51.935  1.00  0.00     0.064 A 
HETATM   20 CL   UNL     1     -40.357  52.718 -50.345  1.00  0.00    -0.082 Cl
HETATM   21  C   UNL     1     -39.711  50.731 -52.093  1.00  0.00     0.056 A 
HETATM   22 CL   UNL     1     -39.139  49.788 -50.758  1.00  0.00    -0.083 Cl
HETATM   23  C   UNL     1     -39.611  50.155 -53.360  1.00  0.00     0.026 A 
HETATM   24  C   UNL     1     -40.048  50.857 -54.478  1.00  0.00     0.002 A 
HETATM   25  C   UNL     1     -40.593  52.133 -54.331  1.00  0.00     0.011 A 
ENDBRANCH  16  18
ENDBRANCH  14  16
ENDBRANCH   1  14
TORSDOF 5
ENDMDL
MODEL 10
REMARK VINA RESULT:      -6.9      3.467      5.074
REMARK  5 active torsions:
REMARK  status: ('A' for Active; 'I' for Inactive)
REMARK    1  A    between atoms: C_8  and  N_9 
REMARK       I    between atoms: N_9  and  C_10 
REMARK    2  A    between atoms: C_10  and  C_11 
REMARK    3  A    between atoms: C_11  and  N_12 
REMARK    4  A    between atoms: N_12  and  C_13 
REMARK    5  A    between atoms: C_13  and  C_14 
ROOT
HETATM    1  C   UNL     1     -41.753  57.070 -55.171  1.00  0.00     0.372 C 
ENDROOT
BRANCH   1   2
HETATM    2  C   UNL     1     -42.699  57.587 -56.267  1.00  0.00     0.250 C 
HETATM    3  N   UNL     1     -42.260  57.258 -57.531  1.00  0.00    -0.322 N 
HETATM    4  H   UNL     1     -41.393  56.723 -57.547  1.00  0.00     0.169 HD
HETATM    5  O   UNL     1     -43.724  58.190 -55.970  1.00  0.00    -0.271 OA
BRANCH   3   6
HETATM    6  C   UNL     1     -42.822  57.591 -58.748  1.00  0.00     0.085 A 
HETATM    7  C   UNL     1     -43.533  56.667 -59.490  1.00  0.00     0.052 A 
HETATM    8  C   UNL     1     -43.872  55.243 -59.255  1.00  0.00     0.072 C 
HETATM    9  N   UNL     1     -43.930  57.319 -60.622  1.00  0.00    -0.280 N 
HETATM   10  H   UNL     1     -44.471  56.957 -61.398  1.00  0.00     0.189 HD
HETATM   11  N   UNL     1     -43.532  58.593 -60.678  1.00  0.00    -0.177 NA
HETATM   12  C   UNL     1     -42.854  58.780 -59.534  1.00  0.00     0.079 A 
HETATM   13  C   UNL     1     -42.271  60.122 -59.282  1.00  0.00     0.075 C 
ENDBRANCH   3   6
ENDBRANCH   1   2
BRANCH   1  14
HETATM   14  N   UNL     1     -41.370  55.665 -55.442  1.00  0.00     0.100 N 
HETATM   15  H   UNL     1     -40.387  55.554 -55.181  1.00  0.00     0.317 HD
BRANCH  14  16
HETATM   16  C   UNL     1     -42.151  54.666 -54.685  1.00  0.00     0.251 C 
HETATM   17  C   UNL     1     -43.139  53.920 -55.598  1.00  0.00     0.048 C 
BRANCH  16  18
HETATM   18  C   UNL     1     -41.290  53.786 -53.782  1.00  0.00    -0.002 A 
HETATM   19  C   UNL     1     -40.946  54.181 -52.466  1.00  0.00     0.064 A 
HETATM   20 CL   UNL     1     -41.502  55.703 -51.832  1.00  0.00    -0.082 Cl
HETATM   21  C   UNL     1     -40.149  53.345 -51.662  1.00  0.00     0.056 A 
HETATM   22 CL   UNL     1     -39.702  53.757 -50.040  1.00  0.00    -0.083 Cl
HETATM   23  C   UNL     1     -39.682  52.125 -52.153  1.00  0.00     0.026 A 
HETATM   24  C   UNL     1     -40.000  51.731 -53.448  1.00  0.00     0.002 A 
HETATM   25  C   UNL     1     -40.791  52.553 -54.253  1.00  0.00     0.011 A 
ENDBRANCH  16  18
ENDBRANCH  14  16
ENDBRANCH   1  14
TORSDOF 5
ENDMDL
