MODEL 1
REMARK VINA RESULT:      -7.4      0.000      0.000
REMARK  7 active torsions:
REMARK  status: ('A' for Active; 'I' for Inactive)
REMARK    1  A    between atoms: O_2  and  C_3 
REMARK    2  A    between atoms: C_4  and  O_5 
REMARK    3  A    between atoms: C_6  and  C_7 
REMARK    4  A    between atoms: C_7  and  N_8 
REMARK    5  A    between atoms: C_11  and  C_12 
REMARK    6  A    between atoms: C_12  and  N_13 
REMARK    7  A    between atoms: N_13  and  C_14 
ROOT
HETATM    1  N   UNL     1     -41.858  56.558 -50.130  1.00  0.00    -0.067 N 
HETATM    2  H   UNL     1     -42.416  57.184 -49.517  1.00  0.00     0.280 HD
HETATM    3  C   UNL     1     -41.328  55.444 -49.262  1.00  0.00     0.241 C 
HETATM    4  C   UNL     1     -41.528  54.171 -50.081  1.00  0.00     0.026 C 
HETATM    5  C   UNL     1     -42.836  54.472 -50.812  1.00  0.00     0.035 C 
HETATM    6  C   UNL     1     -42.778  55.953 -51.159  1.00  0.00     0.235 C 
ENDROOT
BRANCH   1   7
HETATM    7  C   UNL     1     -40.837  57.504 -50.715  1.00  0.00     0.276 C 
BRANCH   7   8
HETATM    8  C   UNL     1     -41.434  58.634 -51.498  1.00  0.00     0.005 A 
HETATM    9  C   UNL     1     -41.251  58.719 -52.880  1.00  0.00     0.107 A 
HETATM   10  C   UNL     1     -41.743  59.795 -53.632  1.00  0.00     0.103 A 
HETATM   11  C   UNL     1     -42.480  60.788 -52.991  1.00  0.00     0.058 A 
HETATM   12  C   UNL     1     -42.691  60.704 -51.614  1.00  0.00     0.014 A 
HETATM   13  C   UNL     1     -42.164  59.648 -50.865  1.00  0.00     0.030 A 
HETATM   14 BR   UNL     1     -43.712  62.033 -50.737  1.00  0.00    -0.051 Br
BRANCH   9  15
HETATM   15  O   UNL     1     -40.577  57.701 -53.509  1.00  0.00    -0.357 OA
HETATM   16  H   UNL     1     -40.400  58.046 -54.416  1.00  0.00     0.218 HD
ENDBRANCH   9  15
BRANCH  10  17
HETATM   17  O   UNL     1     -41.446  59.745 -54.967  1.00  0.00    -0.353 OA
HETATM   18  C   UNL     1     -42.534  59.968 -55.864  1.00  0.00     0.210 C 
ENDBRANCH  10  17
ENDBRANCH   7   8
ENDBRANCH   1   7
BRANCH   4  19
HETATM   19  C   UNL     1     -40.326  53.890 -51.002  1.00  0.00     0.100 C 
BRANCH  19  20
HETATM   20  N   UNL     1     -39.833  52.513 -50.807  1.00  0.00    -0.279 NA
HETATM   21  H   UNL     1     -40.440  52.046 -50.123  1.00  0.00     0.129 HD
BRANCH  20  22
HETATM   22  C   UNL     1     -39.868  51.741 -51.975  1.00  0.00     0.079 A 
HETATM   23  N   UNL     1     -39.571  50.440 -51.848  1.00  0.00    -0.357 N 
HETATM   24  H   UNL     1     -39.345  50.116 -50.910  1.00  0.00     0.166 HD
HETATM   25  C   UNL     1     -39.567  49.578 -52.875  1.00  0.00     0.089 A 
HETATM   26  C   UNL     1     -39.884  50.026 -54.150  1.00  0.00     0.017 A 
HETATM   27  C   UNL     1     -40.214  51.366 -54.330  1.00  0.00     0.005 A 
HETATM   28  C   UNL     1     -40.217  52.229 -53.234  1.00  0.00     0.042 A 
ENDBRANCH  20  22
ENDBRANCH  19  20
ENDBRANCH   4  19
TORSDOF 7
ENDMDL
MODEL 2
REMARK VINA RESULT:      -7.3      4.791      7.312
REMARK  7 active torsions:
REMARK  status: ('A' for Active; 'I' for Inactive)
REMARK    1  A    between atoms: O_2  and  C_3 
REMARK    2  A    between atoms: C_4  and  O_5 
REMARK    3  A    between atoms: C_6  and  C_7 
REMARK    4  A    between atoms: C_7  and  N_8 
REMARK    5  A    between atoms: C_11  and  C_12 
REMARK    6  A    between atoms: C_12  and  N_13 
REMARK    7  A    between atoms: N_13  and  C_14 
ROOT
HETATM    1  N   UNL     1     -42.979  56.935 -53.110  1.00  0.00    -0.067 N 
HETATM    2  H   UNL     1     -43.431  56.693 -52.206  1.00  0.00     0.280 HD
HETATM    3  C   UNL     1     -43.608  56.064 -54.169  1.00  0.00     0.241 C 
HETATM    4  C   UNL     1     -43.853  56.993 -55.356  1.00  0.00     0.026 C 
HETATM    5  C   UNL     1     -44.203  58.306 -54.658  1.00  0.00     0.035 C 
HETATM    6  C   UNL     1     -43.300  58.372 -53.434  1.00  0.00     0.235 C 
ENDROOT
BRANCH   1   7
HETATM    7  C   UNL     1     -41.518  56.695 -52.816  1.00  0.00     0.276 C 
BRANCH   7   8
HETATM    8  C   UNL     1     -41.240  55.382 -52.147  1.00  0.00     0.005 A 
HETATM    9  C   UNL     1     -41.473  55.215 -50.781  1.00  0.00     0.107 A 
HETATM   10  C   UNL     1     -41.165  54.021 -50.113  1.00  0.00     0.103 A 
HETATM   11  C   UNL     1     -40.657  52.949 -50.843  1.00  0.00     0.058 A 
HETATM   12  C   UNL     1     -40.441  53.095 -52.214  1.00  0.00     0.014 A 
HETATM   13  C   UNL     1     -40.713  54.301 -52.865  1.00  0.00     0.030 A 
HETATM   14 BR   UNL     1     -39.774  51.638 -53.220  1.00  0.00    -0.051 Br
BRANCH   9  15
HETATM   15  O   UNL     1     -42.035  56.257 -50.085  1.00  0.00    -0.357 OA
HETATM   16  H   UNL     1     -41.278  56.672 -49.608  1.00  0.00     0.218 HD
ENDBRANCH   9  15
BRANCH  10  17
HETATM   17  O   UNL     1     -41.421  54.033 -48.768  1.00  0.00    -0.353 OA
HETATM   18  C   UNL     1     -40.281  53.998 -47.909  1.00  0.00     0.210 C 
ENDBRANCH  10  17
ENDBRANCH   7   8
ENDBRANCH   1   7
BRANCH   4  19
HETATM   19  C   UNL     1     -42.627  57.066 -56.285  1.00  0.00     0.100 C 
BRANCH  19  20
HETATM   20  N   UNL     1     -42.491  55.818 -57.062  1.00  0.00    -0.279 NA
HETATM   21  H   UNL     1     -42.895  55.050 -56.513  1.00  0.00     0.129 HD
BRANCH  20  22
HETATM   22  C   UNL     1     -43.175  55.848 -58.283  1.00  0.00     0.079 A 
HETATM   23  N   UNL     1     -43.947  54.789 -58.569  1.00  0.00    -0.357 N 
HETATM   24  H   UNL     1     -43.974  54.047 -57.873  1.00  0.00     0.166 HD
HETATM   25  C   UNL     1     -44.663  54.679 -59.697  1.00  0.00     0.089 A 
HETATM   26  C   UNL     1     -44.626  55.699 -60.638  1.00  0.00     0.017 A 
HETATM   27  C   UNL     1     -43.852  56.825 -60.380  1.00  0.00     0.005 A 
HETATM   28  C   UNL     1     -43.129  56.907 -59.190  1.00  0.00     0.042 A 
ENDBRANCH  20  22
ENDBRANCH  19  20
ENDBRANCH   4  19
TORSDOF 7
ENDMDL
MODEL 3
REMARK VINA RESULT:      -7.2      4.429      5.535
REMARK  7 active torsions:
REMARK  status: ('A' for Active; 'I' for Inactive)
REMARK    1  A    between atoms: O_2  and  C_3 
REMARK    2  A    between atoms: C_4  and  O_5 
REMARK    3  A    between atoms: C_6  and  C_7 
REMARK    4  A    between atoms: C_7  and  N_8 
REMARK    5  A    between atoms: C_11  and  C_12 
REMARK    6  A    between atoms: C_12  and  N_13 
REMARK    7  A    between atoms: N_13  and  C_14 
ROOT
HETATM    1  N   UNL     1     -42.642  56.426 -55.159  1.00  0.00    -0.067 N 
HETATM    2  H   UNL     1     -42.620  57.365 -55.605  1.00  0.00     0.280 HD
HETATM    3  C   UNL     1     -41.432  56.331 -54.264  1.00  0.00     0.241 C 
HETATM    4  C   UNL     1     -41.939  55.691 -52.974  1.00  0.00     0.026 C 
HETATM    5  C   UNL     1     -43.346  56.275 -52.867  1.00  0.00     0.035 C 
HETATM    6  C   UNL     1     -43.874  56.337 -54.294  1.00  0.00     0.235 C 
ENDROOT
BRANCH   1   7
HETATM    7  C   UNL     1     -42.675  55.502 -56.353  1.00  0.00     0.276 C 
BRANCH   7   8
HETATM    8  C   UNL     1     -42.917  56.201 -57.657  1.00  0.00     0.005 A 
HETATM    9  C   UNL     1     -43.572  55.549 -58.704  1.00  0.00     0.107 A 
HETATM   10  C   UNL     1     -43.758  56.151 -59.956  1.00  0.00     0.103 A 
HETATM   11  C   UNL     1     -43.322  57.460 -60.149  1.00  0.00     0.058 A 
HETATM   12  C   UNL     1     -42.688  58.133 -59.102  1.00  0.00     0.014 A 
HETATM   13  C   UNL     1     -42.471  57.511 -57.870  1.00  0.00     0.030 A 
HETATM   14 BR   UNL     1     -42.115  59.918 -59.345  1.00  0.00    -0.051 Br
BRANCH   9  15
HETATM   15  O   UNL     1     -44.053  54.282 -58.481  1.00  0.00    -0.357 OA
HETATM   16  H   UNL     1     -43.571  53.717 -59.129  1.00  0.00     0.218 HD
ENDBRANCH   9  15
BRANCH  10  17
HETATM   17  O   UNL     1     -44.384  55.364 -60.884  1.00  0.00    -0.353 OA
HETATM   18  C   UNL     1     -45.777  55.607 -61.080  1.00  0.00     0.210 C 
ENDBRANCH  10  17
ENDBRANCH   7   8
ENDBRANCH   1   7
BRANCH   4  19
HETATM   19  C   UNL     1     -41.886  54.153 -53.042  1.00  0.00     0.100 C 
BRANCH  19  20
HETATM   20  N   UNL     1     -40.722  53.709 -53.835  1.00  0.00    -0.279 NA
HETATM   21  H   UNL     1     -39.921  54.306 -53.595  1.00  0.00     0.129 HD
BRANCH  20  22
HETATM   22  C   UNL     1     -40.339  52.389 -53.564  1.00  0.00     0.079 A 
HETATM   23  N   UNL     1     -39.888  52.133 -52.328  1.00  0.00    -0.357 N 
HETATM   24  H   UNL     1     -39.861  52.920 -51.682  1.00  0.00     0.166 HD
HETATM   25  C   UNL     1     -39.489  50.919 -51.923  1.00  0.00     0.089 A 
HETATM   26  C   UNL     1     -39.536  49.849 -52.806  1.00  0.00     0.017 A 
HETATM   27  C   UNL     1     -40.011  50.062 -54.096  1.00  0.00     0.005 A 
HETATM   28  C   UNL     1     -40.426  51.338 -54.477  1.00  0.00     0.042 A 
ENDBRANCH  20  22
ENDBRANCH  19  20
ENDBRANCH   4  19
TORSDOF 7
ENDMDL
MODEL 4
REMARK VINA RESULT:      -7.1      3.832      7.771
REMARK  7 active torsions:
REMARK  status: ('A' for Active; 'I' for Inactive)
REMARK    1  A    between atoms: O_2  and  C_3 
REMARK    2  A    between atoms: C_4  and  O_5 
REMARK    3  A    between atoms: C_6  and  C_7 
REMARK    4  A    between atoms: C_7  and  N_8 
REMARK    5  A    between atoms: C_11  and  C_12 
REMARK    6  A    between atoms: C_12  and  N_13 
REMARK    7  A    between atoms: N_13  and  C_14 
ROOT
HETATM    1  N   UNL     1     -41.987  55.244 -55.384  1.00  0.00    -0.067 N 
HETATM    2  H   UNL     1     -41.218  54.672 -55.786  1.00  0.00     0.280 HD
HETATM    3  C   UNL     1     -41.364  56.509 -54.849  1.00  0.00     0.241 C 
HETATM    4  C   UNL     1     -42.302  57.632 -55.287  1.00  0.00     0.026 C 
HETATM    5  C   UNL     1     -42.778  57.129 -56.649  1.00  0.00     0.035 C 
HETATM    6  C   UNL     1     -42.933  55.621 -56.496  1.00  0.00     0.235 C 
ENDROOT
BRANCH   1   7
HETATM    7  C   UNL     1     -42.593  54.306 -54.369  1.00  0.00     0.276 C 
BRANCH   7   8
HETATM    8  C   UNL     1     -41.589  53.454 -53.652  1.00  0.00     0.005 A 
HETATM    9  C   UNL     1     -41.113  53.821 -52.391  1.00  0.00     0.107 A 
HETATM   10  C   UNL     1     -40.128  53.081 -51.722  1.00  0.00     0.103 A 
HETATM   11  C   UNL     1     -39.643  51.914 -52.308  1.00  0.00     0.058 A 
HETATM   12  C   UNL     1     -40.128  51.522 -53.557  1.00  0.00     0.014 A 
HETATM   13  C   UNL     1     -41.080  52.287 -54.236  1.00  0.00     0.030 A 
HETATM   14 BR   UNL     1     -39.494  49.927 -54.351  1.00  0.00    -0.051 Br
BRANCH   9  15
HETATM   15  O   UNL     1     -41.645  54.939 -51.796  1.00  0.00    -0.357 OA
HETATM   16  H   UNL     1     -41.076  55.093 -51.006  1.00  0.00     0.218 HD
ENDBRANCH   9  15
BRANCH  10  17
HETATM   17  O   UNL     1     -39.746  53.596 -50.513  1.00  0.00    -0.353 OA
HETATM   18  C   UNL     1     -40.427  53.087 -49.366  1.00  0.00     0.210 C 
ENDBRANCH  10  17
ENDBRANCH   7   8
ENDBRANCH   1   7
BRANCH   4  19
HETATM   19  C   UNL     1     -43.426  57.869 -54.261  1.00  0.00     0.100 C 
BRANCH  19  20
HETATM   20  N   UNL     1     -43.053  57.312 -52.945  1.00  0.00    -0.279 NA
HETATM   21  H   UNL     1     -42.325  56.602 -53.090  1.00  0.00     0.129 HD
BRANCH  20  22
HETATM   22  C   UNL     1     -42.520  58.267 -52.071  1.00  0.00     0.079 A 
HETATM   23  N   UNL     1     -41.366  57.954 -51.464  1.00  0.00    -0.357 N 
HETATM   24  H   UNL     1     -40.967  57.044 -51.690  1.00  0.00     0.166 HD
HETATM   25  C   UNL     1     -40.737  58.767 -50.605  1.00  0.00     0.089 A 
HETATM   26  C   UNL     1     -41.282  60.009 -50.308  1.00  0.00     0.017 A 
HETATM   27  C   UNL     1     -42.471  60.386 -50.924  1.00  0.00     0.005 A 
HETATM   28  C   UNL     1     -43.091  59.515 -51.820  1.00  0.00     0.042 A 
ENDBRANCH  20  22
ENDBRANCH  19  20
ENDBRANCH   4  19
TORSDOF 7
ENDMDL
MODEL 5
REMARK VINA RESULT:      -7.0      3.477      5.389
REMARK  7 active torsions:
REMARK  status: ('A' for Active; 'I' for Inactive)
REMARK    1  A    between atoms: O_2  and  C_3 
REMARK    2  A    between atoms: C_4  and  O_5 
REMARK    3  A    between atoms: C_6  and  C_7 
REMARK    4  A    between atoms: C_7  and  N_8 
REMARK    5  A    between atoms: C_11  and  C_12 
REMARK    6  A    between atoms: C_12  and  N_13 
REMARK    7  A    between atoms: N_13  and  C_14 
ROOT
HETATM    1  N   UNL     1     -40.619  54.380 -52.633  1.00  0.00    -0.067 N 
HETATM    2  H   UNL     1     -39.751  54.650 -52.128  1.00  0.00     0.280 HD
HETATM    3  C   UNL     1     -40.643  55.161 -53.923  1.00  0.00     0.241 C 
HETATM    4  C   UNL     1     -41.080  54.159 -54.989  1.00  0.00     0.026 C 
HETATM    5  C   UNL     1     -40.425  52.871 -54.493  1.00  0.00     0.035 C 
HETATM    6  C   UNL     1     -40.535  52.914 -52.975  1.00  0.00     0.235 C 
ENDROOT
BRANCH   1   7
HETATM    7  C   UNL     1     -41.694  54.703 -51.624  1.00  0.00     0.276 C 
BRANCH   7   8
HETATM    8  C   UNL     1     -41.979  56.169 -51.488  1.00  0.00     0.005 A 
HETATM    9  C   UNL     1     -43.228  56.687 -51.837  1.00  0.00     0.107 A 
HETATM   10  C   UNL     1     -43.507  58.060 -51.781  1.00  0.00     0.103 A 
HETATM   11  C   UNL     1     -42.525  58.931 -51.314  1.00  0.00     0.058 A 
HETATM   12  C   UNL     1     -41.281  58.424 -50.938  1.00  0.00     0.014 A 
HETATM   13  C   UNL     1     -40.998  57.059 -51.035  1.00  0.00     0.030 A 
HETATM   14 BR   UNL     1     -39.949  59.594 -50.278  1.00  0.00    -0.051 Br
BRANCH   9  15
HETATM   15  O   UNL     1     -44.207  55.811 -52.236  1.00  0.00    -0.357 OA
HETATM   16  H   UNL     1     -43.874  55.437 -53.085  1.00  0.00     0.218 HD
ENDBRANCH   9  15
BRANCH  10  17
HETATM   17  O   UNL     1     -44.765  58.407 -52.193  1.00  0.00    -0.353 OA
HETATM   18  C   UNL     1     -45.585  59.067 -51.228  1.00  0.00     0.210 C 
ENDBRANCH  10  17
ENDBRANCH   7   8
ENDBRANCH   1   7
BRANCH   4  19
HETATM   19  C   UNL     1     -42.614  54.093 -55.115  1.00  0.00     0.100 C 
BRANCH  19  20
HETATM   20  N   UNL     1     -43.183  55.450 -55.233  1.00  0.00    -0.279 NA
HETATM   21  H   UNL     1     -42.688  56.066 -54.577  1.00  0.00     0.129 HD
BRANCH  20  22
HETATM   22  C   UNL     1     -43.027  56.006 -56.509  1.00  0.00     0.079 A 
HETATM   23  N   UNL     1     -43.466  55.275 -57.544  1.00  0.00    -0.357 N 
HETATM   24  H   UNL     1     -43.880  54.373 -57.318  1.00  0.00     0.166 HD
HETATM   25  C   UNL     1     -43.387  55.677 -58.820  1.00  0.00     0.089 A 
HETATM   26  C   UNL     1     -42.828  56.912 -59.119  1.00  0.00     0.017 A 
HETATM   27  C   UNL     1     -42.372  57.714 -58.078  1.00  0.00     0.005 A 
HETATM   28  C   UNL     1     -42.481  57.265 -56.762  1.00  0.00     0.042 A 
ENDBRANCH  20  22
ENDBRANCH  19  20
ENDBRANCH   4  19
TORSDOF 7
ENDMDL
MODEL 6
REMARK VINA RESULT:      -7.0      4.247      8.018
REMARK  7 active torsions:
REMARK  status: ('A' for Active; 'I' for Inactive)
REMARK    1  A    between atoms: O_2  and  C_3 
REMARK    2  A    between atoms: C_4  and  O_5 
REMARK    3  A    between atoms: C_6  and  C_7 
REMARK    4  A    between atoms: C_7  and  N_8 
REMARK    5  A    between atoms: C_11  and  C_12 
REMARK    6  A    between atoms: C_12  and  N_13 
REMARK    7  A    between atoms: N_13  and  C_14 
ROOT
HETATM    1  N   UNL     1     -42.211  55.254 -56.125  1.00  0.00    -0.067 N 
HETATM    2  H   UNL     1     -41.280  54.816 -56.270  1.00  0.00     0.280 HD
HETATM    3  C   UNL     1     -41.969  56.658 -55.629  1.00  0.00     0.241 C 
HETATM    4  C   UNL     1     -42.954  57.530 -56.403  1.00  0.00     0.026 C 
HETATM    5  C   UNL     1     -42.988  56.832 -57.762  1.00  0.00     0.035 C 
HETATM    6  C   UNL     1     -42.909  55.342 -57.459  1.00  0.00     0.235 C 
ENDROOT
BRANCH   1   7
HETATM    7  C   UNL     1     -42.871  54.299 -55.160  1.00  0.00     0.276 C 
BRANCH   7   8
HETATM    8  C   UNL     1     -41.917  53.629 -54.219  1.00  0.00     0.005 A 
HETATM    9  C   UNL     1     -41.628  54.194 -52.975  1.00  0.00     0.107 A 
HETATM   10  C   UNL     1     -40.693  53.626 -52.097  1.00  0.00     0.103 A 
HETATM   11  C   UNL     1     -40.070  52.432 -52.453  1.00  0.00     0.058 A 
HETATM   12  C   UNL     1     -40.368  51.843 -53.683  1.00  0.00     0.014 A 
HETATM   13  C   UNL     1     -41.270  52.437 -54.569  1.00  0.00     0.030 A 
HETATM   14 BR   UNL     1     -39.546  50.209 -54.165  1.00  0.00    -0.051 Br
BRANCH   9  15
HETATM   15  O   UNL     1     -42.296  55.337 -52.609  1.00  0.00    -0.357 OA
HETATM   16  H   UNL     1     -42.119  55.428 -51.643  1.00  0.00     0.218 HD
ENDBRANCH   9  15
BRANCH  10  17
HETATM   17  O   UNL     1     -40.498  54.324 -50.936  1.00  0.00    -0.353 OA
HETATM   18  C   UNL     1     -40.233  53.546 -49.769  1.00  0.00     0.210 C 
ENDBRANCH  10  17
ENDBRANCH   7   8
ENDBRANCH   1   7
BRANCH   4  19
HETATM   19  C   UNL     1     -44.317  57.620 -55.692  1.00  0.00     0.100 C 
BRANCH  19  20
HETATM   20  N   UNL     1     -44.251  56.986 -54.361  1.00  0.00    -0.279 NA
HETATM   21  H   UNL     1     -43.269  56.763 -54.158  1.00  0.00     0.129 HD
BRANCH  20  22
HETATM   22  C   UNL     1     -44.699  57.820 -53.328  1.00  0.00     0.079 A 
HETATM   23  N   UNL     1     -44.740  57.288 -52.098  1.00  0.00    -0.357 N 
HETATM   24  H   UNL     1     -44.440  56.319 -52.012  1.00  0.00     0.166 HD
HETATM   25  C   UNL     1     -45.143  57.964 -51.013  1.00  0.00     0.089 A 
HETATM   26  C   UNL     1     -45.544  59.288 -51.136  1.00  0.00     0.017 A 
HETATM   27  C   UNL     1     -45.505  59.889 -52.390  1.00  0.00     0.005 A 
HETATM   28  C   UNL     1     -45.069  59.155 -53.494  1.00  0.00     0.042 A 
ENDBRANCH  20  22
ENDBRANCH  19  20
ENDBRANCH   4  19
TORSDOF 7
ENDMDL
MODEL 7
REMARK VINA RESULT:      -7.0      2.657      3.181
REMARK  7 active torsions:
REMARK  status: ('A' for Active; 'I' for Inactive)
REMARK    1  A    between atoms: O_2  and  C_3 
REMARK    2  A    between atoms: C_4  and  O_5 
REMARK    3  A    between atoms: C_6  and  C_7 
REMARK    4  A    between atoms: C_7  and  N_8 
REMARK    5  A    between atoms: C_11  and  C_12 
REMARK    6  A    between atoms: C_12  and  N_13 
REMARK    7  A    between atoms: N_13  and  C_14 
ROOT
HETATM    1  N   UNL     1     -42.656  56.089 -50.668  1.00  0.00    -0.067 N 
HETATM    2  H   UNL     1     -43.110  56.899 -50.201  1.00  0.00     0.280 HD
HETATM    3  C   UNL     1     -41.176  56.375 -50.711  1.00  0.00     0.241 C 
HETATM    4  C   UNL     1     -40.505  55.059 -50.322  1.00  0.00     0.026 C 
HETATM    5  C   UNL     1     -41.490  54.497 -49.299  1.00  0.00     0.035 C 
HETATM    6  C   UNL     1     -42.873  54.863 -49.818  1.00  0.00     0.235 C 
ENDROOT
BRANCH   1   7
HETATM    7  C   UNL     1     -43.374  56.038 -51.995  1.00  0.00     0.276 C 
BRANCH   7   8
HETATM    8  C   UNL     1     -44.006  57.337 -52.396  1.00  0.00     0.005 A 
HETATM    9  C   UNL     1     -44.851  58.020 -51.518  1.00  0.00     0.107 A 
HETATM   10  C   UNL     1     -45.506  59.204 -51.885  1.00  0.00     0.103 A 
HETATM   11  C   UNL     1     -45.270  59.745 -53.146  1.00  0.00     0.058 A 
HETATM   12  C   UNL     1     -44.409  59.086 -54.025  1.00  0.00     0.014 A 
HETATM   13  C   UNL     1     -43.791  57.886 -53.667  1.00  0.00     0.030 A 
HETATM   14 BR   UNL     1     -44.062  59.826 -55.731  1.00  0.00    -0.051 Br
BRANCH   9  15
HETATM   15  O   UNL     1     -45.025  57.509 -50.255  1.00  0.00    -0.357 OA
HETATM   16  H   UNL     1     -44.672  56.590 -50.309  1.00  0.00     0.218 HD
ENDBRANCH   9  15
BRANCH  10  17
HETATM   17  O   UNL     1     -46.327  59.726 -50.922  1.00  0.00    -0.353 OA
HETATM   18  C   UNL     1     -46.016  61.047 -50.478  1.00  0.00     0.210 C 
ENDBRANCH  10  17
ENDBRANCH   7   8
ENDBRANCH   1   7
BRANCH   4  19
HETATM   19  C   UNL     1     -40.265  54.157 -51.547  1.00  0.00     0.100 C 
BRANCH  19  20
HETATM   20  N   UNL     1     -39.824  52.814 -51.124  1.00  0.00    -0.279 NA
HETATM   21  H   UNL     1     -40.467  52.477 -50.397  1.00  0.00     0.129 HD
BRANCH  20  22
HETATM   22  C   UNL     1     -39.852  51.871 -52.159  1.00  0.00     0.079 A 
HETATM   23  N   UNL     1     -39.555  50.605 -51.831  1.00  0.00    -0.357 N 
HETATM   24  H   UNL     1     -39.336  50.430 -50.852  1.00  0.00     0.166 HD
HETATM   25  C   UNL     1     -39.544  49.595 -52.712  1.00  0.00     0.089 A 
HETATM   26  C   UNL     1     -39.852  49.840 -54.043  1.00  0.00     0.017 A 
HETATM   27  C   UNL     1     -40.181  51.135 -54.430  1.00  0.00     0.005 A 
HETATM   28  C   UNL     1     -40.192  52.157 -53.481  1.00  0.00     0.042 A 
ENDBRANCH  20  22
ENDBRANCH  19  20
ENDBRANCH   4  19
TORSDOF 7
ENDMDL
MODEL 8
REMARK VINA RESULT:      -7.0      2.471      2.992
REMARK  7 active torsions:
REMARK  status: ('A' for Active; 'I' for Inactive)
REMARK    1  A    between atoms: O_2  and  C_3 
REMARK    2  A    between atoms: C_4  and  O_5 
REMARK    3  A    between atoms: C_6  and  C_7 
REMARK    4  A    between atoms: C_7  and  N_8 
REMARK    5  A    between atoms: C_11  and  C_12 
REMARK    6  A    between atoms: C_12  and  N_13 
REMARK    7  A    between atoms: N_13  and  C_14 
ROOT
HETATM    1  N   UNL     1     -41.428  55.872 -51.702  1.00  0.00    -0.067 N 
HETATM    2  H   UNL     1     -41.363  56.909 -51.731  1.00  0.00     0.280 HD
HETATM    3  C   UNL     1     -40.574  55.407 -50.549  1.00  0.00     0.241 C 
HETATM    4  C   UNL     1     -41.403  54.334 -49.847  1.00  0.00     0.026 C 
HETATM    5  C   UNL     1     -42.822  54.871 -50.020  1.00  0.00     0.035 C 
HETATM    6  C   UNL     1     -42.857  55.492 -51.410  1.00  0.00     0.235 C 
ENDROOT
BRANCH   1   7
HETATM    7  C   UNL     1     -40.969  55.480 -53.085  1.00  0.00     0.276 C 
BRANCH   7   8
HETATM    8  C   UNL     1     -41.444  56.401 -54.168  1.00  0.00     0.005 A 
HETATM    9  C   UNL     1     -41.306  57.785 -54.038  1.00  0.00     0.107 A 
HETATM   10  C   UNL     1     -41.796  58.676 -55.004  1.00  0.00     0.103 A 
HETATM   11  C   UNL     1     -42.396  58.166 -56.153  1.00  0.00     0.058 A 
HETATM   12  C   UNL     1     -42.518  56.785 -56.307  1.00  0.00     0.014 A 
HETATM   13  C   UNL     1     -42.063  55.904 -55.322  1.00  0.00     0.030 A 
HETATM   14 BR   UNL     1     -43.308  56.081 -57.875  1.00  0.00    -0.051 Br
BRANCH   9  15
HETATM   15  O   UNL     1     -40.657  58.272 -52.931  1.00  0.00    -0.357 OA
HETATM   16  H   UNL     1     -41.037  57.763 -52.177  1.00  0.00     0.218 HD
ENDBRANCH   9  15
BRANCH  10  17
HETATM   17  O   UNL     1     -41.613  60.000 -54.708  1.00  0.00    -0.353 OA
HETATM   18  C   UNL     1     -42.795  60.761 -54.461  1.00  0.00     0.210 C 
ENDBRANCH  10  17
ENDBRANCH   7   8
ENDBRANCH   1   7
BRANCH   4  19
HETATM   19  C   UNL     1     -41.164  52.940 -50.456  1.00  0.00     0.100 C 
BRANCH  19  20
HETATM   20  N   UNL     1     -39.875  52.902 -51.176  1.00  0.00    -0.279 NA
HETATM   21  H   UNL     1     -39.132  52.695 -50.497  1.00  0.00     0.129 HD
BRANCH  20  22
HETATM   22  C   UNL     1     -39.818  51.904 -52.157  1.00  0.00     0.079 A 
HETATM   23  N   UNL     1     -39.567  50.656 -51.735  1.00  0.00    -0.357 N 
HETATM   24  H   UNL     1     -39.441  50.534 -50.732  1.00  0.00     0.166 HD
HETATM   25  C   UNL     1     -39.487  49.600 -52.556  1.00  0.00     0.089 A 
HETATM   26  C   UNL     1     -39.669  49.774 -53.921  1.00  0.00     0.017 A 
HETATM   27  C   UNL     1     -39.946  51.048 -54.406  1.00  0.00     0.005 A 
HETATM   28  C   UNL     1     -40.032  52.120 -53.518  1.00  0.00     0.042 A 
ENDBRANCH  20  22
ENDBRANCH  19  20
ENDBRANCH   4  19
TORSDOF 7
ENDMDL
MODEL 9
REMARK VINA RESULT:      -6.9      2.587      3.552
REMARK  7 active torsions:
REMARK  status: ('A' for Active; 'I' for Inactive)
REMARK    1  A    between atoms: O_2  and  C_3 
REMARK    2  A    between atoms: C_4  and  O_5 
REMARK    3  A    between atoms: C_6  and  C_7 
REMARK    4  A    between atoms: C_7  and  N_8 
REMARK    5  A    between atoms: C_11  and  C_12 
REMARK    6  A    between atoms: C_12  and  N_13 
REMARK    7  A    between atoms: N_13  and  C_14 
ROOT
HETATM    1  N   UNL     1     -42.872  55.857 -53.281  1.00  0.00    -0.067 N 
HETATM    2  H   UNL     1     -43.835  56.244 -53.237  1.00  0.00     0.280 HD
HETATM    3  C   UNL     1     -42.980  54.457 -53.830  1.00  0.00     0.241 C 
HETATM    4  C   UNL     1     -41.843  54.336 -54.842  1.00  0.00     0.026 C 
HETATM    5  C   UNL     1     -41.792  55.747 -55.425  1.00  0.00     0.035 C 
HETATM    6  C   UNL     1     -42.071  56.682 -54.256  1.00  0.00     0.235 C 
ENDROOT
BRANCH   1   7
HETATM    7  C   UNL     1     -42.404  55.990 -51.852  1.00  0.00     0.276 C 
BRANCH   7   8
HETATM    8  C   UNL     1     -42.142  57.403 -51.426  1.00  0.00     0.005 A 
HETATM    9  C   UNL     1     -43.184  58.331 -51.358  1.00  0.00     0.107 A 
HETATM   10  C   UNL     1     -42.963  59.675 -51.024  1.00  0.00     0.103 A 
HETATM   11  C   UNL     1     -41.673  60.089 -50.700  1.00  0.00     0.058 A 
HETATM   12  C   UNL     1     -40.627  59.166 -50.740  1.00  0.00     0.014 A 
HETATM   13  C   UNL     1     -40.848  57.838 -51.113  1.00  0.00     0.030 A 
HETATM   14 BR   UNL     1     -38.876  59.712 -50.278  1.00  0.00    -0.051 Br
BRANCH   9  15
HETATM   15  O   UNL     1     -44.460  57.896 -51.617  1.00  0.00    -0.357 OA
HETATM   16  H   UNL     1     -44.734  57.428 -50.794  1.00  0.00     0.218 HD
ENDBRANCH   9  15
BRANCH  10  17
HETATM   17  O   UNL     1     -44.084  60.461 -51.038  1.00  0.00    -0.353 OA
HETATM   18  C   UNL     1     -44.384  61.153 -49.827  1.00  0.00     0.210 C 
ENDBRANCH  10  17
ENDBRANCH   7   8
ENDBRANCH   1   7
BRANCH   4  19
HETATM   19  C   UNL     1     -40.535  53.867 -54.177  1.00  0.00     0.100 C 
BRANCH  19  20
HETATM   20  N   UNL     1     -40.178  52.510 -54.634  1.00  0.00    -0.279 NA
HETATM   21  H   UNL     1     -39.301  52.568 -55.165  1.00  0.00     0.129 HD
BRANCH  20  22
HETATM   22  C   UNL     1     -39.957  51.612 -53.583  1.00  0.00     0.079 A 
HETATM   23  N   UNL     1     -39.906  52.131 -52.347  1.00  0.00    -0.357 N 
HETATM   24  H   UNL     1     -40.034  53.138 -52.272  1.00  0.00     0.166 HD
HETATM   25  C   UNL     1     -39.705  51.396 -51.244  1.00  0.00     0.089 A 
HETATM   26  C   UNL     1     -39.538  50.022 -51.353  1.00  0.00     0.017 A 
HETATM   27  C   UNL     1     -39.599  49.435 -52.613  1.00  0.00     0.005 A 
HETATM   28  C   UNL     1     -39.820  50.232 -53.735  1.00  0.00     0.042 A 
ENDBRANCH  20  22
ENDBRANCH  19  20
ENDBRANCH   4  19
TORSDOF 7
ENDMDL
MODEL 10
REMARK VINA RESULT:      -6.9      4.747      7.688
REMARK  7 active torsions:
REMARK  status: ('A' for Active; 'I' for Inactive)
REMARK    1  A    between atoms: O_2  and  C_3 
REMARK    2  A    between atoms: C_4  and  O_5 
REMARK    3  A    between atoms: C_6  and  C_7 
REMARK    4  A    between atoms: C_7  and  N_8 
REMARK    5  A    between atoms: C_11  and  C_12 
REMARK    6  A    between atoms: C_12  and  N_13 
REMARK    7  A    between atoms: N_13  and  C_14 
ROOT
HETATM    1  N   UNL     1     -42.233  56.167 -53.815  1.00  0.00    -0.067 N 
HETATM    2  H   UNL     1     -42.471  56.090 -52.806  1.00  0.00     0.280 HD
HETATM    3  C   UNL     1     -43.497  56.553 -54.541  1.00  0.00     0.241 C 
HETATM    4  C   UNL     1     -43.073  57.631 -55.535  1.00  0.00     0.026 C 
HETATM    5  C   UNL     1     -41.982  58.363 -54.756  1.00  0.00     0.035 C 
HETATM    6  C   UNL     1     -41.234  57.283 -53.985  1.00  0.00     0.235 C 
ENDROOT
BRANCH   1   7
HETATM    7  C   UNL     1     -41.668  54.800 -54.119  1.00  0.00     0.276 C 
BRANCH   7   8
HETATM    8  C   UNL     1     -41.102  54.096 -52.923  1.00  0.00     0.005 A 
HETATM    9  C   UNL     1     -40.416  52.888 -53.066  1.00  0.00     0.107 A 
HETATM   10  C   UNL     1     -39.930  52.172 -51.962  1.00  0.00     0.103 A 
HETATM   11  C   UNL     1     -40.090  52.706 -50.686  1.00  0.00     0.058 A 
HETATM   12  C   UNL     1     -40.753  53.925 -50.530  1.00  0.00     0.014 A 
HETATM   13  C   UNL     1     -41.270  54.612 -51.631  1.00  0.00     0.030 A 
HETATM   14 BR   UNL     1     -40.955  54.670 -48.804  1.00  0.00    -0.051 Br
BRANCH   9  15
HETATM   15  O   UNL     1     -40.209  52.405 -54.334  1.00  0.00    -0.357 OA
HETATM   16  H   UNL     1     -41.046  51.935 -54.560  1.00  0.00     0.218 HD
ENDBRANCH   9  15
BRANCH  10  17
HETATM   17  O   UNL     1     -39.313  50.990 -52.272  1.00  0.00    -0.353 OA
HETATM   18  C   UNL     1     -39.503  49.919 -51.347  1.00  0.00     0.210 C 
ENDBRANCH  10  17
ENDBRANCH   7   8
ENDBRANCH   1   7
BRANCH   4  19
HETATM   19  C   UNL     1     -42.609  57.022 -56.872  1.00  0.00     0.100 C 
BRANCH  19  20
HETATM   20  N   UNL     1     -43.318  55.755 -57.138  1.00  0.00    -0.279 NA
HETATM   21  H   UNL     1     -43.988  55.594 -56.377  1.00  0.00     0.129 HD
BRANCH  20  22
HETATM   22  C   UNL     1     -44.053  55.772 -58.330  1.00  0.00     0.079 A 
HETATM   23  N   UNL     1     -44.981  56.732 -58.453  1.00  0.00    -0.357 N 
HETATM   24  H   UNL     1     -45.076  57.374 -57.669  1.00  0.00     0.166 HD
HETATM   25  C   UNL     1     -45.758  56.876 -59.536  1.00  0.00     0.089 A 
HETATM   26  C   UNL     1     -45.618  56.001 -60.605  1.00  0.00     0.017 A 
HETATM   27  C   UNL     1     -44.657  54.997 -60.531  1.00  0.00     0.005 A 
HETATM   28  C   UNL     1     -43.861  54.887 -59.391  1.00  0.00     0.042 A 
ENDBRANCH  20  22
ENDBRANCH  19  20
ENDBRANCH   4  19
TORSDOF 7
ENDMDL
