MODEL 1
REMARK VINA RESULT:      -7.6      0.000      0.000
REMARK  7 active torsions:
REMARK  status: ('A' for Active; 'I' for Inactive)
REMARK    1  A    between atoms: C_2  and  N_3 
REMARK    2  A    between atoms: N_3  and  C_4 
REMARK    3  A    between atoms: C_6  and  N_7 
REMARK    4  A    between atoms: N_7  and  C_8 
REMARK    5  A    between atoms: C_8  and  C_9 
REMARK    6  A    between atoms: C_9  and  C_10 
REMARK    7  A    between atoms: C_13  and  O_14 
ROOT
HETATM    1  C   UNL     1     -42.337  54.022 -51.456  1.00  0.00     0.119 A 
HETATM    2  N   UNL     1     -43.320  54.688 -52.090  1.00  0.00    -0.207 NA
HETATM    3  C   UNL     1     -43.356  54.652 -53.431  1.00  0.00     0.181 A 
HETATM    4  N   UNL     1     -42.482  53.951 -54.148  1.00  0.00    -0.330 N 
HETATM    5  H   UNL     1     -42.623  53.924 -55.149  1.00  0.00     0.168 HD
HETATM    6  C   UNL     1     -41.497  53.256 -53.571  1.00  0.00     0.048 A 
HETATM    7  C   UNL     1     -41.382  53.265 -52.168  1.00  0.00     0.031 A 
HETATM    8  C   UNL     1     -40.598  52.524 -54.362  1.00  0.00     0.030 A 
HETATM    9  C   UNL     1     -39.575  51.790 -53.763  1.00  0.00     0.002 A 
HETATM   10  C   UNL     1     -39.448  51.779 -52.378  1.00  0.00     0.001 A 
HETATM   11  C   UNL     1     -40.342  52.503 -51.586  1.00  0.00     0.017 A 
ENDROOT
BRANCH   3  12
HETATM   12  N   UNL     1     -44.330  55.334 -54.152  1.00  0.00    -0.262 NA
HETATM   13  H   UNL     1     -44.798  54.757 -54.843  1.00  0.00     0.130 HD
BRANCH  12  14
HETATM   14  C   UNL     1     -43.890  56.616 -54.727  1.00  0.00     0.100 C 
BRANCH  14  15
HETATM   15  C   UNL     1     -44.071  57.733 -53.692  1.00  0.00     0.053 C 
BRANCH  15  16
HETATM   16  C   UNL     1     -42.757  58.209 -53.130  1.00  0.00    -0.057 A 
HETATM   17  C   UNL     1     -41.553  57.872 -53.759  1.00  0.00     0.010 A 
HETATM   18  C   UNL     1     -40.337  58.317 -53.236  1.00  0.00     0.037 A 
HETATM   19  C   UNL     1     -40.301  59.105 -52.085  1.00  0.00     0.068 A 
HETATM   20  C   UNL     1     -41.496  59.434 -51.448  1.00  0.00     0.037 A 
HETATM   21  C   UNL     1     -42.718  58.987 -51.966  1.00  0.00     0.010 A 
BRANCH  19  22
HETATM   22  O   UNL     1     -39.047  59.480 -51.689  1.00  0.00    -0.356 OA
HETATM   23  C   UNL     1     -38.870  59.776 -50.308  1.00  0.00     0.210 C 
ENDBRANCH  19  22
ENDBRANCH  15  16
ENDBRANCH  14  15
ENDBRANCH  12  14
ENDBRANCH   3  12
BRANCH   1  24
HETATM   24  N   UNL     1     -42.304  54.032 -50.060  1.00  0.00    -0.273 NA
HETATM   25  H   UNL     1     -42.097  53.115 -49.672  1.00  0.00     0.129 HD
BRANCH  24  26
HETATM   26  C   UNL     1     -41.571  55.100 -49.369  1.00  0.00     0.053 C 
HETATM   27  C   UNL     1     -40.795  55.962 -50.362  1.00  0.00     0.026 C 
HETATM   28  C   UNL     1     -40.606  54.439 -48.383  1.00  0.00     0.026 C 
ENDBRANCH  24  26
ENDBRANCH   1  24
TORSDOF 7
ENDMDL
MODEL 2
REMARK VINA RESULT:      -7.5      2.058      4.316
REMARK  7 active torsions:
REMARK  status: ('A' for Active; 'I' for Inactive)
REMARK    1  A    between atoms: C_2  and  N_3 
REMARK    2  A    between atoms: N_3  and  C_4 
REMARK    3  A    between atoms: C_6  and  N_7 
REMARK    4  A    between atoms: N_7  and  C_8 
REMARK    5  A    between atoms: C_8  and  C_9 
REMARK    6  A    between atoms: C_9  and  C_10 
REMARK    7  A    between atoms: C_13  and  O_14 
ROOT
HETATM    1  C   UNL     1     -40.732  53.514 -53.380  1.00  0.00     0.119 A 
HETATM    2  N   UNL     1     -40.676  54.327 -52.309  1.00  0.00    -0.207 NA
HETATM    3  C   UNL     1     -40.269  53.817 -51.137  1.00  0.00     0.181 A 
HETATM    4  N   UNL     1     -39.882  52.550 -51.009  1.00  0.00    -0.330 N 
HETATM    5  H   UNL     1     -39.526  52.266 -50.106  1.00  0.00     0.168 HD
HETATM    6  C   UNL     1     -39.899  51.703 -52.043  1.00  0.00     0.048 A 
HETATM    7  C   UNL     1     -40.337  52.162 -53.299  1.00  0.00     0.031 A 
HETATM    8  C   UNL     1     -39.477  50.375 -51.868  1.00  0.00     0.030 A 
HETATM    9  C   UNL     1     -39.485  49.490 -52.946  1.00  0.00     0.002 A 
HETATM   10  C   UNL     1     -39.905  49.926 -54.198  1.00  0.00     0.001 A 
HETATM   11  C   UNL     1     -40.323  51.247 -54.378  1.00  0.00     0.017 A 
ENDROOT
BRANCH   3  12
HETATM   12  N   UNL     1     -40.208  54.594 -49.986  1.00  0.00    -0.262 NA
HETATM   13  H   UNL     1     -39.912  54.075 -49.165  1.00  0.00     0.130 HD
BRANCH  12  14
HETATM   14  C   UNL     1     -41.414  55.392 -49.714  1.00  0.00     0.100 C 
BRANCH  14  15
HETATM   15  C   UNL     1     -41.152  56.860 -50.076  1.00  0.00     0.053 C 
BRANCH  15  16
HETATM   16  C   UNL     1     -42.006  57.325 -51.226  1.00  0.00    -0.057 A 
HETATM   17  C   UNL     1     -41.458  58.116 -52.242  1.00  0.00     0.010 A 
HETATM   18  C   UNL     1     -42.253  58.544 -53.308  1.00  0.00     0.037 A 
HETATM   19  C   UNL     1     -43.601  58.190 -53.378  1.00  0.00     0.068 A 
HETATM   20  C   UNL     1     -44.155  57.414 -52.363  1.00  0.00     0.037 A 
HETATM   21  C   UNL     1     -43.363  56.985 -51.290  1.00  0.00     0.010 A 
BRANCH  19  22
HETATM   22  O   UNL     1     -44.259  58.667 -54.478  1.00  0.00    -0.356 OA
HETATM   23  C   UNL     1     -45.215  57.803 -55.082  1.00  0.00     0.210 C 
ENDBRANCH  19  22
ENDBRANCH  15  16
ENDBRANCH  14  15
ENDBRANCH  12  14
ENDBRANCH   3  12
BRANCH   1  24
HETATM   24  N   UNL     1     -41.131  54.041 -54.610  1.00  0.00    -0.273 NA
HETATM   25  H   UNL     1     -41.298  53.317 -55.305  1.00  0.00     0.129 HD
BRANCH  24  26
HETATM   26  C   UNL     1     -42.166  55.082 -54.641  1.00  0.00     0.053 C 
HETATM   27  C   UNL     1     -43.557  54.473 -54.485  1.00  0.00     0.026 C 
HETATM   28  C   UNL     1     -42.059  55.806 -55.984  1.00  0.00     0.026 C 
ENDBRANCH  24  26
ENDBRANCH   1  24
TORSDOF 7
ENDMDL
MODEL 3
REMARK VINA RESULT:      -7.5      1.776      2.517
REMARK  7 active torsions:
REMARK  status: ('A' for Active; 'I' for Inactive)
REMARK    1  A    between atoms: C_2  and  N_3 
REMARK    2  A    between atoms: N_3  and  C_4 
REMARK    3  A    between atoms: C_6  and  N_7 
REMARK    4  A    between atoms: N_7  and  C_8 
REMARK    5  A    between atoms: C_8  and  C_9 
REMARK    6  A    between atoms: C_9  and  C_10 
REMARK    7  A    between atoms: C_13  and  O_14 
ROOT
HETATM    1  C   UNL     1     -40.301  53.454 -52.186  1.00  0.00     0.119 A 
HETATM    2  N   UNL     1     -40.541  54.243 -53.250  1.00  0.00    -0.207 NA
HETATM    3  C   UNL     1     -40.463  53.706 -54.477  1.00  0.00     0.181 A 
HETATM    4  N   UNL     1     -40.198  52.417 -54.674  1.00  0.00    -0.330 N 
HETATM    5  H   UNL     1     -40.226  52.080 -55.627  1.00  0.00     0.168 HD
HETATM    6  C   UNL     1     -39.971  51.583 -53.654  1.00  0.00     0.048 A 
HETATM    7  C   UNL     1     -40.013  52.081 -52.338  1.00  0.00     0.031 A 
HETATM    8  C   UNL     1     -39.701  50.228 -53.903  1.00  0.00     0.030 A 
HETATM    9  C   UNL     1     -39.472  49.353 -52.841  1.00  0.00     0.002 A 
HETATM   10  C   UNL     1     -39.517  49.823 -51.532  1.00  0.00     0.001 A 
HETATM   11  C   UNL     1     -39.788  51.170 -51.280  1.00  0.00     0.017 A 
ENDROOT
BRANCH   3  12
HETATM   12  N   UNL     1     -40.677  54.467 -55.621  1.00  0.00    -0.262 NA
HETATM   13  H   UNL     1     -40.037  55.250 -55.709  1.00  0.00     0.130 HD
BRANCH  12  14
HETATM   14  C   UNL     1     -42.072  54.885 -55.834  1.00  0.00     0.100 C 
BRANCH  14  15
HETATM   15  C   UNL     1     -42.145  56.416 -55.902  1.00  0.00     0.053 C 
BRANCH  15  16
HETATM   16  C   UNL     1     -42.234  57.045 -54.536  1.00  0.00    -0.057 A 
HETATM   17  C   UNL     1     -41.109  57.642 -53.957  1.00  0.00     0.010 A 
HETATM   18  C   UNL     1     -41.196  58.226 -52.690  1.00  0.00     0.037 A 
HETATM   19  C   UNL     1     -42.401  58.227 -51.987  1.00  0.00     0.068 A 
HETATM   20  C   UNL     1     -43.521  57.623 -52.554  1.00  0.00     0.037 A 
HETATM   21  C   UNL     1     -43.438  57.033 -53.821  1.00  0.00     0.010 A 
BRANCH  19  22
HETATM   22  O   UNL     1     -42.348  58.841 -50.766  1.00  0.00    -0.356 OA
HETATM   23  C   UNL     1     -41.459  59.945 -50.639  1.00  0.00     0.210 C 
ENDBRANCH  19  22
ENDBRANCH  15  16
ENDBRANCH  14  15
ENDBRANCH  12  14
ENDBRANCH   3  12
BRANCH   1  24
HETATM   24  N   UNL     1     -40.403  53.998 -50.904  1.00  0.00    -0.273 NA
HETATM   25  H   UNL     1     -39.496  54.247 -50.517  1.00  0.00     0.129 HD
BRANCH  24  26
HETATM   26  C   UNL     1     -41.414  55.030 -50.643  1.00  0.00     0.053 C 
HETATM   27  C   UNL     1     -41.241  55.622 -49.246  1.00  0.00     0.026 C 
HETATM   28  C   UNL     1     -42.791  54.375 -50.767  1.00  0.00     0.026 C 
ENDBRANCH  24  26
ENDBRANCH   1  24
TORSDOF 7
ENDMDL
MODEL 4
REMARK VINA RESULT:      -7.3      3.874      5.631
REMARK  7 active torsions:
REMARK  status: ('A' for Active; 'I' for Inactive)
REMARK    1  A    between atoms: C_2  and  N_3 
REMARK    2  A    between atoms: N_3  and  C_4 
REMARK    3  A    between atoms: C_6  and  N_7 
REMARK    4  A    between atoms: N_7  and  C_8 
REMARK    5  A    between atoms: C_8  and  C_9 
REMARK    6  A    between atoms: C_9  and  C_10 
REMARK    7  A    between atoms: C_13  and  O_14 
ROOT
HETATM    1  C   UNL     1     -40.661  53.872 -52.488  1.00  0.00     0.119 A 
HETATM    2  N   UNL     1     -40.999  54.650 -53.533  1.00  0.00    -0.207 NA
HETATM    3  C   UNL     1     -40.917  54.133 -54.769  1.00  0.00     0.181 A 
HETATM    4  N   UNL     1     -40.554  52.872 -54.990  1.00  0.00    -0.330 N 
HETATM    5  H   UNL     1     -40.585  52.544 -55.946  1.00  0.00     0.168 HD
HETATM    6  C   UNL     1     -40.228  52.050 -53.988  1.00  0.00     0.048 A 
HETATM    7  C   UNL     1     -40.267  52.529 -52.666  1.00  0.00     0.031 A 
HETATM    8  C   UNL     1     -39.856  50.724 -54.263  1.00  0.00     0.030 A 
HETATM    9  C   UNL     1     -39.522  49.860 -53.220  1.00  0.00     0.002 A 
HETATM   10  C   UNL     1     -39.564  50.311 -51.904  1.00  0.00     0.001 A 
HETATM   11  C   UNL     1     -39.935  51.629 -51.627  1.00  0.00     0.017 A 
ENDROOT
BRANCH   3  12
HETATM   12  N   UNL     1     -41.229  54.885 -55.896  1.00  0.00    -0.262 NA
HETATM   13  H   UNL     1     -40.470  55.486 -56.202  1.00  0.00     0.130 HD
BRANCH  12  14
HETATM   14  C   UNL     1     -42.501  55.623 -55.815  1.00  0.00     0.100 C 
BRANCH  14  15
HETATM   15  C   UNL     1     -42.495  56.770 -56.834  1.00  0.00     0.053 C 
BRANCH  15  16
HETATM   16  C   UNL     1     -43.482  56.547 -57.950  1.00  0.00    -0.057 A 
HETATM   17  C   UNL     1     -43.347  55.449 -58.807  1.00  0.00     0.010 A 
HETATM   18  C   UNL     1     -44.265  55.245 -59.840  1.00  0.00     0.037 A 
HETATM   19  C   UNL     1     -45.329  56.127 -60.033  1.00  0.00     0.068 A 
HETATM   20  C   UNL     1     -45.461  57.229 -59.190  1.00  0.00     0.037 A 
HETATM   21  C   UNL     1     -44.541  57.440 -58.156  1.00  0.00     0.010 A 
BRANCH  19  22
HETATM   22  O   UNL     1     -46.157  55.803 -61.072  1.00  0.00    -0.356 OA
HETATM   23  C   UNL     1     -47.422  56.454 -61.114  1.00  0.00     0.210 C 
ENDBRANCH  19  22
ENDBRANCH  15  16
ENDBRANCH  14  15
ENDBRANCH  12  14
ENDBRANCH   3  12
BRANCH   1  24
HETATM   24  N   UNL     1     -40.767  54.393 -51.196  1.00  0.00    -0.273 NA
HETATM   25  H   UNL     1     -39.861  54.646 -50.807  1.00  0.00     0.129 HD
BRANCH  24  26
HETATM   26  C   UNL     1     -41.788  55.409 -50.915  1.00  0.00     0.053 C 
HETATM   27  C   UNL     1     -41.268  56.447 -49.923  1.00  0.00     0.026 C 
HETATM   28  C   UNL     1     -43.010  54.695 -50.333  1.00  0.00     0.026 C 
ENDBRANCH  24  26
ENDBRANCH   1  24
TORSDOF 7
ENDMDL
MODEL 5
REMARK VINA RESULT:      -7.3      3.577      4.808
REMARK  7 active torsions:
REMARK  status: ('A' for Active; 'I' for Inactive)
REMARK    1  A    between atoms: C_2  and  N_3 
REMARK    2  A    between atoms: N_3  and  C_4 
REMARK    3  A    between atoms: C_6  and  N_7 
REMARK    4  A    between atoms: N_7  and  C_8 
REMARK    5  A    between atoms: C_8  and  C_9 
REMARK    6  A    between atoms: C_9  and  C_10 
REMARK    7  A    between atoms: C_13  and  O_14 
ROOT
HETATM    1  C   UNL     1     -40.396  53.617 -52.333  1.00  0.00     0.119 A 
HETATM    2  N   UNL     1     -40.749  54.440 -53.337  1.00  0.00    -0.207 NA
HETATM    3  C   UNL     1     -40.772  53.953 -54.587  1.00  0.00     0.181 A 
HETATM    4  N   UNL     1     -40.497  52.680 -54.860  1.00  0.00    -0.330 N 
HETATM    5  H   UNL     1     -40.604  52.380 -55.820  1.00  0.00     0.168 HD
HETATM    6  C   UNL     1     -40.160  51.813 -53.900  1.00  0.00     0.048 A 
HETATM    7  C   UNL     1     -40.093  52.259 -52.566  1.00  0.00     0.031 A 
HETATM    8  C   UNL     1     -39.884  50.477 -54.227  1.00  0.00     0.030 A 
HETATM    9  C   UNL     1     -39.540  49.567 -53.228  1.00  0.00     0.002 A 
HETATM   10  C   UNL     1     -39.476  49.984 -51.902  1.00  0.00     0.001 A 
HETATM   11  C   UNL     1     -39.752  51.313 -51.571  1.00  0.00     0.017 A 
ENDROOT
BRANCH   3  12
HETATM   12  N   UNL     1     -41.106  54.752 -55.675  1.00  0.00    -0.262 NA
HETATM   13  H   UNL     1     -40.716  55.689 -55.621  1.00  0.00     0.130 HD
BRANCH  12  14
HETATM   14  C   UNL     1     -42.540  54.783 -56.003  1.00  0.00     0.100 C 
BRANCH  14  15
HETATM   15  C   UNL     1     -43.020  56.239 -56.074  1.00  0.00     0.053 C 
BRANCH  15  16
HETATM   16  C   UNL     1     -42.722  56.874 -57.407  1.00  0.00    -0.057 A 
HETATM   17  C   UNL     1     -42.339  58.218 -57.482  1.00  0.00     0.010 A 
HETATM   18  C   UNL     1     -42.061  58.803 -58.720  1.00  0.00     0.037 A 
HETATM   19  C   UNL     1     -42.157  58.060 -59.897  1.00  0.00     0.068 A 
HETATM   20  C   UNL     1     -42.550  56.725 -59.829  1.00  0.00     0.037 A 
HETATM   21  C   UNL     1     -42.833  56.135 -58.591  1.00  0.00     0.010 A 
BRANCH  19  22
HETATM   22  O   UNL     1     -41.848  58.752 -61.035  1.00  0.00    -0.356 OA
HETATM   23  C   UNL     1     -41.845  60.172 -60.943  1.00  0.00     0.210 C 
ENDBRANCH  19  22
ENDBRANCH  15  16
ENDBRANCH  14  15
ENDBRANCH  12  14
ENDBRANCH   3  12
BRANCH   1  24
HETATM   24  N   UNL     1     -40.393  54.108 -51.026  1.00  0.00    -0.273 NA
HETATM   25  H   UNL     1     -39.474  54.437 -50.739  1.00  0.00     0.129 HD
BRANCH  24  26
HETATM   26  C   UNL     1     -41.461  55.021 -50.601  1.00  0.00     0.053 C 
HETATM   27  C   UNL     1     -41.192  55.562 -49.199  1.00  0.00     0.026 C 
HETATM   28  C   UNL     1     -42.777  54.240 -50.618  1.00  0.00     0.026 C 
ENDBRANCH  24  26
ENDBRANCH   1  24
TORSDOF 7
ENDMDL
MODEL 6
REMARK VINA RESULT:      -7.1      1.202      3.272
REMARK  7 active torsions:
REMARK  status: ('A' for Active; 'I' for Inactive)
REMARK    1  A    between atoms: C_2  and  N_3 
REMARK    2  A    between atoms: N_3  and  C_4 
REMARK    3  A    between atoms: C_6  and  N_7 
REMARK    4  A    between atoms: N_7  and  C_8 
REMARK    5  A    between atoms: C_8  and  C_9 
REMARK    6  A    between atoms: C_9  and  C_10 
REMARK    7  A    between atoms: C_13  and  O_14 
ROOT
HETATM    1  C   UNL     1     -40.869  53.041 -52.979  1.00  0.00     0.119 A 
HETATM    2  N   UNL     1     -41.766  53.383 -53.923  1.00  0.00    -0.207 NA
HETATM    3  C   UNL     1     -42.713  54.281 -53.611  1.00  0.00     0.181 A 
HETATM    4  N   UNL     1     -42.770  54.870 -52.419  1.00  0.00    -0.330 N 
HETATM    5  H   UNL     1     -43.475  55.584 -52.291  1.00  0.00     0.168 HD
HETATM    6  C   UNL     1     -41.894  54.583 -51.451  1.00  0.00     0.048 A 
HETATM    7  C   UNL     1     -40.886  53.633 -51.698  1.00  0.00     0.031 A 
HETATM    8  C   UNL     1     -41.985  55.232 -50.210  1.00  0.00     0.030 A 
HETATM    9  C   UNL     1     -41.068  54.941 -49.200  1.00  0.00     0.002 A 
HETATM   10  C   UNL     1     -40.057  54.012 -49.426  1.00  0.00     0.001 A 
HETATM   11  C   UNL     1     -39.962  53.366 -50.661  1.00  0.00     0.017 A 
ENDROOT
BRANCH   3  12
HETATM   12  N   UNL     1     -43.684  54.664 -54.529  1.00  0.00    -0.262 NA
HETATM   13  H   UNL     1     -43.450  54.422 -55.487  1.00  0.00     0.130 HD
BRANCH  12  14
HETATM   14  C   UNL     1     -44.122  56.065 -54.418  1.00  0.00     0.100 C 
BRANCH  14  15
HETATM   15  C   UNL     1     -42.993  56.995 -54.882  1.00  0.00     0.053 C 
BRANCH  15  16
HETATM   16  C   UNL     1     -42.388  57.771 -53.742  1.00  0.00    -0.057 A 
HETATM   17  C   UNL     1     -40.999  57.827 -53.581  1.00  0.00     0.010 A 
HETATM   18  C   UNL     1     -40.441  58.549 -52.522  1.00  0.00     0.037 A 
HETATM   19  C   UNL     1     -41.256  59.226 -51.614  1.00  0.00     0.068 A 
HETATM   20  C   UNL     1     -42.640  59.163 -51.763  1.00  0.00     0.037 A 
HETATM   21  C   UNL     1     -43.204  58.438 -52.819  1.00  0.00     0.010 A 
BRANCH  19  22
HETATM   22  O   UNL     1     -40.580  59.900 -50.635  1.00  0.00    -0.356 OA
HETATM   23  C   UNL     1     -39.191  59.617 -50.500  1.00  0.00     0.210 C 
ENDBRANCH  19  22
ENDBRANCH  15  16
ENDBRANCH  14  15
ENDBRANCH  12  14
ENDBRANCH   3  12
BRANCH   1  24
HETATM   24  N   UNL     1     -39.864  52.127 -53.301  1.00  0.00    -0.273 NA
HETATM   25  H   UNL     1     -38.981  52.349 -52.848  1.00  0.00     0.129 HD
BRANCH  24  26
HETATM   26  C   UNL     1     -40.161  50.690 -53.251  1.00  0.00     0.053 C 
HETATM   27  C   UNL     1     -39.525  50.043 -52.022  1.00  0.00     0.026 C 
HETATM   28  C   UNL     1     -39.602  50.054 -54.525  1.00  0.00     0.026 C 
ENDBRANCH  24  26
ENDBRANCH   1  24
TORSDOF 7
ENDMDL
MODEL 7
REMARK VINA RESULT:      -7.0      1.452      3.447
REMARK  7 active torsions:
REMARK  status: ('A' for Active; 'I' for Inactive)
REMARK    1  A    between atoms: C_2  and  N_3 
REMARK    2  A    between atoms: N_3  and  C_4 
REMARK    3  A    between atoms: C_6  and  N_7 
REMARK    4  A    between atoms: N_7  and  C_8 
REMARK    5  A    between atoms: C_8  and  C_9 
REMARK    6  A    between atoms: C_9  and  C_10 
REMARK    7  A    between atoms: C_13  and  O_14 
ROOT
HETATM    1  C   UNL     1     -42.475  54.528 -52.497  1.00  0.00     0.119 A 
HETATM    2  N   UNL     1     -43.584  55.285 -52.409  1.00  0.00    -0.207 NA
HETATM    3  C   UNL     1     -43.868  55.873 -51.236  1.00  0.00     0.181 A 
HETATM    4  N   UNL     1     -43.072  55.765 -50.175  1.00  0.00    -0.330 N 
HETATM    5  H   UNL     1     -43.326  56.295 -49.353  1.00  0.00     0.168 HD
HETATM    6  C   UNL     1     -41.949  55.042 -50.211  1.00  0.00     0.048 A 
HETATM    7  C   UNL     1     -41.598  54.378 -51.402  1.00  0.00     0.031 A 
HETATM    8  C   UNL     1     -41.132  54.958 -49.072  1.00  0.00     0.030 A 
HETATM    9  C   UNL     1     -39.955  54.212 -49.108  1.00  0.00     0.002 A 
HETATM   10  C   UNL     1     -39.585  53.555 -50.277  1.00  0.00     0.001 A 
HETATM   11  C   UNL     1     -40.393  53.637 -51.414  1.00  0.00     0.017 A 
ENDROOT
BRANCH   3  12
HETATM   12  N   UNL     1     -45.008  56.651 -51.068  1.00  0.00    -0.262 NA
HETATM   13  H   UNL     1     -45.761  56.404 -51.703  1.00  0.00     0.130 HD
BRANCH  12  14
HETATM   14  C   UNL     1     -44.770  58.104 -51.054  1.00  0.00     0.100 C 
BRANCH  14  15
HETATM   15  C   UNL     1     -44.058  58.520 -52.348  1.00  0.00     0.053 C 
BRANCH  15  16
HETATM   16  C   UNL     1     -42.584  58.750 -52.140  1.00  0.00    -0.057 A 
HETATM   17  C   UNL     1     -42.104  59.204 -50.906  1.00  0.00     0.010 A 
HETATM   18  C   UNL     1     -40.736  59.415 -50.717  1.00  0.00     0.037 A 
HETATM   19  C   UNL     1     -39.828  59.173 -51.749  1.00  0.00     0.068 A 
HETATM   20  C   UNL     1     -40.302  58.732 -52.983  1.00  0.00     0.037 A 
HETATM   21  C   UNL     1     -41.673  58.524 -53.179  1.00  0.00     0.010 A 
BRANCH  19  22
HETATM   22  O   UNL     1     -38.521  59.409 -51.425  1.00  0.00    -0.356 OA
HETATM   23  C   UNL     1     -38.258  59.871 -50.105  1.00  0.00     0.210 C 
ENDBRANCH  19  22
ENDBRANCH  15  16
ENDBRANCH  14  15
ENDBRANCH  12  14
ENDBRANCH   3  12
BRANCH   1  24
HETATM   24  N   UNL     1     -42.158  53.933 -53.719  1.00  0.00    -0.273 NA
HETATM   25  H   UNL     1     -42.927  53.379 -54.090  1.00  0.00     0.129 HD
BRANCH  24  26
HETATM   26  C   UNL     1     -41.508  54.738 -54.761  1.00  0.00     0.053 C 
HETATM   27  C   UNL     1     -42.388  54.834 -56.005  1.00  0.00     0.026 C 
HETATM   28  C   UNL     1     -40.179  54.065 -55.110  1.00  0.00     0.026 C 
ENDBRANCH  24  26
ENDBRANCH   1  24
TORSDOF 7
ENDMDL
MODEL 8
REMARK VINA RESULT:      -6.9     15.330     17.705
REMARK  7 active torsions:
REMARK  status: ('A' for Active; 'I' for Inactive)
REMARK    1  A    between atoms: C_2  and  N_3 
REMARK    2  A    between atoms: N_3  and  C_4 
REMARK    3  A    between atoms: C_6  and  N_7 
REMARK    4  A    between atoms: N_7  and  C_8 
REMARK    5  A    between atoms: C_8  and  C_9 
REMARK    6  A    between atoms: C_9  and  C_10 
REMARK    7  A    between atoms: C_13  and  O_14 
ROOT
HETATM    1  C   UNL     1     -33.377  40.761 -53.733  1.00  0.00     0.119 A 
HETATM    2  N   UNL     1     -34.568  41.210 -54.173  1.00  0.00    -0.207 NA
HETATM    3  C   UNL     1     -35.578  41.312 -53.295  1.00  0.00     0.181 A 
HETATM    4  N   UNL     1     -35.431  41.022 -52.005  1.00  0.00    -0.330 N 
HETATM    5  H   UNL     1     -36.225  41.191 -51.401  1.00  0.00     0.168 HD
HETATM    6  C   UNL     1     -34.267  40.590 -51.510  1.00  0.00     0.048 A 
HETATM    7  C   UNL     1     -33.168  40.437 -52.376  1.00  0.00     0.031 A 
HETATM    8  C   UNL     1     -34.151  40.301 -50.141  1.00  0.00     0.030 A 
HETATM    9  C   UNL     1     -32.936  39.858 -49.620  1.00  0.00     0.002 A 
HETATM   10  C   UNL     1     -31.834  39.709 -50.456  1.00  0.00     0.001 A 
HETATM   11  C   UNL     1     -31.945  39.998 -51.819  1.00  0.00     0.017 A 
ENDROOT
BRANCH   3  12
HETATM   12  N   UNL     1     -36.840  41.748 -53.684  1.00  0.00    -0.262 NA
HETATM   13  H   UNL     1     -37.522  41.728 -52.932  1.00  0.00     0.130 HD
BRANCH  12  14
HETATM   14  C   UNL     1     -37.365  41.114 -54.905  1.00  0.00     0.100 C 
BRANCH  14  15
HETATM   15  C   UNL     1     -37.385  42.137 -56.047  1.00  0.00     0.053 C 
BRANCH  15  16
HETATM   16  C   UNL     1     -37.474  41.481 -57.400  1.00  0.00    -0.057 A 
HETATM   17  C   UNL     1     -37.991  40.188 -57.529  1.00  0.00     0.010 A 
HETATM   18  C   UNL     1     -38.073  39.584 -58.786  1.00  0.00     0.037 A 
HETATM   19  C   UNL     1     -37.645  40.258 -59.930  1.00  0.00     0.068 A 
HETATM   20  C   UNL     1     -37.118  41.542 -59.806  1.00  0.00     0.037 A 
HETATM   21  C   UNL     1     -37.029  42.150 -58.548  1.00  0.00     0.010 A 
BRANCH  19  22
HETATM   22  O   UNL     1     -37.792  39.555 -61.094  1.00  0.00    -0.356 OA
HETATM   23  C   UNL     1     -38.637  38.412 -61.053  1.00  0.00     0.210 C 
ENDBRANCH  19  22
ENDBRANCH  15  16
ENDBRANCH  14  15
ENDBRANCH  12  14
ENDBRANCH   3  12
BRANCH   1  24
HETATM   24  N   UNL     1     -32.313  40.676 -54.633  1.00  0.00    -0.273 NA
HETATM   25  H   UNL     1     -31.428  40.948 -54.211  1.00  0.00     0.129 HD
BRANCH  24  26
HETATM   26  C   UNL     1     -32.177  39.478 -55.470  1.00  0.00     0.053 C 
HETATM   27  C   UNL     1     -30.763  38.907 -55.382  1.00  0.00     0.026 C 
HETATM   28  C   UNL     1     -32.491  39.879 -56.913  1.00  0.00     0.026 C 
ENDBRANCH  24  26
ENDBRANCH   1  24
TORSDOF 7
ENDMDL
MODEL 9
REMARK VINA RESULT:      -6.8      1.481      1.989
REMARK  7 active torsions:
REMARK  status: ('A' for Active; 'I' for Inactive)
REMARK    1  A    between atoms: C_2  and  N_3 
REMARK    2  A    between atoms: N_3  and  C_4 
REMARK    3  A    between atoms: C_6  and  N_7 
REMARK    4  A    between atoms: N_7  and  C_8 
REMARK    5  A    between atoms: C_8  and  C_9 
REMARK    6  A    between atoms: C_9  and  C_10 
REMARK    7  A    between atoms: C_13  and  O_14 
ROOT
HETATM    1  C   UNL     1     -42.085  54.209 -52.094  1.00  0.00     0.119 A 
HETATM    2  N   UNL     1     -42.929  54.803 -52.959  1.00  0.00    -0.207 NA
HETATM    3  C   UNL     1     -42.855  54.470 -54.257  1.00  0.00     0.181 A 
HETATM    4  N   UNL     1     -42.009  53.549 -54.708  1.00  0.00    -0.330 N 
HETATM    5  H   UNL     1     -42.066  53.310 -55.689  1.00  0.00     0.168 HD
HETATM    6  C   UNL     1     -41.162  52.913 -53.892  1.00  0.00     0.048 A 
HETATM    7  C   UNL     1     -41.166  53.227 -52.520  1.00  0.00     0.031 A 
HETATM    8  C   UNL     1     -40.288  51.942 -54.406  1.00  0.00     0.030 A 
HETATM    9  C   UNL     1     -39.409  51.271 -53.557  1.00  0.00     0.002 A 
HETATM   10  C   UNL     1     -39.403  51.560 -52.196  1.00  0.00     0.001 A 
HETATM   11  C   UNL     1     -40.272  52.523 -51.680  1.00  0.00     0.017 A 
ENDROOT
BRANCH   3  12
HETATM   12  N   UNL     1     -43.681  55.060 -55.208  1.00  0.00    -0.262 NA
HETATM   13  H   UNL     1     -44.225  54.388 -55.741  1.00  0.00     0.130 HD
BRANCH  12  14
HETATM   14  C   UNL     1     -43.014  56.034 -56.087  1.00  0.00     0.100 C 
BRANCH  14  15
HETATM   15  C   UNL     1     -43.744  57.381 -56.008  1.00  0.00     0.053 C 
BRANCH  15  16
HETATM   16  C   UNL     1     -43.659  57.998 -54.636  1.00  0.00    -0.057 A 
HETATM   17  C   UNL     1     -42.423  58.396 -54.114  1.00  0.00     0.010 A 
HETATM   18  C   UNL     1     -42.349  58.969 -52.841  1.00  0.00     0.037 A 
HETATM   19  C   UNL     1     -43.500  59.155 -52.075  1.00  0.00     0.068 A 
HETATM   20  C   UNL     1     -44.731  58.749 -52.586  1.00  0.00     0.037 A 
HETATM   21  C   UNL     1     -44.811  58.170 -53.859  1.00  0.00     0.010 A 
BRANCH  19  22
HETATM   22  O   UNL     1     -43.286  59.735 -50.856  1.00  0.00    -0.356 OA
HETATM   23  C   UNL     1     -42.062  60.442 -50.686  1.00  0.00     0.210 C 
ENDBRANCH  19  22
ENDBRANCH  15  16
ENDBRANCH  14  15
ENDBRANCH  12  14
ENDBRANCH   3  12
BRANCH   1  24
HETATM   24  N   UNL     1     -42.170  54.530 -50.738  1.00  0.00    -0.273 NA
HETATM   25  H   UNL     1     -42.524  53.756 -50.180  1.00  0.00     0.129 HD
BRANCH  24  26
HETATM   26  C   UNL     1     -41.039  55.203 -50.089  1.00  0.00     0.053 C 
HETATM   27  C   UNL     1     -40.907  54.767 -48.631  1.00  0.00     0.026 C 
HETATM   28  C   UNL     1     -41.287  56.711 -50.164  1.00  0.00     0.026 C 
ENDBRANCH  24  26
ENDBRANCH   1  24
TORSDOF 7
ENDMDL
MODEL 10
REMARK VINA RESULT:      -6.8      2.686      7.094
REMARK  7 active torsions:
REMARK  status: ('A' for Active; 'I' for Inactive)
REMARK    1  A    between atoms: C_2  and  N_3 
REMARK    2  A    between atoms: N_3  and  C_4 
REMARK    3  A    between atoms: C_6  and  N_7 
REMARK    4  A    between atoms: N_7  and  C_8 
REMARK    5  A    between atoms: C_8  and  C_9 
REMARK    6  A    between atoms: C_9  and  C_10 
REMARK    7  A    between atoms: C_13  and  O_14 
ROOT
HETATM    1  C   UNL     1     -43.463  56.522 -52.954  1.00  0.00     0.119 A 
HETATM    2  N   UNL     1     -43.151  55.532 -52.097  1.00  0.00    -0.207 NA
HETATM    3  C   UNL     1     -42.564  55.852 -50.934  1.00  0.00     0.181 A 
HETATM    4  N   UNL     1     -42.317  57.112 -50.584  1.00  0.00    -0.330 N 
HETATM    5  H   UNL     1     -41.934  57.268 -49.661  1.00  0.00     0.168 HD
HETATM    6  C   UNL     1     -42.623  58.136 -51.387  1.00  0.00     0.048 A 
HETATM    7  C   UNL     1     -43.221  57.875 -52.634  1.00  0.00     0.031 A 
HETATM    8  C   UNL     1     -42.353  59.451 -50.979  1.00  0.00     0.030 A 
HETATM    9  C   UNL     1     -42.678  60.523 -51.810  1.00  0.00     0.002 A 
HETATM   10  C   UNL     1     -43.278  60.288 -53.043  1.00  0.00     0.001 A 
HETATM   11  C   UNL     1     -43.551  58.981 -53.452  1.00  0.00     0.017 A 
ENDROOT
BRANCH   3  12
HETATM   12  N   UNL     1     -42.195  54.878 -50.012  1.00  0.00    -0.262 NA
HETATM   13  H   UNL     1     -42.582  55.033 -49.086  1.00  0.00     0.130 HD
BRANCH  12  14
HETATM   14  C   UNL     1     -40.751  54.598 -49.952  1.00  0.00     0.100 C 
BRANCH  14  15
HETATM   15  C   UNL     1     -40.521  53.216 -49.327  1.00  0.00     0.053 C 
BRANCH  15  16
HETATM   16  C   UNL     1     -40.225  52.162 -50.361  1.00  0.00    -0.057 A 
HETATM   17  C   UNL     1     -39.954  52.526 -51.685  1.00  0.00     0.010 A 
HETATM   18  C   UNL     1     -39.678  51.545 -52.642  1.00  0.00     0.037 A 
HETATM   19  C   UNL     1     -39.664  50.194 -52.294  1.00  0.00     0.068 A 
HETATM   20  C   UNL     1     -39.944  49.826 -50.980  1.00  0.00     0.037 A 
HETATM   21  C   UNL     1     -40.226  50.805 -50.019  1.00  0.00     0.010 A 
BRANCH  19  22
HETATM   22  O   UNL     1     -39.369  49.344 -53.324  1.00  0.00    -0.356 OA
HETATM   23  C   UNL     1     -39.718  49.774 -54.634  1.00  0.00     0.210 C 
ENDBRANCH  19  22
ENDBRANCH  15  16
ENDBRANCH  14  15
ENDBRANCH  12  14
ENDBRANCH   3  12
BRANCH   1  24
HETATM   24  N   UNL     1     -44.097  56.202 -54.155  1.00  0.00    -0.273 NA
HETATM   25  H   UNL     1     -44.737  56.932 -54.461  1.00  0.00     0.129 HD
BRANCH  24  26
HETATM   26  C   UNL     1     -43.298  55.671 -55.267  1.00  0.00     0.053 C 
HETATM   27  C   UNL     1     -43.218  54.148 -55.204  1.00  0.00     0.026 C 
HETATM   28  C   UNL     1     -41.896  56.274 -55.164  1.00  0.00     0.026 C 
ENDBRANCH  24  26
ENDBRANCH   1  24
TORSDOF 7
ENDMDL
