MODEL 1
REMARK VINA RESULT:      -7.9      0.000      0.000
REMARK  6 active torsions:
REMARK  status: ('A' for Active; 'I' for Inactive)
REMARK    1  A    between atoms: C_2  and  C_3 
REMARK    2  A    between atoms: C_7  and  O_8 
REMARK    3  A    between atoms: O_8  and  C_9 
REMARK    4  A    between atoms: C_9  and  C_10 
REMARK       I    between atoms: C_10  and  N_11 
REMARK    5  A    between atoms: N_11  and  N_12 
REMARK    6  A    between atoms: C_13  and  C_14 
ROOT
HETATM    1  C   UNL     1     -42.424  57.495 -51.808  1.00  0.00     0.261 C 
HETATM    2  N   UNL     1     -42.314  58.044 -53.063  1.00  0.00    -0.246 N 
HETATM    3  O   UNL     1     -41.893  58.054 -50.844  1.00  0.00    -0.269 OA
HETATM    4  H   UNL     1     -41.825  58.931 -53.126  1.00  0.00     0.192 HD
ENDROOT
BRANCH   2   5
HETATM    5  N   UNL     1     -42.868  57.470 -54.165  1.00  0.00    -0.184 NA
HETATM    6  C   UNL     1     -42.025  57.057 -55.057  1.00  0.00     0.152 C 
BRANCH   6   7
HETATM    7  C   UNL     1     -42.512  56.461 -56.282  1.00  0.00     0.011 A 
HETATM    8  C   UNL     1     -42.511  57.042 -57.591  1.00  0.00     0.004 A 
HETATM    9  C   UNL     1     -43.087  56.115 -58.460  1.00  0.00     0.043 A 
HETATM   10  C   UNL     1     -42.070  58.273 -58.124  1.00  0.00     0.014 A 
HETATM   11  C   UNL     1     -43.248  56.355 -59.830  1.00  0.00     0.030 A 
HETATM   12  N   UNL     1     -43.429  55.013 -57.709  1.00  0.00    -0.364 N 
HETATM   13  C   UNL     1     -42.801  57.581 -60.330  1.00  0.00     0.002 A 
HETATM   14  C   UNL     1     -42.220  58.528 -59.492  1.00  0.00     0.001 A 
HETATM   15  H   UNL     1     -43.874  54.183 -58.077  1.00  0.00     0.165 HD
HETATM   16  C   UNL     1     -43.083  55.208 -56.401  1.00  0.00     0.102 A 
ENDBRANCH   6   7
ENDBRANCH   2   5
BRANCH   1  17
HETATM   17  C   UNL     1     -43.173  56.173 -51.674  1.00  0.00     0.280 C 
BRANCH  17  18
HETATM   18  O   UNL     1     -42.393  55.239 -50.939  1.00  0.00    -0.341 OA
BRANCH  18  19
HETATM   19  C   UNL     1     -41.726  54.282 -51.658  1.00  0.00     0.086 A 
HETATM   20  C   UNL     1     -40.656  53.634 -51.024  1.00  0.00     0.044 A 
HETATM   21  C   UNL     1     -39.900  52.669 -51.700  1.00  0.00     0.029 A 
HETATM   22 BR   UNL     1     -40.191  54.018 -49.221  1.00  0.00    -0.048 Br
HETATM   23  C   UNL     1     -40.200  52.335 -53.026  1.00  0.00    -0.057 A 
HETATM   24  C   UNL     1     -41.262  52.987 -53.662  1.00  0.00     0.010 A 
HETATM   25  C   UNL     1     -42.019  53.951 -52.985  1.00  0.00     0.039 A 
BRANCH  23  26
HETATM   26  C   UNL     1     -39.368  51.323 -53.770  1.00  0.00     0.034 C 
HETATM   27  C   UNL     1     -40.217  50.188 -54.322  1.00  0.00     0.010 C 
ENDBRANCH  23  26
ENDBRANCH  18  19
ENDBRANCH  17  18
ENDBRANCH   1  17
TORSDOF 6
ENDMDL
MODEL 2
REMARK VINA RESULT:      -7.9      2.759      6.447
REMARK  6 active torsions:
REMARK  status: ('A' for Active; 'I' for Inactive)
REMARK    1  A    between atoms: C_2  and  C_3 
REMARK    2  A    between atoms: C_7  and  O_8 
REMARK    3  A    between atoms: O_8  and  C_9 
REMARK    4  A    between atoms: C_9  and  C_10 
REMARK       I    between atoms: C_10  and  N_11 
REMARK    5  A    between atoms: N_11  and  N_12 
REMARK    6  A    between atoms: C_13  and  C_14 
ROOT
HETATM    1  C   UNL     1     -43.541  57.747 -51.788  1.00  0.00     0.261 C 
HETATM    2  N   UNL     1     -42.995  56.996 -50.775  1.00  0.00    -0.246 N 
HETATM    3  O   UNL     1     -43.885  58.912 -51.573  1.00  0.00    -0.269 OA
HETATM    4  H   UNL     1     -42.857  57.468 -49.888  1.00  0.00     0.192 HD
ENDROOT
BRANCH   2   5
HETATM    5  N   UNL     1     -42.605  55.704 -50.948  1.00  0.00    -0.184 NA
HETATM    6  C   UNL     1     -41.355  55.467 -50.712  1.00  0.00     0.152 C 
BRANCH   6   7
HETATM    7  C   UNL     1     -40.831  54.131 -50.897  1.00  0.00     0.011 A 
HETATM    8  C   UNL     1     -40.538  53.477 -52.138  1.00  0.00     0.004 A 
HETATM    9  C   UNL     1     -40.067  52.199 -51.835  1.00  0.00     0.043 A 
HETATM   10  C   UNL     1     -40.627  53.853 -53.496  1.00  0.00     0.014 A 
HETATM   11  C   UNL     1     -39.682  51.278 -52.817  1.00  0.00     0.030 A 
HETATM   12  N   UNL     1     -40.074  52.078 -50.464  1.00  0.00    -0.364 N 
HETATM   13  C   UNL     1     -39.779  51.677 -54.153  1.00  0.00     0.002 A 
HETATM   14  C   UNL     1     -40.244  52.945 -54.490  1.00  0.00     0.001 A 
HETATM   15  H   UNL     1     -39.789  51.250 -49.959  1.00  0.00     0.165 HD
HETATM   16  C   UNL     1     -40.526  53.234 -49.890  1.00  0.00     0.102 A 
ENDBRANCH   6   7
ENDBRANCH   2   5
BRANCH   1  17
HETATM   17  C   UNL     1     -43.740  57.075 -53.143  1.00  0.00     0.280 C 
BRANCH  17  18
HETATM   18  O   UNL     1     -42.590  57.260 -53.957  1.00  0.00    -0.341 OA
BRANCH  18  19
HETATM   19  C   UNL     1     -42.675  56.846 -55.261  1.00  0.00     0.086 A 
HETATM   20  C   UNL     1     -42.585  57.832 -56.253  1.00  0.00     0.044 A 
HETATM   21  C   UNL     1     -42.698  57.499 -57.608  1.00  0.00     0.029 A 
HETATM   22 BR   UNL     1     -42.291  59.659 -55.813  1.00  0.00    -0.048 Br
HETATM   23  C   UNL     1     -42.905  56.170 -57.995  1.00  0.00    -0.057 A 
HETATM   24  C   UNL     1     -43.002  55.186 -57.006  1.00  0.00     0.010 A 
HETATM   25  C   UNL     1     -42.888  55.520 -55.651  1.00  0.00     0.039 A 
BRANCH  23  26
HETATM   26  C   UNL     1     -43.063  55.809 -59.450  1.00  0.00     0.034 C 
HETATM   27  C   UNL     1     -44.234  54.865 -59.675  1.00  0.00     0.010 C 
ENDBRANCH  23  26
ENDBRANCH  18  19
ENDBRANCH  17  18
ENDBRANCH   1  17
TORSDOF 6
ENDMDL
MODEL 3
REMARK VINA RESULT:      -7.8      3.141      6.951
REMARK  6 active torsions:
REMARK  status: ('A' for Active; 'I' for Inactive)
REMARK    1  A    between atoms: C_2  and  C_3 
REMARK    2  A    between atoms: C_7  and  O_8 
REMARK    3  A    between atoms: O_8  and  C_9 
REMARK    4  A    between atoms: C_9  and  C_10 
REMARK       I    between atoms: C_10  and  N_11 
REMARK    5  A    between atoms: N_11  and  N_12 
REMARK    6  A    between atoms: C_13  and  C_14 
ROOT
HETATM    1  C   UNL     1     -42.863  56.040 -56.226  1.00  0.00     0.261 C 
HETATM    2  N   UNL     1     -41.695  55.318 -56.164  1.00  0.00    -0.246 N 
HETATM    3  O   UNL     1     -43.358  56.315 -57.323  1.00  0.00    -0.269 OA
HETATM    4  H   UNL     1     -41.313  55.001 -57.050  1.00  0.00     0.192 HD
ENDROOT
BRANCH   2   5
HETATM    5  N   UNL     1     -41.096  54.992 -54.987  1.00  0.00    -0.184 NA
HETATM    6  C   UNL     1     -41.339  53.796 -54.556  1.00  0.00     0.152 C 
BRANCH   6   7
HETATM    7  C   UNL     1     -40.777  53.359 -53.297  1.00  0.00     0.011 A 
HETATM    8  C   UNL     1     -40.838  54.038 -52.037  1.00  0.00     0.004 A 
HETATM    9  C   UNL     1     -40.149  53.257 -51.108  1.00  0.00     0.043 A 
HETATM   10  C   UNL     1     -41.417  55.248 -51.594  1.00  0.00     0.014 A 
HETATM   11  C   UNL     1     -40.008  53.621 -49.763  1.00  0.00     0.030 A 
HETATM   12  N   UNL     1     -39.685  52.146 -51.776  1.00  0.00    -0.364 N 
HETATM   13  C   UNL     1     -40.594  54.822 -49.353  1.00  0.00     0.002 A 
HETATM   14  C   UNL     1     -41.289  55.625 -50.253  1.00  0.00     0.001 A 
HETATM   15  H   UNL     1     -39.142  51.407 -51.352  1.00  0.00     0.165 HD
HETATM   16  C   UNL     1     -40.060  52.195 -53.090  1.00  0.00     0.102 A 
ENDBRANCH   6   7
ENDBRANCH   2   5
BRANCH   1  17
HETATM   17  C   UNL     1     -43.476  56.512 -54.912  1.00  0.00     0.280 C 
BRANCH  17  18
HETATM   18  O   UNL     1     -43.238  57.901 -54.729  1.00  0.00    -0.341 OA
BRANCH  18  19
HETATM   19  C   UNL     1     -42.445  58.263 -53.672  1.00  0.00     0.086 A 
HETATM   20  C   UNL     1     -43.090  58.665 -52.494  1.00  0.00     0.044 A 
HETATM   21  C   UNL     1     -42.354  59.085 -51.380  1.00  0.00     0.029 A 
HETATM   22 BR   UNL     1     -44.986  58.647 -52.346  1.00  0.00    -0.048 Br
HETATM   23  C   UNL     1     -40.955  59.110 -51.424  1.00  0.00    -0.057 A 
HETATM   24  C   UNL     1     -40.310  58.717 -52.601  1.00  0.00     0.010 A 
HETATM   25  C   UNL     1     -41.047  58.296 -53.715  1.00  0.00     0.039 A 
BRANCH  23  26
HETATM   26  C   UNL     1     -40.158  59.594 -50.240  1.00  0.00     0.034 C 
HETATM   27  C   UNL     1     -38.664  59.596 -50.526  1.00  0.00     0.010 C 
ENDBRANCH  23  26
ENDBRANCH  18  19
ENDBRANCH  17  18
ENDBRANCH   1  17
TORSDOF 6
ENDMDL
MODEL 4
REMARK VINA RESULT:      -7.8      1.812      2.406
REMARK  6 active torsions:
REMARK  status: ('A' for Active; 'I' for Inactive)
REMARK    1  A    between atoms: C_2  and  C_3 
REMARK    2  A    between atoms: C_7  and  O_8 
REMARK    3  A    between atoms: O_8  and  C_9 
REMARK    4  A    between atoms: C_9  and  C_10 
REMARK       I    between atoms: C_10  and  N_11 
REMARK    5  A    between atoms: N_11  and  N_12 
REMARK    6  A    between atoms: C_13  and  C_14 
ROOT
HETATM    1  C   UNL     1     -41.343  58.842 -52.547  1.00  0.00     0.261 C 
HETATM    2  N   UNL     1     -41.673  59.780 -53.497  1.00  0.00    -0.246 N 
HETATM    3  O   UNL     1     -41.580  59.064 -51.357  1.00  0.00    -0.269 OA
HETATM    4  H   UNL     1     -42.150  60.611 -53.163  1.00  0.00     0.192 HD
ENDROOT
BRANCH   2   5
HETATM    5  N   UNL     1     -41.429  59.598 -54.823  1.00  0.00    -0.184 NA
HETATM    6  C   UNL     1     -42.473  59.359 -55.549  1.00  0.00     0.152 C 
BRANCH   6   7
HETATM    7  C   UNL     1     -42.319  59.119 -56.968  1.00  0.00     0.011 A 
HETATM    8  C   UNL     1     -42.551  57.893 -57.671  1.00  0.00     0.004 A 
HETATM    9  C   UNL     1     -42.263  58.123 -59.018  1.00  0.00     0.043 A 
HETATM   10  C   UNL     1     -42.983  56.603 -57.291  1.00  0.00     0.014 A 
HETATM   11  C   UNL     1     -42.382  57.133 -60.000  1.00  0.00     0.030 A 
HETATM   12  N   UNL     1     -41.869  59.437 -59.129  1.00  0.00    -0.364 N 
HETATM   13  C   UNL     1     -42.813  55.866 -59.595  1.00  0.00     0.002 A 
HETATM   14  C   UNL     1     -43.110  55.603 -58.261  1.00  0.00     0.001 A 
HETATM   15  H   UNL     1     -41.591  59.881 -59.994  1.00  0.00     0.165 HD
HETATM   16  C   UNL     1     -41.904  60.046 -57.905  1.00  0.00     0.102 A 
ENDBRANCH   6   7
ENDBRANCH   2   5
BRANCH   1  17
HETATM   17  C   UNL     1     -40.647  57.570 -53.018  1.00  0.00     0.280 C 
BRANCH  17  18
HETATM   18  O   UNL     1     -41.603  56.547 -53.259  1.00  0.00    -0.341 OA
BRANCH  18  19
HETATM   19  C   UNL     1     -41.125  55.273 -53.424  1.00  0.00     0.086 A 
HETATM   20  C   UNL     1     -41.024  54.472 -52.278  1.00  0.00     0.044 A 
HETATM   21  C   UNL     1     -40.513  53.172 -52.354  1.00  0.00     0.029 A 
HETATM   22 BR   UNL     1     -41.587  55.103 -50.574  1.00  0.00    -0.048 Br
HETATM   23  C   UNL     1     -40.092  52.647 -53.581  1.00  0.00    -0.057 A 
HETATM   24  C   UNL     1     -40.185  53.447 -54.724  1.00  0.00     0.010 A 
HETATM   25  C   UNL     1     -40.697  54.748 -54.648  1.00  0.00     0.039 A 
BRANCH  23  26
HETATM   26  C   UNL     1     -39.508  51.260 -53.664  1.00  0.00     0.034 C 
HETATM   27  C   UNL     1     -40.416  50.308 -54.427  1.00  0.00     0.010 C 
ENDBRANCH  23  26
ENDBRANCH  18  19
ENDBRANCH  17  18
ENDBRANCH   1  17
TORSDOF 6
ENDMDL
MODEL 5
REMARK VINA RESULT:      -7.7      2.241      2.770
REMARK  6 active torsions:
REMARK  status: ('A' for Active; 'I' for Inactive)
REMARK    1  A    between atoms: C_2  and  C_3 
REMARK    2  A    between atoms: C_7  and  O_8 
REMARK    3  A    between atoms: O_8  and  C_9 
REMARK    4  A    between atoms: C_9  and  C_10 
REMARK       I    between atoms: C_10  and  N_11 
REMARK    5  A    between atoms: N_11  and  N_12 
REMARK    6  A    between atoms: C_13  and  C_14 
ROOT
HETATM    1  C   UNL     1     -41.694  58.836 -54.474  1.00  0.00     0.261 C 
HETATM    2  N   UNL     1     -41.991  59.009 -55.804  1.00  0.00    -0.246 N 
HETATM    3  O   UNL     1     -41.026  59.685 -53.878  1.00  0.00    -0.269 OA
HETATM    4  H   UNL     1     -41.674  59.875 -56.228  1.00  0.00     0.192 HD
ENDROOT
BRANCH   2   5
HETATM    5  N   UNL     1     -42.715  58.105 -56.518  1.00  0.00    -0.184 NA
HETATM    6  C   UNL     1     -42.403  58.013 -57.771  1.00  0.00     0.152 C 
BRANCH   6   7
HETATM    7  C   UNL     1     -43.134  57.104 -58.626  1.00  0.00     0.011 A 
HETATM    8  C   UNL     1     -44.533  57.137 -58.936  1.00  0.00     0.004 A 
HETATM    9  C   UNL     1     -44.798  56.062 -59.786  1.00  0.00     0.043 A 
HETATM   10  C   UNL     1     -45.603  57.984 -58.575  1.00  0.00     0.014 A 
HETATM   11  C   UNL     1     -46.075  55.790 -60.291  1.00  0.00     0.030 A 
HETATM   12  N   UNL     1     -43.608  55.399 -59.985  1.00  0.00    -0.364 N 
HETATM   13  C   UNL     1     -47.115  56.646 -59.918  1.00  0.00     0.002 A 
HETATM   14  C   UNL     1     -46.886  57.727 -59.073  1.00  0.00     0.001 A 
HETATM   15  H   UNL     1     -43.501  54.571 -60.555  1.00  0.00     0.165 HD
HETATM   16  C   UNL     1     -42.602  56.019 -59.297  1.00  0.00     0.102 A 
ENDBRANCH   6   7
ENDBRANCH   2   5
BRANCH   1  17
HETATM   17  C   UNL     1     -42.176  57.556 -53.800  1.00  0.00     0.280 C 
BRANCH  17  18
HETATM   18  O   UNL     1     -41.081  56.870 -53.208  1.00  0.00    -0.341 OA
BRANCH  18  19
HETATM   19  C   UNL     1     -40.912  55.553 -53.550  1.00  0.00     0.086 A 
HETATM   20  C   UNL     1     -41.237  54.592 -52.583  1.00  0.00     0.044 A 
HETATM   21  C   UNL     1     -41.060  53.228 -52.840  1.00  0.00     0.029 A 
HETATM   22 BR   UNL     1     -41.945  55.089 -50.889  1.00  0.00    -0.048 Br
HETATM   23  C   UNL     1     -40.553  52.799 -54.071  1.00  0.00    -0.057 A 
HETATM   24  C   UNL     1     -40.220  53.757 -55.035  1.00  0.00     0.010 A 
HETATM   25  C   UNL     1     -40.399  55.122 -54.777  1.00  0.00     0.039 A 
BRANCH  23  26
HETATM   26  C   UNL     1     -40.326  51.333 -54.341  1.00  0.00     0.034 C 
HETATM   27  C   UNL     1     -39.588  50.654 -53.197  1.00  0.00     0.010 C 
ENDBRANCH  23  26
ENDBRANCH  18  19
ENDBRANCH  17  18
ENDBRANCH   1  17
TORSDOF 6
ENDMDL
MODEL 6
REMARK VINA RESULT:      -7.7      1.862      2.692
REMARK  6 active torsions:
REMARK  status: ('A' for Active; 'I' for Inactive)
REMARK    1  A    between atoms: C_2  and  C_3 
REMARK    2  A    between atoms: C_7  and  O_8 
REMARK    3  A    between atoms: O_8  and  C_9 
REMARK    4  A    between atoms: C_9  and  C_10 
REMARK       I    between atoms: C_10  and  N_11 
REMARK    5  A    between atoms: N_11  and  N_12 
REMARK    6  A    between atoms: C_13  and  C_14 
ROOT
HETATM    1  C   UNL     1     -41.548  58.215 -54.420  1.00  0.00     0.261 C 
HETATM    2  N   UNL     1     -42.052  58.976 -55.447  1.00  0.00    -0.246 N 
HETATM    3  O   UNL     1     -40.845  58.742 -53.552  1.00  0.00    -0.269 OA
HETATM    4  H   UNL     1     -41.852  59.971 -55.411  1.00  0.00     0.192 HD
ENDROOT
BRANCH   2   5
HETATM    5  N   UNL     1     -42.824  58.453 -56.437  1.00  0.00    -0.184 NA
HETATM    6  C   UNL     1     -42.445  58.736 -57.642  1.00  0.00     0.152 C 
BRANCH   6   7
HETATM    7  C   UNL     1     -43.215  58.255 -58.767  1.00  0.00     0.011 A 
HETATM    8  C   UNL     1     -43.608  56.904 -59.037  1.00  0.00     0.004 A 
HETATM    9  C   UNL     1     -44.324  56.908 -60.235  1.00  0.00     0.043 A 
HETATM   10  C   UNL     1     -43.424  55.671 -58.373  1.00  0.00     0.014 A 
HETATM   11  C   UNL     1     -44.863  55.748 -60.803  1.00  0.00     0.030 A 
HETATM   12  N   UNL     1     -44.364  58.211 -60.679  1.00  0.00    -0.364 N 
HETATM   13  C   UNL     1     -44.667  54.542 -60.123  1.00  0.00     0.002 A 
HETATM   14  C   UNL     1     -43.959  54.502 -58.926  1.00  0.00     0.001 A 
HETATM   15  H   UNL     1     -44.814  58.513 -61.532  1.00  0.00     0.165 HD
HETATM   16  C   UNL     1     -43.706  59.029 -59.803  1.00  0.00     0.102 A 
ENDBRANCH   6   7
ENDBRANCH   2   5
BRANCH   1  17
HETATM   17  C   UNL     1     -41.850  56.721 -54.429  1.00  0.00     0.280 C 
BRANCH  17  18
HETATM   18  O   UNL     1     -41.377  56.116 -53.233  1.00  0.00    -0.341 OA
BRANCH  18  19
HETATM   19  C   UNL     1     -40.975  54.808 -53.312  1.00  0.00     0.086 A 
HETATM   20  C   UNL     1     -40.745  54.133 -52.105  1.00  0.00     0.044 A 
HETATM   21  C   UNL     1     -40.299  52.807 -52.098  1.00  0.00     0.029 A 
HETATM   22 BR   UNL     1     -41.038  54.977 -50.426  1.00  0.00    -0.048 Br
HETATM   23  C   UNL     1     -40.074  52.129 -53.302  1.00  0.00    -0.057 A 
HETATM   24  C   UNL     1     -40.297  52.803 -54.507  1.00  0.00     0.010 A 
HETATM   25  C   UNL     1     -40.744  54.130 -54.513  1.00  0.00     0.039 A 
BRANCH  23  26
HETATM   26  C   UNL     1     -39.561  50.712 -53.302  1.00  0.00     0.034 C 
HETATM   27  C   UNL     1     -39.900  49.987 -54.595  1.00  0.00     0.010 C 
ENDBRANCH  23  26
ENDBRANCH  18  19
ENDBRANCH  17  18
ENDBRANCH   1  17
TORSDOF 6
ENDMDL
MODEL 7
REMARK VINA RESULT:      -7.7      3.059      6.788
REMARK  6 active torsions:
REMARK  status: ('A' for Active; 'I' for Inactive)
REMARK    1  A    between atoms: C_2  and  C_3 
REMARK    2  A    between atoms: C_7  and  O_8 
REMARK    3  A    between atoms: O_8  and  C_9 
REMARK    4  A    between atoms: C_9  and  C_10 
REMARK       I    between atoms: C_10  and  N_11 
REMARK    5  A    between atoms: N_11  and  N_12 
REMARK    6  A    between atoms: C_13  and  C_14 
ROOT
HETATM    1  C   UNL     1     -43.361  56.803 -57.161  1.00  0.00     0.261 C 
HETATM    2  N   UNL     1     -43.180  55.506 -56.744  1.00  0.00    -0.246 N 
HETATM    3  O   UNL     1     -44.108  57.044 -58.114  1.00  0.00    -0.269 OA
HETATM    4  H   UNL     1     -43.721  54.797 -57.228  1.00  0.00     0.192 HD
ENDROOT
BRANCH   2   5
HETATM    5  N   UNL     1     -42.363  55.177 -55.707  1.00  0.00    -0.184 NA
HETATM    6  C   UNL     1     -42.965  54.761 -54.640  1.00  0.00     0.152 C 
BRANCH   6   7
HETATM    7  C   UNL     1     -42.190  54.415 -53.468  1.00  0.00     0.011 A 
HETATM    8  C   UNL     1     -41.258  53.336 -53.331  1.00  0.00     0.004 A 
HETATM    9  C   UNL     1     -40.760  53.377 -52.028  1.00  0.00     0.043 A 
HETATM   10  C   UNL     1     -40.785  52.324 -54.196  1.00  0.00     0.014 A 
HETATM   11  C   UNL     1     -39.818  52.461 -51.544  1.00  0.00     0.030 A 
HETATM   12  N   UNL     1     -41.367  54.438 -51.395  1.00  0.00    -0.364 N 
HETATM   13  C   UNL     1     -39.367  51.471 -52.422  1.00  0.00     0.002 A 
HETATM   14  C   UNL     1     -39.841  51.402 -53.729  1.00  0.00     0.001 A 
HETATM   15  H   UNL     1     -41.202  54.704 -50.434  1.00  0.00     0.165 HD
HETATM   16  C   UNL     1     -42.224  55.071 -52.252  1.00  0.00     0.102 A 
ENDBRANCH   6   7
ENDBRANCH   2   5
BRANCH   1  17
HETATM   17  C   UNL     1     -42.580  57.897 -56.440  1.00  0.00     0.280 C 
BRANCH  17  18
HETATM   18  O   UNL     1     -43.296  58.339 -55.295  1.00  0.00    -0.341 OA
BRANCH  18  19
HETATM   19  C   UNL     1     -42.581  58.505 -54.137  1.00  0.00     0.086 A 
HETATM   20  C   UNL     1     -43.252  59.072 -53.045  1.00  0.00     0.044 A 
HETATM   21  C   UNL     1     -42.584  59.308 -51.838  1.00  0.00     0.029 A 
HETATM   22 BR   UNL     1     -45.095  59.532 -53.142  1.00  0.00    -0.048 Br
HETATM   23  C   UNL     1     -41.231  58.981 -51.700  1.00  0.00    -0.057 A 
HETATM   24  C   UNL     1     -40.558  58.422 -52.792  1.00  0.00     0.010 A 
HETATM   25  C   UNL     1     -41.227  58.185 -54.000  1.00  0.00     0.039 A 
BRANCH  23  26
HETATM   26  C   UNL     1     -40.498  59.265 -50.415  1.00  0.00     0.034 C 
HETATM   27  C   UNL     1     -39.015  59.508 -50.651  1.00  0.00     0.010 C 
ENDBRANCH  23  26
ENDBRANCH  18  19
ENDBRANCH  17  18
ENDBRANCH   1  17
TORSDOF 6
ENDMDL
MODEL 8
REMARK VINA RESULT:      -7.3     14.727     17.138
REMARK  6 active torsions:
REMARK  status: ('A' for Active; 'I' for Inactive)
REMARK    1  A    between atoms: C_2  and  C_3 
REMARK    2  A    between atoms: C_7  and  O_8 
REMARK    3  A    between atoms: O_8  and  C_9 
REMARK    4  A    between atoms: C_9  and  C_10 
REMARK       I    between atoms: C_10  and  N_11 
REMARK    5  A    between atoms: N_11  and  N_12 
REMARK    6  A    between atoms: C_13  and  C_14 
ROOT
HETATM    1  C   UNL     1     -35.924  42.022 -53.821  1.00  0.00     0.261 C 
HETATM    2  N   UNL     1     -36.403  42.671 -54.933  1.00  0.00    -0.246 N 
HETATM    3  O   UNL     1     -36.032  42.546 -52.709  1.00  0.00    -0.269 OA
HETATM    4  H   UNL     1     -36.875  43.555 -54.771  1.00  0.00     0.192 HD
ENDROOT
BRANCH   2   5
HETATM    5  N   UNL     1     -36.305  42.149 -56.186  1.00  0.00    -0.184 NA
HETATM    6  C   UNL     1     -37.404  42.141 -56.869  1.00  0.00     0.152 C 
BRANCH   6   7
HETATM    7  C   UNL     1     -37.416  41.578 -58.201  1.00  0.00     0.011 A 
HETATM    8  C   UNL     1     -37.701  40.223 -58.569  1.00  0.00     0.004 A 
HETATM    9  C   UNL     1     -37.582  40.133 -59.957  1.00  0.00     0.043 A 
HETATM   10  C   UNL     1     -38.052  39.058 -57.852  1.00  0.00     0.014 A 
HETATM   11  C   UNL     1     -37.793  38.943 -60.663  1.00  0.00     0.030 A 
HETATM   12  N   UNL     1     -37.237  41.384 -60.416  1.00  0.00    -0.364 N 
HETATM   13  C   UNL     1     -38.141  37.806 -59.927  1.00  0.00     0.002 A 
HETATM   14  C   UNL     1     -38.270  37.861 -58.542  1.00  0.00     0.001 A 
HETATM   15  H   UNL     1     -37.075  41.615 -61.387  1.00  0.00     0.165 HD
HETATM   16  C   UNL     1     -37.139  42.260 -59.371  1.00  0.00     0.102 A 
ENDBRANCH   6   7
ENDBRANCH   2   5
BRANCH   1  17
HETATM   17  C   UNL     1     -35.229  40.680 -54.026  1.00  0.00     0.280 C 
BRANCH  17  18
HETATM   18  O   UNL     1     -33.860  40.774 -53.658  1.00  0.00    -0.341 OA
BRANCH  18  19
HETATM   19  C   UNL     1     -32.942  40.245 -54.528  1.00  0.00     0.086 A 
HETATM   20  C   UNL     1     -32.025  39.321 -54.009  1.00  0.00     0.044 A 
HETATM   21  C   UNL     1     -31.033  38.761 -54.823  1.00  0.00     0.029 A 
HETATM   22 BR   UNL     1     -32.089  38.774 -52.189  1.00  0.00    -0.048 Br
HETATM   23  C   UNL     1     -30.941  39.116 -56.174  1.00  0.00    -0.057 A 
HETATM   24  C   UNL     1     -31.851  40.044 -56.691  1.00  0.00     0.010 A 
HETATM   25  C   UNL     1     -32.844  40.603 -55.876  1.00  0.00     0.039 A 
BRANCH  23  26
HETATM   26  C   UNL     1     -29.854  38.544 -57.047  1.00  0.00     0.034 C 
HETATM   27  C   UNL     1     -28.602  38.212 -56.248  1.00  0.00     0.010 C 
ENDBRANCH  23  26
ENDBRANCH  18  19
ENDBRANCH  17  18
ENDBRANCH   1  17
TORSDOF 6
ENDMDL
MODEL 9
REMARK VINA RESULT:      -7.3      2.788      5.700
REMARK  6 active torsions:
REMARK  status: ('A' for Active; 'I' for Inactive)
REMARK    1  A    between atoms: C_2  and  C_3 
REMARK    2  A    between atoms: C_7  and  O_8 
REMARK    3  A    between atoms: O_8  and  C_9 
REMARK    4  A    between atoms: C_9  and  C_10 
REMARK       I    between atoms: C_10  and  N_11 
REMARK    5  A    between atoms: N_11  and  N_12 
REMARK    6  A    between atoms: C_13  and  C_14 
ROOT
HETATM    1  C   UNL     1     -42.868  55.533 -56.418  1.00  0.00     0.261 C 
HETATM    2  N   UNL     1     -42.895  56.893 -56.215  1.00  0.00    -0.246 N 
HETATM    3  O   UNL     1     -42.742  55.085 -57.561  1.00  0.00    -0.269 OA
HETATM    4  H   UNL     1     -42.761  57.473 -57.036  1.00  0.00     0.192 HD
ENDROOT
BRANCH   2   5
HETATM    5  N   UNL     1     -43.041  57.447 -54.982  1.00  0.00    -0.184 NA
HETATM    6  C   UNL     1     -42.674  58.685 -54.886  1.00  0.00     0.152 C 
BRANCH   6   7
HETATM    7  C   UNL     1     -42.758  59.360 -53.609  1.00  0.00     0.011 A 
HETATM    8  C   UNL     1     -41.807  59.316 -52.539  1.00  0.00     0.004 A 
HETATM    9  C   UNL     1     -42.307  60.105 -51.502  1.00  0.00     0.043 A 
HETATM   10  C   UNL     1     -40.560  58.678 -52.352  1.00  0.00     0.014 A 
HETATM   11  C   UNL     1     -41.629  60.288 -50.291  1.00  0.00     0.030 A 
HETATM   12  N   UNL     1     -43.517  60.609 -51.924  1.00  0.00    -0.364 N 
HETATM   13  C   UNL     1     -40.397  59.647 -50.134  1.00  0.00     0.002 A 
HETATM   14  C   UNL     1     -39.868  58.854 -51.148  1.00  0.00     0.001 A 
HETATM   15  H   UNL     1     -44.111  61.211 -51.371  1.00  0.00     0.165 HD
HETATM   16  C   UNL     1     -43.795  60.172 -53.189  1.00  0.00     0.102 A 
ENDBRANCH   6   7
ENDBRANCH   2   5
BRANCH   1  17
HETATM   17  C   UNL     1     -43.044  54.631 -55.201  1.00  0.00     0.280 C 
BRANCH  17  18
HETATM   18  O   UNL     1     -41.823  53.967 -54.902  1.00  0.00    -0.341 OA
BRANCH  18  19
HETATM   19  C   UNL     1     -41.377  54.038 -53.608  1.00  0.00     0.086 A 
HETATM   20  C   UNL     1     -40.644  52.946 -53.122  1.00  0.00     0.044 A 
HETATM   21  C   UNL     1     -40.182  52.923 -51.801  1.00  0.00     0.029 A 
HETATM   22 BR   UNL     1     -40.230  51.457 -54.230  1.00  0.00    -0.048 Br
HETATM   23  C   UNL     1     -40.445  53.993 -50.939  1.00  0.00    -0.057 A 
HETATM   24  C   UNL     1     -41.183  55.080 -51.421  1.00  0.00     0.010 A 
HETATM   25  C   UNL     1     -41.644  55.103 -52.742  1.00  0.00     0.039 A 
BRANCH  23  26
HETATM   26  C   UNL     1     -39.981  53.959 -49.506  1.00  0.00     0.034 C 
HETATM   27  C   UNL     1     -40.906  54.748 -48.592  1.00  0.00     0.010 C 
ENDBRANCH  23  26
ENDBRANCH  18  19
ENDBRANCH  17  18
ENDBRANCH   1  17
TORSDOF 6
ENDMDL
MODEL 10
REMARK VINA RESULT:      -7.1      3.244      5.946
REMARK  6 active torsions:
REMARK  status: ('A' for Active; 'I' for Inactive)
REMARK    1  A    between atoms: C_2  and  C_3 
REMARK    2  A    between atoms: C_7  and  O_8 
REMARK    3  A    between atoms: O_8  and  C_9 
REMARK    4  A    between atoms: C_9  and  C_10 
REMARK       I    between atoms: C_10  and  N_11 
REMARK    5  A    between atoms: N_11  and  N_12 
REMARK    6  A    between atoms: C_13  and  C_14 
ROOT
HETATM    1  C   UNL     1     -43.615  59.769 -51.129  1.00  0.00     0.261 C 
HETATM    2  N   UNL     1     -42.465  59.058 -50.878  1.00  0.00    -0.246 N 
HETATM    3  O   UNL     1     -43.597  61.002 -51.085  1.00  0.00    -0.269 OA
HETATM    4  H   UNL     1     -41.626  59.603 -50.709  1.00  0.00     0.192 HD
ENDROOT
BRANCH   2   5
HETATM    5  N   UNL     1     -42.424  57.699 -50.903  1.00  0.00    -0.184 NA
HETATM    6  C   UNL     1     -41.523  57.188 -51.680  1.00  0.00     0.152 C 
BRANCH   6   7
HETATM    7  C   UNL     1     -41.416  55.750 -51.804  1.00  0.00     0.011 A 
HETATM    8  C   UNL     1     -40.979  55.007 -52.948  1.00  0.00     0.004 A 
HETATM    9  C   UNL     1     -41.050  53.653 -52.619  1.00  0.00     0.043 A 
HETATM   10  C   UNL     1     -40.526  55.358 -54.239  1.00  0.00     0.014 A 
HETATM   11  C   UNL     1     -40.694  52.634 -53.511  1.00  0.00     0.030 A 
HETATM   12  N   UNL     1     -41.513  53.574 -51.325  1.00  0.00    -0.364 N 
HETATM   13  C   UNL     1     -40.248  53.011 -54.780  1.00  0.00     0.002 A 
HETATM   14  C   UNL     1     -40.163  54.352 -55.142  1.00  0.00     0.001 A 
HETATM   15  H   UNL     1     -41.672  52.710 -50.824  1.00  0.00     0.165 HD
HETATM   16  C   UNL     1     -41.731  54.827 -50.824  1.00  0.00     0.102 A 
ENDBRANCH   6   7
ENDBRANCH   2   5
BRANCH   1  17
HETATM   17  C   UNL     1     -44.889  58.980 -51.412  1.00  0.00     0.280 C 
BRANCH  17  18
HETATM   18  O   UNL     1     -45.343  59.237 -52.734  1.00  0.00    -0.341 OA
BRANCH  18  19
HETATM   19  C   UNL     1     -44.688  58.596 -53.753  1.00  0.00     0.086 A 
HETATM   20  C   UNL     1     -44.172  59.393 -54.785  1.00  0.00     0.044 A 
HETATM   21  C   UNL     1     -43.521  58.815 -55.880  1.00  0.00     0.029 A 
HETATM   22 BR   UNL     1     -44.316  61.289 -54.741  1.00  0.00    -0.048 Br
HETATM   23  C   UNL     1     -43.374  57.426 -55.965  1.00  0.00    -0.057 A 
HETATM   24  C   UNL     1     -43.895  56.629 -54.940  1.00  0.00     0.010 A 
HETATM   25  C   UNL     1     -44.546  57.208 -53.844  1.00  0.00     0.039 A 
BRANCH  23  26
HETATM   26  C   UNL     1     -42.705  56.794 -57.159  1.00  0.00     0.034 C 
HETATM   27  C   UNL     1     -42.975  55.299 -57.234  1.00  0.00     0.010 C 
ENDBRANCH  23  26
ENDBRANCH  18  19
ENDBRANCH  17  18
ENDBRANCH   1  17
TORSDOF 6
ENDMDL
