MODEL 1
REMARK VINA RESULT:      -6.9      0.000      0.000
REMARK  12 active torsions:
REMARK  status: ('A' for Active; 'I' for Inactive)
REMARK    1  A    between atoms: C_2  and  N_3 
REMARK    2  A    between atoms: N_3  and  C_5 
REMARK    3  A    between atoms: N_3  and  C_37 
REMARK    4  A    between atoms: C_5  and  C_6 
REMARK    5  A    between atoms: C_6  and  N_7 
REMARK    6  A    between atoms: N_7  and  C_8 
REMARK    7  A    between atoms: N_7  and  C_21 
REMARK    8  A    between atoms: C_8  and  N_9 
REMARK    9  A    between atoms: N_9  and  C_10 
REMARK   10  A    between atoms: C_11  and  C_12 
REMARK   11  A    between atoms: C_12  and  O_13 
REMARK   12  A    between atoms: C_21  and  C_22 
ROOT
HETATM    1  N   UNL     1     -44.182  59.306 -54.778  1.00  0.00    -0.352 N 
ENDROOT
BRANCH   1   2
HETATM    2  C   UNL     1     -43.649  59.196 -56.148  1.00  0.00     0.153 C 
BRANCH   2   3
HETATM    3  C   UNL     1     -42.262  58.523 -56.220  1.00  0.00     0.254 C 
BRANCH   3   4
HETATM    4  N   UNL     1     -42.138  57.583 -57.427  1.00  0.00    -0.070 N 
HETATM    5  H   UNL     1     -41.284  57.024 -57.301  1.00  0.00     0.279 HD
BRANCH   4   6
HETATM    6  C   UNL     1     -41.991  58.361 -58.727  1.00  0.00     0.230 C 
HETATM    7  C   UNL     1     -42.079  57.437 -59.930  1.00  0.00     0.034 C 
ENDBRANCH   4   6
BRANCH   4   8
HETATM    8  C   UNL     1     -43.315  56.613 -57.490  1.00  0.00     0.230 C 
HETATM    9  C   UNL     1     -42.911  55.237 -56.987  1.00  0.00     0.034 C 
ENDBRANCH   4   8
ENDBRANCH   3   4
ENDBRANCH   2   3
ENDBRANCH   1   2
BRANCH   1  10
HETATM   10  C   UNL     1     -44.136  60.530 -54.054  1.00  0.00     0.174 C 
HETATM   11  S   UNL     1     -45.406  61.636 -53.992  1.00  0.00    -0.041 SA
BRANCH  10  12
HETATM   12  N   UNL     1     -42.890  60.774 -53.510  1.00  0.00    -0.332 N 
HETATM   13  H   UNL     1     -42.435  61.623 -53.850  1.00  0.00     0.168 HD
BRANCH  12  14
HETATM   14  C   UNL     1     -42.134  60.073 -52.534  1.00  0.00     0.050 A 
HETATM   15  C   UNL     1     -42.286  60.405 -51.164  1.00  0.00     0.066 A 
HETATM   16  C   UNL     1     -41.508  59.745 -50.194  1.00  0.00     0.020 A 
HETATM   17  C   UNL     1     -40.574  58.783 -50.571  1.00  0.00     0.001 A 
HETATM   18  C   UNL     1     -40.396  58.483 -51.916  1.00  0.00     0.002 A 
HETATM   19  C   UNL     1     -41.162  59.130 -52.890  1.00  0.00     0.030 A 
BRANCH  15  20
HETATM   20  C   UNL     1     -43.229  61.493 -50.750  1.00  0.00     0.295 C 
HETATM   21  O   UNL     1     -44.210  61.300 -50.042  1.00  0.00    -0.259 OA
BRANCH  20  22
HETATM   22  O   UNL     1     -42.868  62.687 -51.282  1.00  0.00    -0.322 OA
HETATM   23  C   UNL     1     -42.864  63.773 -50.353  1.00  0.00     0.213 C 
ENDBRANCH  20  22
ENDBRANCH  15  20
ENDBRANCH  12  14
ENDBRANCH  10  12
ENDBRANCH   1  10
BRANCH   1  24
HETATM   24  C   UNL     1     -45.041  58.193 -54.306  1.00  0.00     0.169 C 
BRANCH  24  25
HETATM   25  C   UNL     1     -44.380  57.295 -53.296  1.00  0.00     0.029 A 
HETATM   26  C   UNL     1     -44.547  57.602 -51.841  1.00  0.00     0.253 A 
HETATM   27  O   UNL     1     -45.240  58.532 -51.442  1.00  0.00    -0.268 OA
HETATM   28  N   UNL     1     -43.912  56.778 -50.953  1.00  0.00    -0.322 N 
HETATM   29  C   UNL     1     -43.070  55.725 -51.327  1.00  0.00     0.048 A 
HETATM   30  H   UNL     1     -44.032  57.008 -49.973  1.00  0.00     0.169 HD
HETATM   31  C   UNL     1     -42.881  55.459 -52.689  1.00  0.00    -0.006 A 
HETATM   32  C   UNL     1     -42.419  54.971 -50.353  1.00  0.00     0.070 A 
HETATM   33  C   UNL     1     -42.005  54.445 -53.078  1.00  0.00     0.053 A 
HETATM   34  C   UNL     1     -43.587  56.276 -53.674  1.00  0.00     0.028 A 
HETATM   35  C   UNL     1     -41.326  53.709 -52.108  1.00  0.00     0.103 A 
HETATM   36  C   UNL     1     -41.555  53.951 -50.749  1.00  0.00     0.104 A 
HETATM   37  O   UNL     1     -40.447  52.760 -52.562  1.00  0.00    -0.346 OA
HETATM   38  O   UNL     1     -40.947  53.239 -49.746  1.00  0.00    -0.346 OA
HETATM   39  C   UNL     1     -40.314  52.054 -50.245  1.00  0.00     0.202 C 
HETATM   40  C   UNL     1     -39.546  52.351 -51.523  1.00  0.00     0.202 C 
ENDBRANCH  24  25
ENDBRANCH   1  24
TORSDOF 12
ENDMDL
MODEL 2
REMARK VINA RESULT:      -6.9      2.649      5.701
REMARK  12 active torsions:
REMARK  status: ('A' for Active; 'I' for Inactive)
REMARK    1  A    between atoms: C_2  and  N_3 
REMARK    2  A    between atoms: N_3  and  C_5 
REMARK    3  A    between atoms: N_3  and  C_37 
REMARK    4  A    between atoms: C_5  and  C_6 
REMARK    5  A    between atoms: C_6  and  N_7 
REMARK    6  A    between atoms: N_7  and  C_8 
REMARK    7  A    between atoms: N_7  and  C_21 
REMARK    8  A    between atoms: C_8  and  N_9 
REMARK    9  A    between atoms: N_9  and  C_10 
REMARK   10  A    between atoms: C_11  and  C_12 
REMARK   11  A    between atoms: C_12  and  O_13 
REMARK   12  A    between atoms: C_21  and  C_22 
ROOT
HETATM    1  N   UNL     1     -43.477  57.932 -53.717  1.00  0.00    -0.352 N 
ENDROOT
BRANCH   1   2
HETATM    2  C   UNL     1     -44.526  57.943 -52.680  1.00  0.00     0.153 C 
BRANCH   2   3
HETATM    3  C   UNL     1     -44.266  58.960 -51.548  1.00  0.00     0.254 C 
BRANCH   3   4
HETATM    4  N   UNL     1     -44.340  60.410 -52.046  1.00  0.00    -0.070 N 
HETATM    5  H   UNL     1     -44.511  60.384 -53.059  1.00  0.00     0.279 HD
BRANCH   4   6
HETATM    6  C   UNL     1     -43.028  61.146 -51.819  1.00  0.00     0.230 C 
HETATM    7  C   UNL     1     -42.337  60.657 -50.557  1.00  0.00     0.034 C 
ENDBRANCH   4   6
BRANCH   4   8
HETATM    8  C   UNL     1     -45.511  61.151 -51.403  1.00  0.00     0.230 C 
HETATM    9  C   UNL     1     -46.815  60.818 -52.108  1.00  0.00     0.034 C 
ENDBRANCH   4   8
ENDBRANCH   3   4
ENDBRANCH   2   3
ENDBRANCH   1   2
BRANCH   1  10
HETATM   10  C   UNL     1     -43.764  58.250 -55.073  1.00  0.00     0.174 C 
HETATM   11  S   UNL     1     -45.288  58.704 -55.632  1.00  0.00    -0.041 SA
BRANCH  10  12
HETATM   12  N   UNL     1     -42.686  58.023 -55.907  1.00  0.00    -0.332 N 
HETATM   13  H   UNL     1     -41.778  58.249 -55.499  1.00  0.00     0.168 HD
BRANCH  12  14
HETATM   14  C   UNL     1     -42.607  57.502 -57.225  1.00  0.00     0.050 A 
HETATM   15  C   UNL     1     -42.208  58.352 -58.288  1.00  0.00     0.066 A 
HETATM   16  C   UNL     1     -42.170  57.854 -59.604  1.00  0.00     0.020 A 
HETATM   17  C   UNL     1     -42.540  56.538 -59.874  1.00  0.00     0.001 A 
HETATM   18  C   UNL     1     -42.966  55.714 -58.839  1.00  0.00     0.002 A 
HETATM   19  C   UNL     1     -43.009  56.195 -57.528  1.00  0.00     0.030 A 
BRANCH  15  20
HETATM   20  C   UNL     1     -41.885  59.790 -58.025  1.00  0.00     0.295 C 
HETATM   21  O   UNL     1     -41.283  60.173 -57.029  1.00  0.00    -0.259 OA
BRANCH  20  22
HETATM   22  O   UNL     1     -42.367  60.592 -59.006  1.00  0.00    -0.322 OA
HETATM   23  C   UNL     1     -41.417  61.519 -59.536  1.00  0.00     0.213 C 
ENDBRANCH  20  22
ENDBRANCH  15  20
ENDBRANCH  12  14
ENDBRANCH  10  12
ENDBRANCH   1  10
BRANCH   1  24
HETATM   24  C   UNL     1     -42.073  57.887 -53.242  1.00  0.00     0.169 C 
BRANCH  24  25
HETATM   25  C   UNL     1     -41.627  56.527 -52.779  1.00  0.00     0.029 A 
HETATM   26  C   UNL     1     -41.223  56.349 -51.349  1.00  0.00     0.253 A 
HETATM   27  O   UNL     1     -41.288  57.260 -50.531  1.00  0.00    -0.268 OA
HETATM   28  N   UNL     1     -40.800  55.104 -50.971  1.00  0.00    -0.322 N 
HETATM   29  C   UNL     1     -40.656  54.026 -51.850  1.00  0.00     0.048 A 
HETATM   30  H   UNL     1     -40.525  55.007 -50.000  1.00  0.00     0.169 HD
HETATM   31  C   UNL     1     -40.996  54.200 -53.197  1.00  0.00    -0.006 A 
HETATM   32  C   UNL     1     -40.164  52.807 -51.388  1.00  0.00     0.070 A 
HETATM   33  C   UNL     1     -40.810  53.148 -54.097  1.00  0.00     0.053 A 
HETATM   34  C   UNL     1     -41.510  55.496 -53.636  1.00  0.00     0.028 A 
HETATM   35  C   UNL     1     -40.287  51.938 -53.645  1.00  0.00     0.103 A 
HETATM   36  C   UNL     1     -39.993  51.758 -52.289  1.00  0.00     0.104 A 
HETATM   37  O   UNL     1     -40.088  50.965 -54.590  1.00  0.00    -0.346 OA
HETATM   38  O   UNL     1     -39.510  50.581 -51.774  1.00  0.00    -0.346 OA
HETATM   39  C   UNL     1     -39.638  49.501 -52.710  1.00  0.00     0.202 C 
HETATM   40  C   UNL     1     -39.212  49.941 -54.101  1.00  0.00     0.202 C 
ENDBRANCH  24  25
ENDBRANCH   1  24
TORSDOF 12
ENDMDL
MODEL 3
REMARK VINA RESULT:      -6.6      2.706      4.709
REMARK  12 active torsions:
REMARK  status: ('A' for Active; 'I' for Inactive)
REMARK    1  A    between atoms: C_2  and  N_3 
REMARK    2  A    between atoms: N_3  and  C_5 
REMARK    3  A    between atoms: N_3  and  C_37 
REMARK    4  A    between atoms: C_5  and  C_6 
REMARK    5  A    between atoms: C_6  and  N_7 
REMARK    6  A    between atoms: N_7  and  C_8 
REMARK    7  A    between atoms: N_7  and  C_21 
REMARK    8  A    between atoms: C_8  and  N_9 
REMARK    9  A    between atoms: N_9  and  C_10 
REMARK   10  A    between atoms: C_11  and  C_12 
REMARK   11  A    between atoms: C_12  and  O_13 
REMARK   12  A    between atoms: C_21  and  C_22 
ROOT
HETATM    1  N   UNL     1     -44.554  58.666 -55.637  1.00  0.00    -0.352 N 
ENDROOT
BRANCH   1   2
HETATM    2  C   UNL     1     -45.469  59.120 -56.700  1.00  0.00     0.153 C 
BRANCH   2   3
HETATM    3  C   UNL     1     -46.112  57.965 -57.497  1.00  0.00     0.254 C 
BRANCH   3   4
HETATM    4  N   UNL     1     -45.894  58.115 -59.009  1.00  0.00    -0.070 N 
HETATM    5  H   UNL     1     -44.954  57.757 -59.226  1.00  0.00     0.279 HD
BRANCH   4   6
HETATM    6  C   UNL     1     -45.941  59.575 -59.437  1.00  0.00     0.230 C 
HETATM    7  C   UNL     1     -45.351  59.757 -60.825  1.00  0.00     0.034 C 
ENDBRANCH   4   6
BRANCH   4   8
HETATM    8  C   UNL     1     -46.897  57.273 -59.794  1.00  0.00     0.230 C 
HETATM    9  C   UNL     1     -46.246  56.003 -60.317  1.00  0.00     0.034 C 
ENDBRANCH   4   8
ENDBRANCH   3   4
ENDBRANCH   2   3
ENDBRANCH   1   2
BRANCH   1  10
HETATM   10  C   UNL     1     -43.248  59.211 -55.491  1.00  0.00     0.174 C 
HETATM   11  S   UNL     1     -42.909  60.632 -54.651  1.00  0.00    -0.041 SA
BRANCH  10  12
HETATM   12  N   UNL     1     -42.302  58.517 -56.221  1.00  0.00    -0.332 N 
HETATM   13  H   UNL     1     -41.439  58.313 -55.715  1.00  0.00     0.168 HD
BRANCH  12  14
HETATM   14  C   UNL     1     -42.323  58.006 -57.545  1.00  0.00     0.050 A 
HETATM   15  C   UNL     1     -42.046  58.874 -58.632  1.00  0.00     0.066 A 
HETATM   16  C   UNL     1     -42.107  58.385 -59.950  1.00  0.00     0.020 A 
HETATM   17  C   UNL     1     -42.459  57.060 -60.198  1.00  0.00     0.001 A 
HETATM   18  C   UNL     1     -42.767  56.217 -59.137  1.00  0.00     0.002 A 
HETATM   19  C   UNL     1     -42.709  56.689 -57.823  1.00  0.00     0.030 A 
BRANCH  15  20
HETATM   20  C   UNL     1     -41.745  60.321 -58.386  1.00  0.00     0.295 C 
HETATM   21  O   UNL     1     -40.830  60.705 -57.668  1.00  0.00    -0.259 OA
BRANCH  20  22
HETATM   22  O   UNL     1     -42.627  61.125 -59.030  1.00  0.00    -0.322 OA
HETATM   23  C   UNL     1     -43.382  61.984 -58.174  1.00  0.00     0.213 C 
ENDBRANCH  20  22
ENDBRANCH  15  20
ENDBRANCH  12  14
ENDBRANCH  10  12
ENDBRANCH   1  10
BRANCH   1  24
HETATM   24  C   UNL     1     -45.150  57.858 -54.545  1.00  0.00     0.169 C 
BRANCH  24  25
HETATM   25  C   UNL     1     -44.167  56.971 -53.832  1.00  0.00     0.029 A 
HETATM   26  C   UNL     1     -43.585  57.437 -52.534  1.00  0.00     0.253 A 
HETATM   27  O   UNL     1     -43.917  58.495 -52.010  1.00  0.00    -0.268 OA
HETATM   28  N   UNL     1     -42.676  56.614 -51.927  1.00  0.00    -0.322 N 
HETATM   29  C   UNL     1     -42.214  55.416 -52.480  1.00  0.00     0.048 A 
HETATM   30  H   UNL     1     -42.290  56.952 -51.053  1.00  0.00     0.169 HD
HETATM   31  C   UNL     1     -42.727  54.996 -53.713  1.00  0.00    -0.006 A 
HETATM   32  C   UNL     1     -41.244  54.668 -51.816  1.00  0.00     0.070 A 
HETATM   33  C   UNL     1     -42.239  53.828 -54.302  1.00  0.00     0.053 A 
HETATM   34  C   UNL     1     -43.745  55.813 -54.372  1.00  0.00     0.028 A 
HETATM   35  C   UNL     1     -41.245  53.094 -53.657  1.00  0.00     0.103 A 
HETATM   36  C   UNL     1     -40.770  53.496 -52.404  1.00  0.00     0.104 A 
HETATM   37  O   UNL     1     -40.779  51.984 -54.313  1.00  0.00    -0.346 OA
HETATM   38  O   UNL     1     -39.820  52.800 -51.701  1.00  0.00    -0.346 OA
HETATM   39  C   UNL     1     -39.611  51.490 -52.246  1.00  0.00     0.202 C 
HETATM   40  C   UNL     1     -39.530  51.544 -53.763  1.00  0.00     0.202 C 
ENDBRANCH  24  25
ENDBRANCH   1  24
TORSDOF 12
ENDMDL
MODEL 4
REMARK VINA RESULT:      -6.6      2.936      6.098
REMARK  12 active torsions:
REMARK  status: ('A' for Active; 'I' for Inactive)
REMARK    1  A    between atoms: C_2  and  N_3 
REMARK    2  A    between atoms: N_3  and  C_5 
REMARK    3  A    between atoms: N_3  and  C_37 
REMARK    4  A    between atoms: C_5  and  C_6 
REMARK    5  A    between atoms: C_6  and  N_7 
REMARK    6  A    between atoms: N_7  and  C_8 
REMARK    7  A    between atoms: N_7  and  C_21 
REMARK    8  A    between atoms: C_8  and  N_9 
REMARK    9  A    between atoms: N_9  and  C_10 
REMARK   10  A    between atoms: C_11  and  C_12 
REMARK   11  A    between atoms: C_12  and  O_13 
REMARK   12  A    between atoms: C_21  and  C_22 
ROOT
HETATM    1  N   UNL     1     -43.635  57.722 -54.876  1.00  0.00    -0.352 N 
ENDROOT
BRANCH   1   2
HETATM    2  C   UNL     1     -44.596  57.670 -53.758  1.00  0.00     0.153 C 
BRANCH   2   3
HETATM    3  C   UNL     1     -44.595  58.940 -52.881  1.00  0.00     0.254 C 
BRANCH   3   4
HETATM    4  N   UNL     1     -45.735  59.898 -53.251  1.00  0.00    -0.070 N 
HETATM    5  H   UNL     1     -46.398  59.381 -53.843  1.00  0.00     0.279 HD
BRANCH   4   6
HETATM    6  C   UNL     1     -45.228  61.086 -54.055  1.00  0.00     0.230 C 
HETATM    7  C   UNL     1     -43.718  61.215 -53.948  1.00  0.00     0.034 C 
ENDBRANCH   4   6
BRANCH   4   8
HETATM    8  C   UNL     1     -46.494  60.353 -52.006  1.00  0.00     0.230 C 
HETATM    9  C   UNL     1     -45.787  59.893 -50.742  1.00  0.00     0.034 C 
ENDBRANCH   4   8
ENDBRANCH   3   4
ENDBRANCH   2   3
ENDBRANCH   1   2
BRANCH   1  10
HETATM   10  C   UNL     1     -44.043  58.059 -56.197  1.00  0.00     0.174 C 
HETATM   11  S   UNL     1     -45.642  58.346 -56.644  1.00  0.00    -0.041 SA
BRANCH  10  12
HETATM   12  N   UNL     1     -43.000  58.001 -57.101  1.00  0.00    -0.332 N 
HETATM   13  H   UNL     1     -42.400  57.179 -57.007  1.00  0.00     0.168 HD
BRANCH  12  14
HETATM   14  C   UNL     1     -42.625  58.864 -58.163  1.00  0.00     0.050 A 
HETATM   15  C   UNL     1     -42.516  58.343 -59.479  1.00  0.00     0.066 A 
HETATM   16  C   UNL     1     -42.103  59.182 -60.530  1.00  0.00     0.020 A 
HETATM   17  C   UNL     1     -41.778  60.515 -60.287  1.00  0.00     0.001 A 
HETATM   18  C   UNL     1     -41.848  61.017 -58.993  1.00  0.00     0.002 A 
HETATM   19  C   UNL     1     -42.258  60.196 -57.939  1.00  0.00     0.030 A 
BRANCH  15  20
HETATM   20  C   UNL     1     -42.784  56.893 -59.742  1.00  0.00     0.295 C 
HETATM   21  O   UNL     1     -41.980  56.150 -60.293  1.00  0.00    -0.259 OA
BRANCH  20  22
HETATM   22  O   UNL     1     -44.022  56.535 -59.321  1.00  0.00    -0.322 OA
HETATM   23  C   UNL     1     -45.076  56.870 -60.226  1.00  0.00     0.213 C 
ENDBRANCH  20  22
ENDBRANCH  15  20
ENDBRANCH  12  14
ENDBRANCH  10  12
ENDBRANCH   1  10
BRANCH   1  24
HETATM   24  C   UNL     1     -42.197  57.720 -54.517  1.00  0.00     0.169 C 
BRANCH  24  25
HETATM   25  C   UNL     1     -41.740  56.465 -53.824  1.00  0.00     0.029 A 
HETATM   26  C   UNL     1     -41.366  56.536 -52.377  1.00  0.00     0.253 A 
HETATM   27  O   UNL     1     -41.463  57.570 -51.725  1.00  0.00    -0.268 OA
HETATM   28  N   UNL     1     -40.932  55.380 -51.787  1.00  0.00    -0.322 N 
HETATM   29  C   UNL     1     -40.753  54.173 -52.470  1.00  0.00     0.048 A 
HETATM   30  H   UNL     1     -40.678  55.452 -50.809  1.00  0.00     0.169 HD
HETATM   31  C   UNL     1     -41.064  54.113 -53.834  1.00  0.00    -0.006 A 
HETATM   32  C   UNL     1     -40.253  53.059 -51.801  1.00  0.00     0.070 A 
HETATM   33  C   UNL     1     -40.843  52.930 -54.541  1.00  0.00     0.053 A 
HETATM   34  C   UNL     1     -41.588  55.308 -54.494  1.00  0.00     0.028 A 
HETATM   35  C   UNL     1     -40.312  51.822 -53.882  1.00  0.00     0.103 A 
HETATM   36  C   UNL     1     -40.045  51.877 -52.510  1.00  0.00     0.104 A 
HETATM   37  O   UNL     1     -40.076  50.709 -54.647  1.00  0.00    -0.346 OA
HETATM   38  O   UNL     1     -39.557  50.812 -51.796  1.00  0.00    -0.346 OA
HETATM   39  C   UNL     1     -39.647  49.589 -52.540  1.00  0.00     0.202 C 
HETATM   40  C   UNL     1     -39.196  49.797 -53.976  1.00  0.00     0.202 C 
ENDBRANCH  24  25
ENDBRANCH   1  24
TORSDOF 12
ENDMDL
MODEL 5
REMARK VINA RESULT:      -6.6      3.062      6.610
REMARK  12 active torsions:
REMARK  status: ('A' for Active; 'I' for Inactive)
REMARK    1  A    between atoms: C_2  and  N_3 
REMARK    2  A    between atoms: N_3  and  C_5 
REMARK    3  A    between atoms: N_3  and  C_37 
REMARK    4  A    between atoms: C_5  and  C_6 
REMARK    5  A    between atoms: C_6  and  N_7 
REMARK    6  A    between atoms: N_7  and  C_8 
REMARK    7  A    between atoms: N_7  and  C_21 
REMARK    8  A    between atoms: C_8  and  N_9 
REMARK    9  A    between atoms: N_9  and  C_10 
REMARK   10  A    between atoms: C_11  and  C_12 
REMARK   11  A    between atoms: C_12  and  O_13 
REMARK   12  A    between atoms: C_21  and  C_22 
ROOT
HETATM    1  N   UNL     1     -42.208  55.876 -52.685  1.00  0.00    -0.352 N 
ENDROOT
BRANCH   1   2
HETATM    2  C   UNL     1     -41.470  54.994 -51.763  1.00  0.00     0.153 C 
BRANCH   2   3
HETATM    3  C   UNL     1     -41.438  53.517 -52.211  1.00  0.00     0.254 C 
BRANCH   3   4
HETATM    4  N   UNL     1     -40.162  52.801 -51.749  1.00  0.00    -0.070 N 
HETATM    5  H   UNL     1     -39.430  53.513 -51.627  1.00  0.00     0.279 HD
BRANCH   4   6
HETATM    6  C   UNL     1     -39.670  51.809 -52.793  1.00  0.00     0.230 C 
HETATM    7  C   UNL     1     -40.455  51.941 -54.087  1.00  0.00     0.034 C 
ENDBRANCH   4   6
BRANCH   4   8
HETATM    8  C   UNL     1     -40.372  52.124 -50.396  1.00  0.00     0.230 C 
HETATM    9  C   UNL     1     -40.062  50.639 -50.480  1.00  0.00     0.034 C 
ENDBRANCH   4   8
ENDBRANCH   3   4
ENDBRANCH   2   3
ENDBRANCH   1   2
BRANCH   1  10
HETATM   10  C   UNL     1     -41.554  56.566 -53.743  1.00  0.00     0.174 C 
HETATM   11  S   UNL     1     -41.462  55.995 -55.326  1.00  0.00    -0.041 SA
BRANCH  10  12
HETATM   12  N   UNL     1     -40.892  57.697 -53.305  1.00  0.00    -0.332 N 
HETATM   13  H   UNL     1     -39.997  57.872 -53.766  1.00  0.00     0.168 HD
BRANCH  12  14
HETATM   14  C   UNL     1     -41.244  58.684 -52.348  1.00  0.00     0.050 A 
HETATM   15  C   UNL     1     -41.852  59.890 -52.782  1.00  0.00     0.066 A 
HETATM   16  C   UNL     1     -42.164  60.892 -51.844  1.00  0.00     0.020 A 
HETATM   17  C   UNL     1     -41.862  60.718 -50.496  1.00  0.00     0.001 A 
HETATM   18  C   UNL     1     -41.233  59.553 -50.074  1.00  0.00     0.002 A 
HETATM   19  C   UNL     1     -40.917  58.550 -50.994  1.00  0.00     0.030 A 
BRANCH  15  20
HETATM   20  C   UNL     1     -42.110  60.125 -54.239  1.00  0.00     0.295 C 
HETATM   21  O   UNL     1     -41.369  59.719 -55.126  1.00  0.00    -0.259 OA
BRANCH  20  22
HETATM   22  O   UNL     1     -43.234  60.858 -54.430  1.00  0.00    -0.322 OA
HETATM   23  C   UNL     1     -43.562  61.096 -55.800  1.00  0.00     0.213 C 
ENDBRANCH  20  22
ENDBRANCH  15  20
ENDBRANCH  12  14
ENDBRANCH  10  12
ENDBRANCH   1  10
BRANCH   1  24
HETATM   24  C   UNL     1     -43.687  55.771 -52.666  1.00  0.00     0.169 C 
BRANCH  24  25
HETATM   25  C   UNL     1     -44.394  57.094 -52.545  1.00  0.00     0.029 A 
HETATM   26  C   UNL     1     -44.858  57.780 -53.791  1.00  0.00     0.253 A 
HETATM   27  O   UNL     1     -44.724  57.280 -54.903  1.00  0.00    -0.268 OA
HETATM   28  N   UNL     1     -45.475  58.992 -53.643  1.00  0.00    -0.322 N 
HETATM   29  C   UNL     1     -45.627  59.648 -52.418  1.00  0.00     0.048 A 
HETATM   30  H   UNL     1     -45.775  59.442 -54.500  1.00  0.00     0.169 HD
HETATM   31  C   UNL     1     -45.159  59.026 -51.254  1.00  0.00    -0.006 A 
HETATM   32  C   UNL     1     -46.219  60.908 -52.368  1.00  0.00     0.070 A 
HETATM   33  C   UNL     1     -45.258  59.690 -50.029  1.00  0.00     0.053 A 
HETATM   34  C   UNL     1     -44.546  57.703 -51.355  1.00  0.00     0.028 A 
HETATM   35  C   UNL     1     -45.820  60.965 -49.980  1.00  0.00     0.103 A 
HETATM   36  C   UNL     1     -46.326  61.560 -51.141  1.00  0.00     0.104 A 
HETATM   37  O   UNL     1     -45.843  61.577 -48.753  1.00  0.00    -0.346 OA
HETATM   38  O   UNL     1     -46.923  62.795 -51.153  1.00  0.00    -0.346 OA
HETATM   39  C   UNL     1     -47.235  63.247 -49.828  1.00  0.00     0.202 C 
HETATM   40  C   UNL     1     -46.073  62.987 -48.883  1.00  0.00     0.202 C 
ENDBRANCH  24  25
ENDBRANCH   1  24
TORSDOF 12
ENDMDL
MODEL 6
REMARK VINA RESULT:      -6.6      3.345      6.635
REMARK  12 active torsions:
REMARK  status: ('A' for Active; 'I' for Inactive)
REMARK    1  A    between atoms: C_2  and  N_3 
REMARK    2  A    between atoms: N_3  and  C_5 
REMARK    3  A    between atoms: N_3  and  C_37 
REMARK    4  A    between atoms: C_5  and  C_6 
REMARK    5  A    between atoms: C_6  and  N_7 
REMARK    6  A    between atoms: N_7  and  C_8 
REMARK    7  A    between atoms: N_7  and  C_21 
REMARK    8  A    between atoms: C_8  and  N_9 
REMARK    9  A    between atoms: N_9  and  C_10 
REMARK   10  A    between atoms: C_11  and  C_12 
REMARK   11  A    between atoms: C_12  and  O_13 
REMARK   12  A    between atoms: C_21  and  C_22 
ROOT
HETATM    1  N   UNL     1     -43.191  57.765 -55.058  1.00  0.00    -0.352 N 
ENDROOT
BRANCH   1   2
HETATM    2  C   UNL     1     -44.364  57.792 -54.165  1.00  0.00     0.153 C 
BRANCH   2   3
HETATM    3  C   UNL     1     -44.624  59.173 -53.525  1.00  0.00     0.254 C 
BRANCH   3   4
HETATM    4  N   UNL     1     -43.969  59.301 -52.143  1.00  0.00    -0.070 N 
HETATM    5  H   UNL     1     -43.348  58.491 -52.015  1.00  0.00     0.279 HD
BRANCH   4   6
HETATM    6  C   UNL     1     -45.006  59.267 -51.030  1.00  0.00     0.230 C 
HETATM    7  C   UNL     1     -46.286  59.970 -51.451  1.00  0.00     0.034 C 
ENDBRANCH   4   6
BRANCH   4   8
HETATM    8  C   UNL     1     -43.106  60.558 -52.060  1.00  0.00     0.230 C 
HETATM    9  C   UNL     1     -42.595  60.771 -50.645  1.00  0.00     0.034 C 
ENDBRANCH   4   8
ENDBRANCH   3   4
ENDBRANCH   2   3
ENDBRANCH   1   2
BRANCH   1  10
HETATM   10  C   UNL     1     -43.307  58.028 -56.451  1.00  0.00     0.174 C 
HETATM   11  S   UNL     1     -42.322  59.108 -57.291  1.00  0.00    -0.041 SA
BRANCH  10  12
HETATM   12  N   UNL     1     -44.396  57.396 -57.019  1.00  0.00    -0.332 N 
HETATM   13  H   UNL     1     -44.511  56.419 -56.745  1.00  0.00     0.168 HD
BRANCH  12  14
HETATM   14  C   UNL     1     -45.409  57.868 -57.893  1.00  0.00     0.050 A 
HETATM   15  C   UNL     1     -45.404  57.457 -59.251  1.00  0.00     0.066 A 
HETATM   16  C   UNL     1     -46.379  57.955 -60.135  1.00  0.00     0.020 A 
HETATM   17  C   UNL     1     -47.338  58.864 -59.693  1.00  0.00     0.001 A 
HETATM   18  C   UNL     1     -47.322  59.297 -58.373  1.00  0.00     0.002 A 
HETATM   19  C   UNL     1     -46.360  58.810 -57.484  1.00  0.00     0.030 A 
BRANCH  15  20
HETATM   20  C   UNL     1     -44.332  56.543 -59.760  1.00  0.00     0.295 C 
HETATM   21  O   UNL     1     -43.575  56.840 -60.676  1.00  0.00    -0.259 OA
BRANCH  20  22
HETATM   22  O   UNL     1     -44.339  55.358 -59.100  1.00  0.00    -0.322 OA
HETATM   23  C   UNL     1     -44.724  54.237 -59.898  1.00  0.00     0.213 C 
ENDBRANCH  20  22
ENDBRANCH  15  20
ENDBRANCH  12  14
ENDBRANCH  10  12
ENDBRANCH   1  10
BRANCH   1  24
HETATM   24  C   UNL     1     -41.859  57.766 -54.407  1.00  0.00     0.169 C 
BRANCH  24  25
HETATM   25  C   UNL     1     -41.509  56.472 -53.726  1.00  0.00     0.029 A 
HETATM   26  C   UNL     1     -41.312  56.469 -52.242  1.00  0.00     0.253 A 
HETATM   27  O   UNL     1     -41.470  57.474 -51.557  1.00  0.00    -0.268 OA
HETATM   28  N   UNL     1     -40.970  55.278 -51.660  1.00  0.00    -0.322 N 
HETATM   29  C   UNL     1     -40.729  54.100 -52.374  1.00  0.00     0.048 A 
HETATM   30  H   UNL     1     -40.835  55.300 -50.657  1.00  0.00     0.169 HD
HETATM   31  C   UNL     1     -40.875  54.109 -53.767  1.00  0.00    -0.006 A 
HETATM   32  C   UNL     1     -40.331  52.945 -51.704  1.00  0.00     0.070 A 
HETATM   33  C   UNL     1     -40.588  52.955 -54.498  1.00  0.00     0.053 A 
HETATM   34  C   UNL     1     -41.296  55.343 -54.427  1.00  0.00     0.028 A 
HETATM   35  C   UNL     1     -40.158  51.806 -53.834  1.00  0.00     0.103 A 
HETATM   36  C   UNL     1     -40.058  51.793 -52.438  1.00  0.00     0.104 A 
HETATM   37  O   UNL     1     -39.849  50.725 -54.618  1.00  0.00    -0.346 OA
HETATM   38  O   UNL     1     -39.676  50.686 -51.723  1.00  0.00    -0.346 OA
HETATM   39  C   UNL     1     -39.695  49.501 -52.530  1.00  0.00     0.202 C 
HETATM   40  C   UNL     1     -39.071  49.765 -53.890  1.00  0.00     0.202 C 
ENDBRANCH  24  25
ENDBRANCH   1  24
TORSDOF 12
ENDMDL
MODEL 7
REMARK VINA RESULT:      -6.5      3.173      6.343
REMARK  12 active torsions:
REMARK  status: ('A' for Active; 'I' for Inactive)
REMARK    1  A    between atoms: C_2  and  N_3 
REMARK    2  A    between atoms: N_3  and  C_5 
REMARK    3  A    between atoms: N_3  and  C_37 
REMARK    4  A    between atoms: C_5  and  C_6 
REMARK    5  A    between atoms: C_6  and  N_7 
REMARK    6  A    between atoms: N_7  and  C_8 
REMARK    7  A    between atoms: N_7  and  C_21 
REMARK    8  A    between atoms: C_8  and  N_9 
REMARK    9  A    between atoms: N_9  and  C_10 
REMARK   10  A    between atoms: C_11  and  C_12 
REMARK   11  A    between atoms: C_12  and  O_13 
REMARK   12  A    between atoms: C_21  and  C_22 
ROOT
HETATM    1  N   UNL     1     -43.116  57.702 -55.640  1.00  0.00    -0.352 N 
ENDROOT
BRANCH   1   2
HETATM    2  C   UNL     1     -44.313  57.334 -54.860  1.00  0.00     0.153 C 
BRANCH   2   3
HETATM    3  C   UNL     1     -44.922  58.510 -54.068  1.00  0.00     0.254 C 
BRANCH   3   4
HETATM    4  N   UNL     1     -44.254  58.690 -52.698  1.00  0.00    -0.070 N 
HETATM    5  H   UNL     1     -43.364  58.175 -52.713  1.00  0.00     0.279 HD
BRANCH   4   6
HETATM    6  C   UNL     1     -45.106  58.103 -51.581  1.00  0.00     0.230 C 
HETATM    7  C   UNL     1     -45.519  59.174 -50.586  1.00  0.00     0.034 C 
ENDBRANCH   4   6
BRANCH   4   8
HETATM    8  C   UNL     1     -43.929  60.158 -52.434  1.00  0.00     0.230 C 
HETATM    9  C   UNL     1     -43.623  60.887 -53.732  1.00  0.00     0.034 C 
ENDBRANCH   4   8
ENDBRANCH   3   4
ENDBRANCH   2   3
ENDBRANCH   1   2
BRANCH   1  10
HETATM   10  C   UNL     1     -43.217  58.252 -56.948  1.00  0.00     0.174 C 
HETATM   11  S   UNL     1     -42.163  59.415 -57.564  1.00  0.00    -0.041 SA
BRANCH  10  12
HETATM   12  N   UNL     1     -44.347  57.823 -57.615  1.00  0.00    -0.332 N 
HETATM   13  H   UNL     1     -45.205  58.314 -57.359  1.00  0.00     0.168 HD
BRANCH  12  14
HETATM   14  C   UNL     1     -44.531  56.838 -58.621  1.00  0.00     0.050 A 
HETATM   15  C   UNL     1     -45.606  56.970 -59.537  1.00  0.00     0.066 A 
HETATM   16  C   UNL     1     -45.821  55.976 -60.509  1.00  0.00     0.020 A 
HETATM   17  C   UNL     1     -45.000  54.851 -60.566  1.00  0.00     0.001 A 
HETATM   18  C   UNL     1     -43.970  54.702 -59.646  1.00  0.00     0.002 A 
HETATM   19  C   UNL     1     -43.744  55.681 -58.676  1.00  0.00     0.030 A 
BRANCH  15  20
HETATM   20  C   UNL     1     -46.545  58.132 -59.438  1.00  0.00     0.295 C 
HETATM   21  O   UNL     1     -46.716  58.939 -60.344  1.00  0.00    -0.259 OA
BRANCH  20  22
HETATM   22  O   UNL     1     -47.143  58.181 -58.221  1.00  0.00    -0.322 OA
HETATM   23  C   UNL     1     -47.768  59.430 -57.917  1.00  0.00     0.213 C 
ENDBRANCH  20  22
ENDBRANCH  15  20
ENDBRANCH  12  14
ENDBRANCH  10  12
ENDBRANCH   1  10
BRANCH   1  24
HETATM   24  C   UNL     1     -41.835  57.773 -54.897  1.00  0.00     0.169 C 
BRANCH  24  25
HETATM   25  C   UNL     1     -41.498  56.519 -54.137  1.00  0.00     0.029 A 
HETATM   26  C   UNL     1     -41.314  56.603 -52.654  1.00  0.00     0.253 A 
HETATM   27  O   UNL     1     -41.473  57.648 -52.032  1.00  0.00    -0.268 OA
HETATM   28  N   UNL     1     -40.984  55.448 -52.000  1.00  0.00    -0.322 N 
HETATM   29  C   UNL     1     -40.742  54.228 -52.640  1.00  0.00     0.048 A 
HETATM   30  H   UNL     1     -40.858  55.528 -50.998  1.00  0.00     0.169 HD
HETATM   31  C   UNL     1     -40.875  54.155 -54.032  1.00  0.00    -0.006 A 
HETATM   32  C   UNL     1     -40.356  53.114 -51.898  1.00  0.00     0.070 A 
HETATM   33  C   UNL     1     -40.588  52.958 -54.691  1.00  0.00     0.053 A 
HETATM   34  C   UNL     1     -41.284  55.350 -54.768  1.00  0.00     0.028 A 
HETATM   35  C   UNL     1     -40.170  51.849 -53.956  1.00  0.00     0.103 A 
HETATM   36  C   UNL     1     -40.083  51.918 -52.561  1.00  0.00     0.104 A 
HETATM   37  O   UNL     1     -39.860  50.721 -54.671  1.00  0.00    -0.346 OA
HETATM   38  O   UNL     1     -39.713  50.854 -51.778  1.00  0.00    -0.346 OA
HETATM   39  C   UNL     1     -39.731  49.623 -52.513  1.00  0.00     0.202 C 
HETATM   40  C   UNL     1     -39.094  49.803 -53.881  1.00  0.00     0.202 C 
ENDBRANCH  24  25
ENDBRANCH   1  24
TORSDOF 12
ENDMDL
MODEL 8
REMARK VINA RESULT:      -6.4      2.339      7.011
REMARK  12 active torsions:
REMARK  status: ('A' for Active; 'I' for Inactive)
REMARK    1  A    between atoms: C_2  and  N_3 
REMARK    2  A    between atoms: N_3  and  C_5 
REMARK    3  A    between atoms: N_3  and  C_37 
REMARK    4  A    between atoms: C_5  and  C_6 
REMARK    5  A    between atoms: C_6  and  N_7 
REMARK    6  A    between atoms: N_7  and  C_8 
REMARK    7  A    between atoms: N_7  and  C_21 
REMARK    8  A    between atoms: C_8  and  N_9 
REMARK    9  A    between atoms: N_9  and  C_10 
REMARK   10  A    between atoms: C_11  and  C_12 
REMARK   11  A    between atoms: C_12  and  O_13 
REMARK   12  A    between atoms: C_21  and  C_22 
ROOT
HETATM    1  N   UNL     1     -41.842  56.718 -54.313  1.00  0.00    -0.352 N 
ENDROOT
BRANCH   1   2
HETATM    2  C   UNL     1     -42.226  57.024 -55.703  1.00  0.00     0.153 C 
BRANCH   2   3
HETATM    3  C   UNL     1     -43.575  57.765 -55.823  1.00  0.00     0.254 C 
BRANCH   3   4
HETATM    4  N   UNL     1     -44.416  57.248 -56.997  1.00  0.00    -0.070 N 
HETATM    5  H   UNL     1     -45.095  56.572 -56.623  1.00  0.00     0.279 HD
BRANCH   4   6
HETATM    6  C   UNL     1     -43.557  56.517 -58.019  1.00  0.00     0.230 C 
HETATM    7  C   UNL     1     -43.372  57.351 -59.276  1.00  0.00     0.034 C 
ENDBRANCH   4   6
BRANCH   4   8
HETATM    8  C   UNL     1     -45.208  58.381 -57.647  1.00  0.00     0.230 C 
HETATM    9  C   UNL     1     -46.703  58.147 -57.504  1.00  0.00     0.034 C 
ENDBRANCH   4   8
ENDBRANCH   3   4
ENDBRANCH   2   3
ENDBRANCH   1   2
BRANCH   1  10
HETATM   10  C   UNL     1     -42.158  55.469 -53.708  1.00  0.00     0.174 C 
HETATM   11  S   UNL     1     -43.681  54.751 -53.772  1.00  0.00    -0.041 SA
BRANCH  10  12
HETATM   12  N   UNL     1     -41.113  54.969 -52.955  1.00  0.00    -0.332 N 
HETATM   13  H   UNL     1     -40.622  55.666 -52.393  1.00  0.00     0.168 HD
BRANCH  12  14
HETATM   14  C   UNL     1     -40.614  53.650 -52.794  1.00  0.00     0.050 A 
HETATM   15  C   UNL     1     -40.532  53.090 -51.493  1.00  0.00     0.066 A 
HETATM   16  C   UNL     1     -39.998  51.800 -51.321  1.00  0.00     0.020 A 
HETATM   17  C   UNL     1     -39.529  51.075 -52.414  1.00  0.00     0.001 A 
HETATM   18  C   UNL     1     -39.574  51.637 -53.685  1.00  0.00     0.002 A 
HETATM   19  C   UNL     1     -40.103  52.917 -53.871  1.00  0.00     0.030 A 
BRANCH  15  20
HETATM   20  C   UNL     1     -40.957  53.888 -50.299  1.00  0.00     0.295 C 
HETATM   21  O   UNL     1     -42.100  54.299 -50.137  1.00  0.00    -0.259 OA
BRANCH  20  22
HETATM   22  O   UNL     1     -39.917  54.110 -49.457  1.00  0.00    -0.322 OA
HETATM   23  C   UNL     1     -40.243  54.001 -48.070  1.00  0.00     0.213 C 
ENDBRANCH  20  22
ENDBRANCH  15  20
ENDBRANCH  12  14
ENDBRANCH  10  12
ENDBRANCH   1  10
BRANCH   1  24
HETATM   24  C   UNL     1     -40.852  57.623 -53.681  1.00  0.00     0.169 C 
BRANCH  24  25
HETATM   25  C   UNL     1     -41.455  58.629 -52.740  1.00  0.00     0.029 A 
HETATM   26  C   UNL     1     -41.518  58.302 -51.280  1.00  0.00     0.253 A 
HETATM   27  O   UNL     1     -41.055  57.264 -50.820  1.00  0.00    -0.268 OA
HETATM   28  N   UNL     1     -42.096  59.231 -50.458  1.00  0.00    -0.322 N 
HETATM   29  C   UNL     1     -42.685  60.416 -50.908  1.00  0.00     0.048 A 
HETATM   30  H   UNL     1     -42.134  58.987 -49.475  1.00  0.00     0.169 HD
HETATM   31  C   UNL     1     -42.663  60.706 -52.278  1.00  0.00    -0.006 A 
HETATM   32  C   UNL     1     -43.301  61.279 -50.004  1.00  0.00     0.070 A 
HETATM   33  C   UNL     1     -43.292  61.860 -52.749  1.00  0.00     0.053 A 
HETATM   34  C   UNL     1     -42.004  59.772 -53.189  1.00  0.00     0.028 A 
HETATM   35  C   UNL     1     -43.937  62.710 -51.851  1.00  0.00     0.103 A 
HETATM   36  C   UNL     1     -43.916  62.435 -50.479  1.00  0.00     0.104 A 
HETATM   37  O   UNL     1     -44.573  63.800 -52.388  1.00  0.00    -0.346 OA
HETATM   38  O   UNL     1     -44.500  63.248 -49.542  1.00  0.00    -0.346 OA
HETATM   39  C   UNL     1     -44.848  64.527 -50.091  1.00  0.00     0.202 C 
HETATM   40  C   UNL     1     -45.501  64.368 -51.454  1.00  0.00     0.202 C 
ENDBRANCH  24  25
ENDBRANCH   1  24
TORSDOF 12
ENDMDL
MODEL 9
REMARK VINA RESULT:      -6.3      2.854      6.142
REMARK  12 active torsions:
REMARK  status: ('A' for Active; 'I' for Inactive)
REMARK    1  A    between atoms: C_2  and  N_3 
REMARK    2  A    between atoms: N_3  and  C_5 
REMARK    3  A    between atoms: N_3  and  C_37 
REMARK    4  A    between atoms: C_5  and  C_6 
REMARK    5  A    between atoms: C_6  and  N_7 
REMARK    6  A    between atoms: N_7  and  C_8 
REMARK    7  A    between atoms: N_7  and  C_21 
REMARK    8  A    between atoms: C_8  and  N_9 
REMARK    9  A    between atoms: N_9  and  C_10 
REMARK   10  A    between atoms: C_11  and  C_12 
REMARK   11  A    between atoms: C_12  and  O_13 
REMARK   12  A    between atoms: C_21  and  C_22 
ROOT
HETATM    1  N   UNL     1     -43.408  58.214 -55.639  1.00  0.00    -0.352 N 
ENDROOT
BRANCH   1   2
HETATM    2  C   UNL     1     -42.289  58.774 -54.858  1.00  0.00     0.153 C 
BRANCH   2   3
HETATM    3  C   UNL     1     -42.707  59.923 -53.915  1.00  0.00     0.254 C 
BRANCH   3   4
HETATM    4  N   UNL     1     -41.773  60.043 -52.703  1.00  0.00    -0.070 N 
HETATM    5  H   UNL     1     -41.297  60.953 -52.765  1.00  0.00     0.279 HD
BRANCH   4   6
HETATM    6  C   UNL     1     -40.702  58.962 -52.715  1.00  0.00     0.230 C 
HETATM    7  C   UNL     1     -40.749  58.131 -51.443  1.00  0.00     0.034 C 
ENDBRANCH   4   6
BRANCH   4   8
HETATM    8  C   UNL     1     -42.564  60.028 -51.397  1.00  0.00     0.230 C 
HETATM    9  C   UNL     1     -42.694  61.430 -50.827  1.00  0.00     0.034 C 
ENDBRANCH   4   8
ENDBRANCH   3   4
ENDBRANCH   2   3
ENDBRANCH   1   2
BRANCH   1  10
HETATM   10  C   UNL     1     -43.383  58.178 -57.061  1.00  0.00     0.174 C 
HETATM   11  S   UNL     1     -42.201  58.926 -58.001  1.00  0.00    -0.041 SA
BRANCH  10  12
HETATM   12  N   UNL     1     -44.504  57.570 -57.592  1.00  0.00    -0.332 N 
HETATM   13  H   UNL     1     -45.377  57.789 -57.109  1.00  0.00     0.168 HD
BRANCH  12  14
HETATM   14  C   UNL     1     -44.670  56.717 -58.714  1.00  0.00     0.050 A 
HETATM   15  C   UNL     1     -45.816  56.864 -59.538  1.00  0.00     0.066 A 
HETATM   16  C   UNL     1     -46.011  55.993 -60.626  1.00  0.00     0.020 A 
HETATM   17  C   UNL     1     -45.099  54.974 -60.889  1.00  0.00     0.001 A 
HETATM   18  C   UNL     1     -43.995  54.804 -60.061  1.00  0.00     0.002 A 
HETATM   19  C   UNL     1     -43.789  55.662 -58.977  1.00  0.00     0.030 A 
BRANCH  15  20
HETATM   20  C   UNL     1     -46.847  57.903 -59.220  1.00  0.00     0.295 C 
HETATM   21  O   UNL     1     -47.379  58.009 -58.122  1.00  0.00    -0.259 OA
BRANCH  20  22
HETATM   22  O   UNL     1     -47.122  58.673 -60.302  1.00  0.00    -0.322 OA
HETATM   23  C   UNL     1     -46.171  59.710 -60.551  1.00  0.00     0.213 C 
ENDBRANCH  20  22
ENDBRANCH  15  20
ENDBRANCH  12  14
ENDBRANCH  10  12
ENDBRANCH   1  10
BRANCH   1  24
HETATM   24  C   UNL     1     -44.406  57.414 -54.890  1.00  0.00     0.169 C 
BRANCH  24  25
HETATM   25  C   UNL     1     -43.806  56.472 -53.883  1.00  0.00     0.029 A 
HETATM   26  C   UNL     1     -44.056  56.717 -52.428  1.00  0.00     0.253 A 
HETATM   27  O   UNL     1     -44.771  57.631 -52.030  1.00  0.00    -0.268 OA
HETATM   28  N   UNL     1     -43.473  55.853 -51.540  1.00  0.00    -0.322 N 
HETATM   29  C   UNL     1     -42.612  54.815 -51.910  1.00  0.00     0.048 A 
HETATM   30  H   UNL     1     -43.650  56.041 -50.561  1.00  0.00     0.169 HD
HETATM   31  C   UNL     1     -42.344  54.607 -53.268  1.00  0.00    -0.006 A 
HETATM   32  C   UNL     1     -42.018  54.019 -50.933  1.00  0.00     0.070 A 
HETATM   33  C   UNL     1     -41.447  53.608 -53.650  1.00  0.00     0.053 A 
HETATM   34  C   UNL     1     -42.991  55.468 -54.257  1.00  0.00     0.028 A 
HETATM   35  C   UNL     1     -40.826  52.830 -52.674  1.00  0.00     0.103 A 
HETATM   36  C   UNL     1     -41.133  53.015 -51.321  1.00  0.00     0.104 A 
HETATM   37  O   UNL     1     -39.922  51.899 -53.116  1.00  0.00    -0.346 OA
HETATM   38  O   UNL     1     -40.584  52.259 -50.316  1.00  0.00    -0.346 OA
HETATM   39  C   UNL     1     -39.923  51.094 -50.829  1.00  0.00     0.202 C 
HETATM   40  C   UNL     1     -39.083  51.443 -52.046  1.00  0.00     0.202 C 
ENDBRANCH  24  25
ENDBRANCH   1  24
TORSDOF 12
ENDMDL
MODEL 10
REMARK VINA RESULT:      -6.3      2.447      5.708
REMARK  12 active torsions:
REMARK  status: ('A' for Active; 'I' for Inactive)
REMARK    1  A    between atoms: C_2  and  N_3 
REMARK    2  A    between atoms: N_3  and  C_5 
REMARK    3  A    between atoms: N_3  and  C_37 
REMARK    4  A    between atoms: C_5  and  C_6 
REMARK    5  A    between atoms: C_6  and  N_7 
REMARK    6  A    between atoms: N_7  and  C_8 
REMARK    7  A    between atoms: N_7  and  C_21 
REMARK    8  A    between atoms: C_8  and  N_9 
REMARK    9  A    between atoms: N_9  and  C_10 
REMARK   10  A    between atoms: C_11  and  C_12 
REMARK   11  A    between atoms: C_12  and  O_13 
REMARK   12  A    between atoms: C_21  and  C_22 
ROOT
HETATM    1  N   UNL     1     -43.503  58.592 -54.273  1.00  0.00    -0.352 N 
ENDROOT
BRANCH   1   2
HETATM    2  C   UNL     1     -42.231  58.910 -53.598  1.00  0.00     0.153 C 
BRANCH   2   3
HETATM    3  C   UNL     1     -42.270  60.229 -52.796  1.00  0.00     0.254 C 
BRANCH   3   4
HETATM    4  N   UNL     1     -42.778  60.018 -51.363  1.00  0.00    -0.070 N 
HETATM    5  H   UNL     1     -42.998  59.019 -51.253  1.00  0.00     0.279 HD
BRANCH   4   6
HETATM    6  C   UNL     1     -44.056  60.802 -51.104  1.00  0.00     0.230 C 
HETATM    7  C   UNL     1     -43.927  61.662 -49.857  1.00  0.00     0.034 C 
ENDBRANCH   4   6
BRANCH   4   8
HETATM    8  C   UNL     1     -41.697  60.363 -50.341  1.00  0.00     0.230 C 
HETATM    9  C   UNL     1     -40.680  59.240 -50.228  1.00  0.00     0.034 C 
ENDBRANCH   4   8
ENDBRANCH   3   4
ENDBRANCH   2   3
ENDBRANCH   1   2
BRANCH   1  10
HETATM   10  C   UNL     1     -43.791  59.062 -55.585  1.00  0.00     0.174 C 
HETATM   11  S   UNL     1     -45.300  59.633 -56.070  1.00  0.00    -0.041 SA
BRANCH  10  12
HETATM   12  N   UNL     1     -42.732  58.881 -56.454  1.00  0.00    -0.332 N 
HETATM   13  H   UNL     1     -41.892  59.412 -56.218  1.00  0.00     0.168 HD
BRANCH  12  14
HETATM   14  C   UNL     1     -42.586  58.064 -57.605  1.00  0.00     0.050 A 
HETATM   15  C   UNL     1     -42.092  58.634 -58.806  1.00  0.00     0.066 A 
HETATM   16  C   UNL     1     -41.986  57.841 -59.964  1.00  0.00     0.020 A 
HETATM   17  C   UNL     1     -42.382  56.506 -59.946  1.00  0.00     0.001 A 
HETATM   18  C   UNL     1     -42.901  55.955 -58.781  1.00  0.00     0.002 A 
HETATM   19  C   UNL     1     -43.012  56.731 -57.624  1.00  0.00     0.030 A 
BRANCH  15  20
HETATM   20  C   UNL     1     -41.738  60.088 -58.863  1.00  0.00     0.295 C 
HETATM   21  O   UNL     1     -41.041  60.644 -58.022  1.00  0.00    -0.259 OA
BRANCH  20  22
HETATM   22  O   UNL     1     -42.309  60.694 -59.933  1.00  0.00    -0.322 OA
HETATM   23  C   UNL     1     -41.434  61.555 -60.665  1.00  0.00     0.213 C 
ENDBRANCH  20  22
ENDBRANCH  15  20
ENDBRANCH  12  14
ENDBRANCH  10  12
ENDBRANCH   1  10
BRANCH   1  24
HETATM   24  C   UNL     1     -44.326  57.517 -53.669  1.00  0.00     0.169 C 
BRANCH  24  25
HETATM   25  C   UNL     1     -43.525  56.373 -53.109  1.00  0.00     0.029 A 
HETATM   26  C   UNL     1     -43.196  56.370 -51.650  1.00  0.00     0.253 A 
HETATM   27  O   UNL     1     -43.594  57.243 -50.886  1.00  0.00    -0.268 OA
HETATM   28  N   UNL     1     -42.446  55.326 -51.181  1.00  0.00    -0.322 N 
HETATM   29  C   UNL     1     -41.917  54.317 -51.993  1.00  0.00     0.048 A 
HETATM   30  H   UNL     1     -42.229  55.347 -50.192  1.00  0.00     0.169 HD
HETATM   31  C   UNL     1     -42.191  54.338 -53.366  1.00  0.00    -0.006 A 
HETATM   32  C   UNL     1     -41.116  53.322 -51.438  1.00  0.00     0.070 A 
HETATM   33  C   UNL     1     -41.629  53.367 -54.196  1.00  0.00     0.053 A 
HETATM   34  C   UNL     1     -43.038  55.402 -53.902  1.00  0.00     0.028 A 
HETATM   35  C   UNL     1     -40.800  52.387 -53.650  1.00  0.00     0.103 A 
HETATM   36  C   UNL     1     -40.568  52.347 -52.271  1.00  0.00     0.104 A 
HETATM   37  O   UNL     1     -40.246  51.494 -54.529  1.00  0.00    -0.346 OA
HETATM   38  O   UNL     1     -39.793  51.390 -51.667  1.00  0.00    -0.346 OA
HETATM   39  C   UNL     1     -39.518  50.295 -52.551  1.00  0.00     0.202 C 
HETATM   40  C   UNL     1     -39.141  50.801 -53.934  1.00  0.00     0.202 C 
ENDBRANCH  24  25
ENDBRANCH   1  24
TORSDOF 12
ENDMDL
