MODEL 1
REMARK VINA RESULT:      -8.4      0.000      0.000
REMARK  8 active torsions:
REMARK  status: ('A' for Active; 'I' for Inactive)
REMARK    1  A    between atoms: C_2  and  O_3 
REMARK    2  A    between atoms: O_3  and  C_4 
REMARK    3  A    between atoms: C_5  and  N_6 
REMARK       I    between atoms: N_6  and  C_7 
REMARK    4  A    between atoms: C_7  and  C_8 
REMARK    5  A    between atoms: C_8  and  C_9 
REMARK    6  A    between atoms: C_9  and  S_10 
REMARK    7  A    between atoms: S_10  and  C_11 
REMARK    8  A    between atoms: N_12  and  C_13 
ROOT
HETATM    1  C   UNL     1     -43.546  56.963 -57.882  1.00  0.00     0.177 A 
HETATM    2  N   UNL     1     -44.727  57.698 -57.629  1.00  0.00    -0.274 N 
HETATM    3  C   UNL     1     -45.825  57.549 -58.555  1.00  0.00     0.124 A 
HETATM    4  N   UNL     1     -46.989  58.151 -58.405  1.00  0.00    -0.384 N 
HETATM    5  H   UNL     1     -47.733  58.014 -59.073  1.00  0.00     0.157 HD
HETATM    6  H   UNL     1     -47.156  58.761 -57.616  1.00  0.00     0.157 HD
HETATM    7  C   UNL     1     -45.604  56.677 -59.665  1.00  0.00     0.081 A 
HETATM    8  C   UNL     1     -44.384  56.017 -59.758  1.00  0.00     0.187 A 
HETATM    9  N   UNL     1     -44.303  55.243 -60.831  1.00  0.00    -0.153 NA
HETATM   10  N   UNL     1     -45.494  55.419 -61.432  1.00  0.00    -0.280 N 
HETATM   11  H   UNL     1     -45.666  54.916 -62.299  1.00  0.00     0.189 HD
HETATM   12  C   UNL     1     -46.331  56.293 -60.767  1.00  0.00     0.042 A 
HETATM   13  C   UNL     1     -47.672  56.627 -61.291  1.00  0.00     0.071 C 
HETATM   14  N   UNL     1     -43.332  56.140 -58.865  1.00  0.00    -0.202 NA
ENDROOT
BRANCH   1  15
HETATM   15  S   UNL     1     -42.163  57.133 -56.757  1.00  0.00    -0.091 SA
BRANCH  15  16
HETATM   16  C   UNL     1     -42.440  55.706 -55.646  1.00  0.00     0.091 C 
BRANCH  16  17
HETATM   17  C   UNL     1     -41.178  55.336 -54.878  1.00  0.00     0.113 C 
BRANCH  17  18
HETATM   18  C   UNL     1     -41.327  54.022 -54.135  1.00  0.00     0.223 C 
HETATM   19  N   UNL     1     -40.176  53.264 -54.142  1.00  0.00    -0.325 N 
HETATM   20  H   UNL     1     -39.363  53.650 -54.613  1.00  0.00     0.169 HD
HETATM   21  O   UNL     1     -42.399  53.717 -53.621  1.00  0.00    -0.273 OA
BRANCH  19  22
HETATM   22  C   UNL     1     -39.957  52.010 -53.533  1.00  0.00     0.068 A 
HETATM   23  C   UNL     1     -39.693  51.996 -52.153  1.00  0.00     0.095 A 
HETATM   24  C   UNL     1     -39.525  50.798 -51.457  1.00  0.00     0.039 A 
HETATM   25  C   UNL     1     -39.578  49.591 -52.148  1.00  0.00     0.003 A 
HETATM   26  C   UNL     1     -39.807  49.590 -53.524  1.00  0.00     0.002 A 
HETATM   27  C   UNL     1     -39.999  50.793 -54.214  1.00  0.00     0.032 A 
BRANCH  23  28
HETATM   28  O   UNL     1     -39.617  53.171 -51.442  1.00  0.00    -0.349 OA
BRANCH  28  29
HETATM   29  C   UNL     1     -40.628  53.204 -50.423  1.00  0.00     0.171 C 
HETATM   30  C   UNL     1     -40.070  53.931 -49.214  1.00  0.00     0.034 C 
ENDBRANCH  28  29
ENDBRANCH  23  28
ENDBRANCH  19  22
ENDBRANCH  17  18
ENDBRANCH  16  17
ENDBRANCH  15  16
ENDBRANCH   1  15
BRANCH   2  31
HETATM   31  C   UNL     1     -44.803  58.649 -56.564  1.00  0.00     0.065 A 
HETATM   32  C   UNL     1     -44.533  60.017 -56.775  1.00  0.00     0.061 A 
HETATM   33 CL   UNL     1     -44.035  60.605 -58.322  1.00  0.00    -0.082 Cl
HETATM   34  C   UNL     1     -44.675  60.940 -55.736  1.00  0.00     0.026 A 
HETATM   35  C   UNL     1     -45.086  60.511 -54.475  1.00  0.00     0.002 A 
HETATM   36  C   UNL     1     -45.356  59.162 -54.250  1.00  0.00     0.002 A 
HETATM   37  C   UNL     1     -45.220  58.235 -55.287  1.00  0.00     0.032 A 
ENDBRANCH   2  31
TORSDOF 8
ENDMDL
MODEL 2
REMARK VINA RESULT:      -8.4      2.908      4.869
REMARK  8 active torsions:
REMARK  status: ('A' for Active; 'I' for Inactive)
REMARK    1  A    between atoms: C_2  and  O_3 
REMARK    2  A    between atoms: O_3  and  C_4 
REMARK    3  A    between atoms: C_5  and  N_6 
REMARK       I    between atoms: N_6  and  C_7 
REMARK    4  A    between atoms: C_7  and  C_8 
REMARK    5  A    between atoms: C_8  and  C_9 
REMARK    6  A    between atoms: C_9  and  S_10 
REMARK    7  A    between atoms: S_10  and  C_11 
REMARK    8  A    between atoms: N_12  and  C_13 
ROOT
HETATM    1  C   UNL     1     -43.100  58.834 -57.843  1.00  0.00     0.177 A 
HETATM    2  N   UNL     1     -43.534  58.780 -59.188  1.00  0.00    -0.274 N 
HETATM    3  C   UNL     1     -42.939  59.704 -60.125  1.00  0.00     0.124 A 
HETATM    4  N   UNL     1     -43.233  59.725 -61.410  1.00  0.00    -0.384 N 
HETATM    5  H   UNL     1     -42.789  60.384 -62.033  1.00  0.00     0.157 HD
HETATM    6  H   UNL     1     -43.911  59.080 -61.795  1.00  0.00     0.157 HD
HETATM    7  C   UNL     1     -41.970  60.610 -59.593  1.00  0.00     0.081 A 
HETATM    8  C   UNL     1     -41.646  60.519 -58.245  1.00  0.00     0.187 A 
HETATM    9  N   UNL     1     -40.740  61.413 -57.876  1.00  0.00    -0.153 NA
HETATM   10  N   UNL     1     -40.487  62.087 -59.013  1.00  0.00    -0.280 N 
HETATM   11  H   UNL     1     -39.810  62.844 -58.975  1.00  0.00     0.189 HD
HETATM   12  C   UNL     1     -41.217  61.644 -60.098  1.00  0.00     0.042 A 
HETATM   13  C   UNL     1     -41.090  62.280 -61.426  1.00  0.00     0.071 C 
HETATM   14  N   UNL     1     -42.198  59.624 -57.342  1.00  0.00    -0.202 NA
ENDROOT
BRANCH   1  15
HETATM   15  S   UNL     1     -43.825  57.707 -56.654  1.00  0.00    -0.091 SA
BRANCH  15  16
HETATM   16  C   UNL     1     -42.427  56.562 -56.362  1.00  0.00     0.091 C 
BRANCH  16  17
HETATM   17  C   UNL     1     -42.904  55.130 -56.164  1.00  0.00     0.113 C 
BRANCH  17  18
HETATM   18  C   UNL     1     -42.815  54.694 -54.713  1.00  0.00     0.223 C 
HETATM   19  N   UNL     1     -41.519  54.608 -54.254  1.00  0.00    -0.325 N 
HETATM   20  H   UNL     1     -40.775  54.850 -54.902  1.00  0.00     0.169 HD
HETATM   21  O   UNL     1     -43.833  54.439 -54.077  1.00  0.00    -0.273 OA
BRANCH  19  22
HETATM   22  C   UNL     1     -41.075  54.258 -52.961  1.00  0.00     0.068 A 
HETATM   23  C   UNL     1     -40.456  53.007 -52.805  1.00  0.00     0.095 A 
HETATM   24  C   UNL     1     -39.931  52.604 -51.575  1.00  0.00     0.039 A 
HETATM   25  C   UNL     1     -40.059  53.439 -50.469  1.00  0.00     0.003 A 
HETATM   26  C   UNL     1     -40.699  54.671 -50.601  1.00  0.00     0.002 A 
HETATM   27  C   UNL     1     -41.204  55.081 -51.842  1.00  0.00     0.032 A 
BRANCH  23  28
HETATM   28  O   UNL     1     -40.327  52.150 -53.873  1.00  0.00    -0.349 OA
BRANCH  28  29
HETATM   29  C   UNL     1     -39.459  51.058 -53.536  1.00  0.00     0.171 C 
HETATM   30  C   UNL     1     -39.832  49.862 -54.391  1.00  0.00     0.034 C 
ENDBRANCH  28  29
ENDBRANCH  23  28
ENDBRANCH  19  22
ENDBRANCH  17  18
ENDBRANCH  16  17
ENDBRANCH  15  16
ENDBRANCH   1  15
BRANCH   2  31
HETATM   31  C   UNL     1     -44.608  57.928 -59.594  1.00  0.00     0.065 A 
HETATM   32  C   UNL     1     -44.393  56.573 -59.918  1.00  0.00     0.061 A 
HETATM   33 CL   UNL     1     -42.808  55.887 -59.900  1.00  0.00    -0.082 Cl
HETATM   34  C   UNL     1     -45.465  55.741 -60.250  1.00  0.00     0.026 A 
HETATM   35  C   UNL     1     -46.763  56.251 -60.266  1.00  0.00     0.002 A 
HETATM   36  C   UNL     1     -46.991  57.589 -59.949  1.00  0.00     0.002 A 
HETATM   37  C   UNL     1     -45.923  58.424 -59.611  1.00  0.00     0.032 A 
ENDBRANCH   2  31
TORSDOF 8
ENDMDL
MODEL 3
REMARK VINA RESULT:      -8.4      2.624      4.356
REMARK  8 active torsions:
REMARK  status: ('A' for Active; 'I' for Inactive)
REMARK    1  A    between atoms: C_2  and  O_3 
REMARK    2  A    between atoms: O_3  and  C_4 
REMARK    3  A    between atoms: C_5  and  N_6 
REMARK       I    between atoms: N_6  and  C_7 
REMARK    4  A    between atoms: C_7  and  C_8 
REMARK    5  A    between atoms: C_8  and  C_9 
REMARK    6  A    between atoms: C_9  and  S_10 
REMARK    7  A    between atoms: S_10  and  C_11 
REMARK    8  A    between atoms: N_12  and  C_13 
ROOT
HETATM    1  C   UNL     1     -42.768  58.313 -57.597  1.00  0.00     0.177 A 
HETATM    2  N   UNL     1     -43.173  58.198 -58.946  1.00  0.00    -0.274 N 
HETATM    3  C   UNL     1     -42.737  59.220 -59.869  1.00  0.00     0.124 A 
HETATM    4  N   UNL     1     -43.017  59.201 -61.158  1.00  0.00    -0.384 N 
HETATM    5  H   UNL     1     -42.687  59.933 -61.771  1.00  0.00     0.157 HD
HETATM    6  H   UNL     1     -43.568  58.452 -61.556  1.00  0.00     0.157 HD
HETATM    7  C   UNL     1     -41.945  60.274 -59.320  1.00  0.00     0.081 A 
HETATM    8  C   UNL     1     -41.624  60.228 -57.968  1.00  0.00     0.187 A 
HETATM    9  N   UNL     1     -40.891  61.263 -57.582  1.00  0.00    -0.153 NA
HETATM   10  N   UNL     1     -40.747  61.981 -58.711  1.00  0.00    -0.280 N 
HETATM   11  H   UNL     1     -40.211  62.843 -58.659  1.00  0.00     0.189 HD
HETATM   12  C   UNL     1     -41.378  61.428 -59.808  1.00  0.00     0.042 A 
HETATM   13  C   UNL     1     -41.348  62.088 -61.130  1.00  0.00     0.071 C 
HETATM   14  N   UNL     1     -42.022  59.244 -57.079  1.00  0.00    -0.202 NA
ENDROOT
BRANCH   1  15
HETATM   15  S   UNL     1     -43.300  57.067 -56.424  1.00  0.00    -0.091 SA
BRANCH  15  16
HETATM   16  C   UNL     1     -42.352  57.560 -54.939  1.00  0.00     0.091 C 
BRANCH  16  17
HETATM   17  C   UNL     1     -42.454  56.516 -53.834  1.00  0.00     0.113 C 
BRANCH  17  18
HETATM   18  C   UNL     1     -41.367  55.463 -53.942  1.00  0.00     0.223 C 
HETATM   19  N   UNL     1     -41.717  54.264 -53.363  1.00  0.00    -0.325 N 
HETATM   20  H   UNL     1     -42.642  54.196 -52.947  1.00  0.00     0.169 HD
HETATM   21  O   UNL     1     -40.298  55.727 -54.485  1.00  0.00    -0.273 OA
BRANCH  19  22
HETATM   22  C   UNL     1     -40.962  53.073 -53.302  1.00  0.00     0.068 A 
HETATM   23  C   UNL     1     -40.235  52.826 -52.125  1.00  0.00     0.095 A 
HETATM   24  C   UNL     1     -39.510  51.646 -51.952  1.00  0.00     0.039 A 
HETATM   25  C   UNL     1     -39.470  50.709 -52.982  1.00  0.00     0.003 A 
HETATM   26  C   UNL     1     -40.161  50.955 -54.168  1.00  0.00     0.002 A 
HETATM   27  C   UNL     1     -40.906  52.130 -54.328  1.00  0.00     0.032 A 
BRANCH  23  28
HETATM   28  O   UNL     1     -40.239  53.738 -51.095  1.00  0.00    -0.349 OA
BRANCH  28  29
HETATM   29  C   UNL     1     -40.390  53.067 -49.835  1.00  0.00     0.171 C 
HETATM   30  C   UNL     1     -40.255  54.090 -48.723  1.00  0.00     0.034 C 
ENDBRANCH  28  29
ENDBRANCH  23  28
ENDBRANCH  19  22
ENDBRANCH  17  18
ENDBRANCH  16  17
ENDBRANCH  15  16
ENDBRANCH   1  15
BRANCH   2  31
HETATM   31  C   UNL     1     -44.079  57.177 -59.372  1.00  0.00     0.065 A 
HETATM   32  C   UNL     1     -45.472  57.394 -59.408  1.00  0.00     0.061 A 
HETATM   33 CL   UNL     1     -46.161  58.888 -58.880  1.00  0.00    -0.082 Cl
HETATM   34  C   UNL     1     -46.334  56.406 -59.888  1.00  0.00     0.026 A 
HETATM   35  C   UNL     1     -45.820  55.190 -60.335  1.00  0.00     0.002 A 
HETATM   36  C   UNL     1     -44.445  54.960 -60.305  1.00  0.00     0.002 A 
HETATM   37  C   UNL     1     -43.578  55.947 -59.831  1.00  0.00     0.032 A 
ENDBRANCH   2  31
TORSDOF 8
ENDMDL
MODEL 4
REMARK VINA RESULT:      -8.2      3.615      8.559
REMARK  8 active torsions:
REMARK  status: ('A' for Active; 'I' for Inactive)
REMARK    1  A    between atoms: C_2  and  O_3 
REMARK    2  A    between atoms: O_3  and  C_4 
REMARK    3  A    between atoms: C_5  and  N_6 
REMARK       I    between atoms: N_6  and  C_7 
REMARK    4  A    between atoms: C_7  and  C_8 
REMARK    5  A    between atoms: C_8  and  C_9 
REMARK    6  A    between atoms: C_9  and  S_10 
REMARK    7  A    between atoms: S_10  and  C_11 
REMARK    8  A    between atoms: N_12  and  C_13 
ROOT
HETATM    1  C   UNL     1     -42.155  55.778 -53.105  1.00  0.00     0.177 A 
HETATM    2  N   UNL     1     -42.170  56.563 -51.929  1.00  0.00    -0.274 N 
HETATM    3  C   UNL     1     -41.522  56.029 -50.755  1.00  0.00     0.124 A 
HETATM    4  N   UNL     1     -41.436  56.682 -49.612  1.00  0.00    -0.384 N 
HETATM    5  H   UNL     1     -40.968  56.274 -48.816  1.00  0.00     0.157 HD
HETATM    6  H   UNL     1     -41.838  57.604 -49.514  1.00  0.00     0.157 HD
HETATM    7  C   UNL     1     -40.937  54.732 -50.889  1.00  0.00     0.081 A 
HETATM    8  C   UNL     1     -40.999  54.100 -52.125  1.00  0.00     0.187 A 
HETATM    9  N   UNL     1     -40.425  52.906 -52.117  1.00  0.00    -0.153 NA
HETATM   10  N   UNL     1     -39.993  52.776 -50.849  1.00  0.00    -0.280 N 
HETATM   11  H   UNL     1     -39.513  51.916 -50.597  1.00  0.00     0.189 HD
HETATM   12  C   UNL     1     -40.285  53.861 -50.046  1.00  0.00     0.042 A 
HETATM   13  C   UNL     1     -39.909  53.889 -48.618  1.00  0.00     0.071 C 
HETATM   14  N   UNL     1     -41.602  54.612 -53.262  1.00  0.00    -0.202 NA
ENDROOT
BRANCH   1  15
HETATM   15  S   UNL     1     -42.958  56.409 -54.577  1.00  0.00    -0.091 SA
BRANCH  15  16
HETATM   16  C   UNL     1     -42.061  55.493 -55.882  1.00  0.00     0.091 C 
BRANCH  16  17
HETATM   17  C   UNL     1     -42.902  55.343 -57.144  1.00  0.00     0.113 C 
BRANCH  17  18
HETATM   18  C   UNL     1     -43.193  56.681 -57.798  1.00  0.00     0.223 C 
HETATM   19  N   UNL     1     -42.055  57.341 -58.205  1.00  0.00    -0.325 N 
HETATM   20  H   UNL     1     -41.163  56.880 -58.049  1.00  0.00     0.169 HD
HETATM   21  O   UNL     1     -44.348  57.084 -57.902  1.00  0.00    -0.273 OA
BRANCH  19  22
HETATM   22  C   UNL     1     -41.959  58.586 -58.863  1.00  0.00     0.068 A 
HETATM   23  C   UNL     1     -41.757  59.727 -58.067  1.00  0.00     0.095 A 
HETATM   24  C   UNL     1     -41.589  60.990 -58.636  1.00  0.00     0.039 A 
HETATM   25  C   UNL     1     -41.665  61.134 -60.019  1.00  0.00     0.003 A 
HETATM   26  C   UNL     1     -41.897  60.017 -60.820  1.00  0.00     0.002 A 
HETATM   27  C   UNL     1     -42.041  58.747 -60.246  1.00  0.00     0.032 A 
BRANCH  23  28
HETATM   28  O   UNL     1     -41.694  59.622 -56.697  1.00  0.00    -0.349 OA
BRANCH  28  29
HETATM   29  C   UNL     1     -42.561  60.587 -56.082  1.00  0.00     0.171 C 
HETATM   30  C   UNL     1     -43.866  59.902 -55.721  1.00  0.00     0.034 C 
ENDBRANCH  28  29
ENDBRANCH  23  28
ENDBRANCH  19  22
ENDBRANCH  17  18
ENDBRANCH  16  17
ENDBRANCH  15  16
ENDBRANCH   1  15
BRANCH   2  31
HETATM   31  C   UNL     1     -42.899  57.791 -51.858  1.00  0.00     0.065 A 
HETATM   32  C   UNL     1     -42.300  59.026 -52.182  1.00  0.00     0.061 A 
HETATM   33 CL   UNL     1     -40.632  59.125 -52.623  1.00  0.00    -0.082 Cl
HETATM   34  C   UNL     1     -43.047  60.206 -52.168  1.00  0.00     0.026 A 
HETATM   35  C   UNL     1     -44.399  60.170 -51.829  1.00  0.00     0.002 A 
HETATM   36  C   UNL     1     -45.005  58.957 -51.506  1.00  0.00     0.002 A 
HETATM   37  C   UNL     1     -44.264  57.773 -51.523  1.00  0.00     0.032 A 
ENDBRANCH   2  31
TORSDOF 8
ENDMDL
MODEL 5
REMARK VINA RESULT:      -7.9      2.235      2.971
REMARK  8 active torsions:
REMARK  status: ('A' for Active; 'I' for Inactive)
REMARK    1  A    between atoms: C_2  and  O_3 
REMARK    2  A    between atoms: O_3  and  C_4 
REMARK    3  A    between atoms: C_5  and  N_6 
REMARK       I    between atoms: N_6  and  C_7 
REMARK    4  A    between atoms: C_7  and  C_8 
REMARK    5  A    between atoms: C_8  and  C_9 
REMARK    6  A    between atoms: C_9  and  S_10 
REMARK    7  A    between atoms: S_10  and  C_11 
REMARK    8  A    between atoms: N_12  and  C_13 
ROOT
HETATM    1  C   UNL     1     -42.715  58.590 -55.316  1.00  0.00     0.177 A 
HETATM    2  N   UNL     1     -44.064  58.350 -54.966  1.00  0.00    -0.274 N 
HETATM    3  C   UNL     1     -44.985  58.016 -56.027  1.00  0.00     0.124 A 
HETATM    4  N   UNL     1     -46.257  57.734 -55.823  1.00  0.00    -0.384 N 
HETATM    5  H   UNL     1     -46.866  57.499 -56.593  1.00  0.00     0.157 HD
HETATM    6  H   UNL     1     -46.644  57.748 -54.889  1.00  0.00     0.157 HD
HETATM    7  C   UNL     1     -44.443  57.979 -57.349  1.00  0.00     0.081 A 
HETATM    8  C   UNL     1     -43.086  58.227 -57.517  1.00  0.00     0.187 A 
HETATM    9  N   UNL     1     -42.709  58.167 -58.786  1.00  0.00    -0.153 NA
HETATM   10  N   UNL     1     -43.852  57.878 -59.437  1.00  0.00    -0.280 N 
HETATM   11  H   UNL     1     -43.810  57.784 -60.448  1.00  0.00     0.189 HD
HETATM   12  C   UNL     1     -44.950  57.758 -58.608  1.00  0.00     0.042 A 
HETATM   13  C   UNL     1     -46.295  57.467 -59.146  1.00  0.00     0.071 C 
HETATM   14  N   UNL     1     -42.191  58.531 -56.504  1.00  0.00    -0.202 NA
ENDROOT
BRANCH   1  15
HETATM   15  S   UNL     1     -41.549  59.015 -54.024  1.00  0.00    -0.091 SA
BRANCH  15  16
HETATM   16  C   UNL     1     -40.883  57.364 -53.599  1.00  0.00     0.091 C 
BRANCH  16  17
HETATM   17  C   UNL     1     -41.356  56.298 -54.578  1.00  0.00     0.113 C 
BRANCH  17  18
HETATM   18  C   UNL     1     -40.517  55.036 -54.496  1.00  0.00     0.223 C 
HETATM   19  N   UNL     1     -41.004  54.121 -53.589  1.00  0.00    -0.325 N 
HETATM   20  H   UNL     1     -41.856  54.363 -53.091  1.00  0.00     0.169 HD
HETATM   21  O   UNL     1     -39.506  54.917 -55.182  1.00  0.00    -0.273 OA
BRANCH  19  22
HETATM   22  C   UNL     1     -40.489  52.844 -53.279  1.00  0.00     0.068 A 
HETATM   23  C   UNL     1     -40.084  52.614 -51.953  1.00  0.00     0.095 A 
HETATM   24  C   UNL     1     -39.621  51.362 -51.542  1.00  0.00     0.039 A 
HETATM   25  C   UNL     1     -39.517  50.331 -52.471  1.00  0.00     0.003 A 
HETATM   26  C   UNL     1     -39.885  50.554 -53.797  1.00  0.00     0.002 A 
HETATM   27  C   UNL     1     -40.372  51.804 -54.200  1.00  0.00     0.032 A 
BRANCH  23  28
HETATM   28  O   UNL     1     -40.158  53.616 -51.013  1.00  0.00    -0.349 OA
BRANCH  28  29
HETATM   29  C   UNL     1     -40.478  53.069 -49.725  1.00  0.00     0.171 C 
HETATM   30  C   UNL     1     -40.042  54.057 -48.659  1.00  0.00     0.034 C 
ENDBRANCH  28  29
ENDBRANCH  23  28
ENDBRANCH  19  22
ENDBRANCH  17  18
ENDBRANCH  16  17
ENDBRANCH  15  16
ENDBRANCH   1  15
BRANCH   2  31
HETATM   31  C   UNL     1     -44.537  58.544 -53.631  1.00  0.00     0.065 A 
HETATM   32  C   UNL     1     -44.572  57.486 -52.700  1.00  0.00     0.061 A 
HETATM   33 CL   UNL     1     -44.103  55.883 -53.144  1.00  0.00    -0.082 Cl
HETATM   34  C   UNL     1     -44.977  57.710 -51.382  1.00  0.00     0.026 A 
HETATM   35  C   UNL     1     -45.354  58.990 -50.977  1.00  0.00     0.002 A 
HETATM   36  C   UNL     1     -45.325  60.046 -51.887  1.00  0.00     0.002 A 
HETATM   37  C   UNL     1     -44.915  59.828 -53.205  1.00  0.00     0.032 A 
ENDBRANCH   2  31
TORSDOF 8
ENDMDL
MODEL 6
REMARK VINA RESULT:      -7.9      3.770      9.237
REMARK  8 active torsions:
REMARK  status: ('A' for Active; 'I' for Inactive)
REMARK    1  A    between atoms: C_2  and  O_3 
REMARK    2  A    between atoms: O_3  and  C_4 
REMARK    3  A    between atoms: C_5  and  N_6 
REMARK       I    between atoms: N_6  and  C_7 
REMARK    4  A    between atoms: C_7  and  C_8 
REMARK    5  A    between atoms: C_8  and  C_9 
REMARK    6  A    between atoms: C_9  and  S_10 
REMARK    7  A    between atoms: S_10  and  C_11 
REMARK    8  A    between atoms: N_12  and  C_13 
ROOT
HETATM    1  C   UNL     1     -43.291  56.946 -54.041  1.00  0.00     0.177 A 
HETATM    2  N   UNL     1     -42.195  56.481 -53.280  1.00  0.00    -0.274 N 
HETATM    3  C   UNL     1     -41.701  57.330 -52.221  1.00  0.00     0.124 A 
HETATM    4  N   UNL     1     -40.711  56.990 -51.419  1.00  0.00    -0.384 N 
HETATM    5  H   UNL     1     -40.401  57.612 -50.686  1.00  0.00     0.157 HD
HETATM    6  H   UNL     1     -40.244  56.099 -51.525  1.00  0.00     0.157 HD
HETATM    7  C   UNL     1     -42.364  58.585 -52.054  1.00  0.00     0.081 A 
HETATM    8  C   UNL     1     -43.440  58.883 -52.882  1.00  0.00     0.187 A 
HETATM    9  N   UNL     1     -43.964  60.074 -52.630  1.00  0.00    -0.153 NA
HETATM   10  N   UNL     1     -43.203  60.542 -51.624  1.00  0.00    -0.280 N 
HETATM   11  H   UNL     1     -43.419  61.464 -51.256  1.00  0.00     0.189 HD
HETATM   12  C   UNL     1     -42.201  59.676 -51.233  1.00  0.00     0.042 A 
HETATM   13  C   UNL     1     -41.251  60.029 -50.157  1.00  0.00     0.071 C 
HETATM   14  N   UNL     1     -43.932  58.068 -53.889  1.00  0.00    -0.202 NA
ENDROOT
BRANCH   1  15
HETATM   15  S   UNL     1     -43.922  55.920 -55.368  1.00  0.00    -0.091 SA
BRANCH  15  16
HETATM   16  C   UNL     1     -43.185  56.745 -56.825  1.00  0.00     0.091 C 
BRANCH  16  17
HETATM   17  C   UNL     1     -42.944  55.764 -57.965  1.00  0.00     0.113 C 
BRANCH  17  18
HETATM   18  C   UNL     1     -43.761  56.109 -59.197  1.00  0.00     0.223 C 
HETATM   19  N   UNL     1     -45.036  56.535 -58.896  1.00  0.00    -0.325 N 
HETATM   20  H   UNL     1     -45.293  56.590 -57.915  1.00  0.00     0.169 HD
HETATM   21  O   UNL     1     -43.280  55.978 -60.318  1.00  0.00    -0.273 OA
BRANCH  19  22
HETATM   22  C   UNL     1     -46.047  56.953 -59.788  1.00  0.00     0.068 A 
HETATM   23  C   UNL     1     -46.289  58.334 -59.892  1.00  0.00     0.095 A 
HETATM   24  C   UNL     1     -47.226  58.841 -60.794  1.00  0.00     0.039 A 
HETATM   25  C   UNL     1     -47.968  57.963 -61.579  1.00  0.00     0.003 A 
HETATM   26  C   UNL     1     -47.760  56.588 -61.464  1.00  0.00     0.002 A 
HETATM   27  C   UNL     1     -46.803  56.085 -60.575  1.00  0.00     0.032 A 
BRANCH  23  28
HETATM   28  O   UNL     1     -45.586  59.229 -59.119  1.00  0.00    -0.349 OA
BRANCH  28  29
HETATM   29  C   UNL     1     -46.417  59.737 -58.064  1.00  0.00     0.171 C 
HETATM   30  C   UNL     1     -45.686  59.562 -56.747  1.00  0.00     0.034 C 
ENDBRANCH  28  29
ENDBRANCH  23  28
ENDBRANCH  19  22
ENDBRANCH  17  18
ENDBRANCH  16  17
ENDBRANCH  15  16
ENDBRANCH   1  15
BRANCH   2  31
HETATM   31  C   UNL     1     -41.513  55.268 -53.612  1.00  0.00     0.065 A 
HETATM   32  C   UNL     1     -41.820  54.050 -52.972  1.00  0.00     0.061 A 
HETATM   33 CL   UNL     1     -42.995  53.973 -51.706  1.00  0.00    -0.082 Cl
HETATM   34  C   UNL     1     -41.189  52.865 -53.356  1.00  0.00     0.026 A 
HETATM   35  C   UNL     1     -40.243  52.880 -54.380  1.00  0.00     0.002 A 
HETATM   36  C   UNL     1     -39.928  54.077 -55.022  1.00  0.00     0.002 A 
HETATM   37  C   UNL     1     -40.561  55.264 -54.645  1.00  0.00     0.032 A 
ENDBRANCH   2  31
TORSDOF 8
ENDMDL
MODEL 7
REMARK VINA RESULT:      -7.8      1.128      2.420
REMARK  8 active torsions:
REMARK  status: ('A' for Active; 'I' for Inactive)
REMARK    1  A    between atoms: C_2  and  O_3 
REMARK    2  A    between atoms: O_3  and  C_4 
REMARK    3  A    between atoms: C_5  and  N_6 
REMARK       I    between atoms: N_6  and  C_7 
REMARK    4  A    between atoms: C_7  and  C_8 
REMARK    5  A    between atoms: C_8  and  C_9 
REMARK    6  A    between atoms: C_9  and  S_10 
REMARK    7  A    between atoms: S_10  and  C_11 
REMARK    8  A    between atoms: N_12  and  C_13 
ROOT
HETATM    1  C   UNL     1     -43.587  57.197 -58.015  1.00  0.00     0.177 A 
HETATM    2  N   UNL     1     -44.779  57.915 -57.769  1.00  0.00    -0.274 N 
HETATM    3  C   UNL     1     -45.889  57.706 -58.669  1.00  0.00     0.124 A 
HETATM    4  N   UNL     1     -47.064  58.287 -58.522  1.00  0.00    -0.384 N 
HETATM    5  H   UNL     1     -47.816  58.109 -59.171  1.00  0.00     0.157 HD
HETATM    6  H   UNL     1     -47.231  58.924 -57.754  1.00  0.00     0.157 HD
HETATM    7  C   UNL     1     -45.666  56.797 -59.749  1.00  0.00     0.081 A 
HETATM    8  C   UNL     1     -44.434  56.160 -59.837  1.00  0.00     0.187 A 
HETATM    9  N   UNL     1     -44.353  55.348 -60.881  1.00  0.00    -0.153 NA
HETATM   10  N   UNL     1     -45.558  55.474 -61.468  1.00  0.00    -0.280 N 
HETATM   11  H   UNL     1     -45.732  54.935 -62.312  1.00  0.00     0.189 HD
HETATM   12  C   UNL     1     -46.403  56.354 -60.823  1.00  0.00     0.042 A 
HETATM   13  C   UNL     1     -47.760  56.639 -61.335  1.00  0.00     0.071 C 
HETATM   14  N   UNL     1     -43.370  56.341 -58.969  1.00  0.00    -0.202 NA
ENDROOT
BRANCH   1  15
HETATM   15  S   UNL     1     -42.189  57.440 -56.921  1.00  0.00    -0.091 SA
BRANCH  15  16
HETATM   16  C   UNL     1     -42.152  55.837 -56.041  1.00  0.00     0.091 C 
BRANCH  16  17
HETATM   17  C   UNL     1     -43.380  55.651 -55.158  1.00  0.00     0.113 C 
BRANCH  17  18
HETATM   18  C   UNL     1     -43.013  55.527 -53.691  1.00  0.00     0.223 C 
HETATM   19  N   UNL     1     -41.825  54.862 -53.485  1.00  0.00    -0.325 N 
HETATM   20  H   UNL     1     -41.318  54.542 -54.306  1.00  0.00     0.169 HD
HETATM   21  O   UNL     1     -43.757  55.978 -52.824  1.00  0.00    -0.273 OA
BRANCH  19  22
HETATM   22  C   UNL     1     -41.179  54.590 -52.260  1.00  0.00     0.068 A 
HETATM   23  C   UNL     1     -40.462  53.386 -52.157  1.00  0.00     0.095 A 
HETATM   24  C   UNL     1     -39.743  53.065 -51.005  1.00  0.00     0.039 A 
HETATM   25  C   UNL     1     -39.767  53.933 -49.917  1.00  0.00     0.003 A 
HETATM   26  C   UNL     1     -40.500  55.117 -49.993  1.00  0.00     0.002 A 
HETATM   27  C   UNL     1     -41.202  55.447 -51.159  1.00  0.00     0.032 A 
BRANCH  23  28
HETATM   28  O   UNL     1     -40.431  52.498 -53.207  1.00  0.00    -0.349 OA
BRANCH  28  29
HETATM   29  C   UNL     1     -39.607  51.369 -52.880  1.00  0.00     0.171 C 
HETATM   30  C   UNL     1     -39.741  50.337 -53.985  1.00  0.00     0.034 C 
ENDBRANCH  28  29
ENDBRANCH  23  28
ENDBRANCH  19  22
ENDBRANCH  17  18
ENDBRANCH  16  17
ENDBRANCH  15  16
ENDBRANCH   1  15
BRANCH   2  31
HETATM   31  C   UNL     1     -44.859  58.905 -56.740  1.00  0.00     0.065 A 
HETATM   32  C   UNL     1     -44.576  60.262 -56.997  1.00  0.00     0.061 A 
HETATM   33 CL   UNL     1     -44.055  60.789 -58.558  1.00  0.00    -0.082 Cl
HETATM   34  C   UNL     1     -44.722  61.223 -55.994  1.00  0.00     0.026 A 
HETATM   35  C   UNL     1     -45.149  60.843 -54.723  1.00  0.00     0.002 A 
HETATM   36  C   UNL     1     -45.433  59.505 -54.453  1.00  0.00     0.002 A 
HETATM   37  C   UNL     1     -45.294  58.540 -55.454  1.00  0.00     0.032 A 
ENDBRANCH   2  31
TORSDOF 8
ENDMDL
MODEL 8
REMARK VINA RESULT:      -7.7      3.055      5.154
REMARK  8 active torsions:
REMARK  status: ('A' for Active; 'I' for Inactive)
REMARK    1  A    between atoms: C_2  and  O_3 
REMARK    2  A    between atoms: O_3  and  C_4 
REMARK    3  A    between atoms: C_5  and  N_6 
REMARK       I    between atoms: N_6  and  C_7 
REMARK    4  A    between atoms: C_7  and  C_8 
REMARK    5  A    between atoms: C_8  and  C_9 
REMARK    6  A    between atoms: C_9  and  S_10 
REMARK    7  A    between atoms: S_10  and  C_11 
REMARK    8  A    between atoms: N_12  and  C_13 
ROOT
HETATM    1  C   UNL     1     -42.456  58.674 -57.849  1.00  0.00     0.177 A 
HETATM    2  N   UNL     1     -43.099  58.645 -59.108  1.00  0.00    -0.274 N 
HETATM    3  C   UNL     1     -42.833  59.729 -60.024  1.00  0.00     0.124 A 
HETATM    4  N   UNL     1     -43.342  59.794 -61.239  1.00  0.00    -0.384 N 
HETATM    5  H   UNL     1     -43.125  60.567 -61.851  1.00  0.00     0.157 HD
HETATM    6  H   UNL     1     -43.960  59.069 -61.579  1.00  0.00     0.157 HD
HETATM    7  C   UNL     1     -41.949  60.750 -59.558  1.00  0.00     0.081 A 
HETATM    8  C   UNL     1     -41.389  60.617 -58.294  1.00  0.00     0.187 A 
HETATM    9  N   UNL     1     -40.593  61.629 -57.979  1.00  0.00    -0.153 NA
HETATM   10  N   UNL     1     -40.652  62.422 -59.065  1.00  0.00    -0.280 N 
HETATM   11  H   UNL     1     -40.112  63.282 -59.054  1.00  0.00     0.189 HD
HETATM   12  C   UNL     1     -41.475  61.939 -60.064  1.00  0.00     0.042 A 
HETATM   13  C   UNL     1     -41.683  62.685 -61.322  1.00  0.00     0.071 C 
HETATM   14  N   UNL     1     -41.623  59.573 -57.414  1.00  0.00    -0.202 NA
ENDROOT
BRANCH   1  15
HETATM   15  S   UNL     1     -42.771  57.348 -56.686  1.00  0.00    -0.091 SA
BRANCH  15  16
HETATM   16  C   UNL     1     -43.652  58.252 -55.360  1.00  0.00     0.091 C 
BRANCH  16  17
HETATM   17  C   UNL     1     -42.784  58.418 -54.120  1.00  0.00     0.113 C 
BRANCH  17  18
HETATM   18  C   UNL     1     -42.890  57.227 -53.186  1.00  0.00     0.223 C 
HETATM   19  N   UNL     1     -41.696  56.913 -52.574  1.00  0.00    -0.325 N 
HETATM   20  H   UNL     1     -40.892  57.496 -52.787  1.00  0.00     0.169 HD
HETATM   21  O   UNL     1     -43.957  56.636 -53.051  1.00  0.00    -0.273 OA
BRANCH  19  22
HETATM   22  C   UNL     1     -41.442  55.889 -51.637  1.00  0.00     0.068 A 
HETATM   23  C   UNL     1     -40.951  54.667 -52.130  1.00  0.00     0.095 A 
HETATM   24  C   UNL     1     -40.612  53.620 -51.270  1.00  0.00     0.039 A 
HETATM   25  C   UNL     1     -40.803  53.770 -49.900  1.00  0.00     0.003 A 
HETATM   26  C   UNL     1     -41.319  54.965 -49.399  1.00  0.00     0.002 A 
HETATM   27  C   UNL     1     -41.635  56.021 -50.262  1.00  0.00     0.032 A 
BRANCH  23  28
HETATM   28  O   UNL     1     -40.766  54.480 -53.480  1.00  0.00    -0.349 OA
BRANCH  28  29
HETATM   29  C   UNL     1     -41.565  53.382 -53.945  1.00  0.00     0.171 C 
HETATM   30  C   UNL     1     -42.602  53.915 -54.915  1.00  0.00     0.034 C 
ENDBRANCH  28  29
ENDBRANCH  23  28
ENDBRANCH  19  22
ENDBRANCH  17  18
ENDBRANCH  16  17
ENDBRANCH  15  16
ENDBRANCH   1  15
BRANCH   2  31
HETATM   31  C   UNL     1     -44.072  57.648 -59.429  1.00  0.00     0.065 A 
HETATM   32  C   UNL     1     -45.436  57.819 -59.115  1.00  0.00     0.061 A 
HETATM   33 CL   UNL     1     -45.993  59.219 -58.269  1.00  0.00    -0.082 Cl
HETATM   34  C   UNL     1     -46.380  56.862 -59.495  1.00  0.00     0.026 A 
HETATM   35  C   UNL     1     -45.976  55.723 -60.190  1.00  0.00     0.002 A 
HETATM   36  C   UNL     1     -44.631  55.539 -60.507  1.00  0.00     0.002 A 
HETATM   37  C   UNL     1     -43.683  56.496 -60.133  1.00  0.00     0.032 A 
ENDBRANCH   2  31
TORSDOF 8
ENDMDL
MODEL 9
REMARK VINA RESULT:      -7.6      3.328      8.816
REMARK  8 active torsions:
REMARK  status: ('A' for Active; 'I' for Inactive)
REMARK    1  A    between atoms: C_2  and  O_3 
REMARK    2  A    between atoms: O_3  and  C_4 
REMARK    3  A    between atoms: C_5  and  N_6 
REMARK       I    between atoms: N_6  and  C_7 
REMARK    4  A    between atoms: C_7  and  C_8 
REMARK    5  A    between atoms: C_8  and  C_9 
REMARK    6  A    between atoms: C_9  and  S_10 
REMARK    7  A    between atoms: S_10  and  C_11 
REMARK    8  A    between atoms: N_12  and  C_13 
ROOT
HETATM    1  C   UNL     1     -41.653  56.180 -53.310  1.00  0.00     0.177 A 
HETATM    2  N   UNL     1     -41.841  56.695 -52.007  1.00  0.00    -0.274 N 
HETATM    3  C   UNL     1     -41.457  55.861 -50.892  1.00  0.00     0.124 A 
HETATM    4  N   UNL     1     -41.548  56.245 -49.633  1.00  0.00    -0.384 N 
HETATM    5  H   UNL     1     -41.262  55.633 -48.883  1.00  0.00     0.157 HD
HETATM    6  H   UNL     1     -41.906  57.161 -49.398  1.00  0.00     0.157 HD
HETATM    7  C   UNL     1     -40.935  54.571 -51.215  1.00  0.00     0.081 A 
HETATM    8  C   UNL     1     -40.802  54.225 -52.555  1.00  0.00     0.187 A 
HETATM    9  N   UNL     1     -40.312  53.005 -52.720  1.00  0.00    -0.153 NA
HETATM   10  N   UNL     1     -40.133  52.567 -51.461  1.00  0.00    -0.280 N 
HETATM   11  H   UNL     1     -39.760  51.631 -51.333  1.00  0.00     0.189 HD
HETATM   12  C   UNL     1     -40.505  53.481 -50.495  1.00  0.00     0.042 A 
HETATM   13  C   UNL     1     -40.402  53.168 -49.054  1.00  0.00     0.071 C 
HETATM   14  N   UNL     1     -41.151  55.024 -53.631  1.00  0.00    -0.202 NA
ENDROOT
BRANCH   1  15
HETATM   15  S   UNL     1     -42.128  57.185 -54.715  1.00  0.00    -0.091 SA
BRANCH  15  16
HETATM   16  C   UNL     1     -43.292  56.061 -55.569  1.00  0.00     0.091 C 
BRANCH  16  17
HETATM   17  C   UNL     1     -42.675  55.460 -56.826  1.00  0.00     0.113 C 
BRANCH  17  18
HETATM   18  C   UNL     1     -43.327  55.989 -58.090  1.00  0.00     0.223 C 
HETATM   19  N   UNL     1     -44.467  56.722 -57.844  1.00  0.00    -0.325 N 
HETATM   20  H   UNL     1     -44.745  56.846 -56.875  1.00  0.00     0.169 HD
HETATM   21  O   UNL     1     -42.846  55.735 -59.191  1.00  0.00    -0.273 OA
BRANCH  19  22
HETATM   22  C   UNL     1     -45.302  57.372 -58.777  1.00  0.00     0.068 A 
HETATM   23  C   UNL     1     -45.168  58.766 -58.907  1.00  0.00     0.095 A 
HETATM   24  C   UNL     1     -45.909  59.482 -59.848  1.00  0.00     0.039 A 
HETATM   25  C   UNL     1     -46.831  58.814 -60.648  1.00  0.00     0.003 A 
HETATM   26  C   UNL     1     -46.998  57.436 -60.509  1.00  0.00     0.002 A 
HETATM   27  C   UNL     1     -46.236  56.717 -59.580  1.00  0.00     0.032 A 
BRANCH  23  28
HETATM   28  O   UNL     1     -44.279  59.459 -58.120  1.00  0.00    -0.349 OA
BRANCH  28  29
HETATM   29  C   UNL     1     -43.330  60.160 -58.939  1.00  0.00     0.171 C 
HETATM   30  C   UNL     1     -42.036  59.368 -58.963  1.00  0.00     0.034 C 
ENDBRANCH  28  29
ENDBRANCH  23  28
ENDBRANCH  19  22
ENDBRANCH  17  18
ENDBRANCH  16  17
ENDBRANCH  15  16
ENDBRANCH   1  15
BRANCH   2  31
HETATM   31  C   UNL     1     -42.497  57.946 -51.784  1.00  0.00     0.065 A 
HETATM   32  C   UNL     1     -41.772  59.150 -51.677  1.00  0.00     0.061 A 
HETATM   33 CL   UNL     1     -40.045  59.167 -51.747  1.00  0.00    -0.082 Cl
HETATM   34  C   UNL     1     -42.435  60.370 -51.523  1.00  0.00     0.026 A 
HETATM   35  C   UNL     1     -43.828  60.403 -51.472  1.00  0.00     0.002 A 
HETATM   36  C   UNL     1     -44.559  59.220 -51.577  1.00  0.00     0.002 A 
HETATM   37  C   UNL     1     -43.900  57.998 -51.736  1.00  0.00     0.032 A 
ENDBRANCH   2  31
TORSDOF 8
ENDMDL
MODEL 10
REMARK VINA RESULT:      -7.5      3.316      9.368
REMARK  8 active torsions:
REMARK  status: ('A' for Active; 'I' for Inactive)
REMARK    1  A    between atoms: C_2  and  O_3 
REMARK    2  A    between atoms: O_3  and  C_4 
REMARK    3  A    between atoms: C_5  and  N_6 
REMARK       I    between atoms: N_6  and  C_7 
REMARK    4  A    between atoms: C_7  and  C_8 
REMARK    5  A    between atoms: C_8  and  C_9 
REMARK    6  A    between atoms: C_9  and  S_10 
REMARK    7  A    between atoms: S_10  and  C_11 
REMARK    8  A    between atoms: N_12  and  C_13 
ROOT
HETATM    1  C   UNL     1     -40.570  53.969 -53.888  1.00  0.00     0.177 A 
HETATM    2  N   UNL     1     -40.749  54.096 -52.491  1.00  0.00    -0.274 N 
HETATM    3  C   UNL     1     -40.448  52.948 -51.667  1.00  0.00     0.124 A 
HETATM    4  N   UNL     1     -40.538  52.955 -50.352  1.00  0.00    -0.384 N 
HETATM    5  H   UNL     1     -40.312  52.132 -49.812  1.00  0.00     0.157 HD
HETATM    6  H   UNL     1     -40.836  53.787 -49.859  1.00  0.00     0.157 HD
HETATM    7  C   UNL     1     -40.012  51.773 -52.353  1.00  0.00     0.081 A 
HETATM    8  C   UNL     1     -39.875  51.823 -53.735  1.00  0.00     0.187 A 
HETATM    9  N   UNL     1     -39.469  50.671 -54.250  1.00  0.00    -0.153 NA
HETATM   10  N   UNL     1     -39.348  49.874 -53.172  1.00  0.00    -0.280 N 
HETATM   11  H   UNL     1     -39.045  48.915 -53.323  1.00  0.00     0.189 HD
HETATM   12  C   UNL     1     -39.675  50.492 -51.982  1.00  0.00     0.042 A 
HETATM   13  C   UNL     1     -39.625  49.767 -50.695  1.00  0.00     0.071 C 
HETATM   14  N   UNL     1     -40.144  52.923 -54.532  1.00  0.00    -0.202 NA
ENDROOT
BRANCH   1  15
HETATM   15  S   UNL     1     -40.943  55.372 -54.938  1.00  0.00    -0.091 SA
BRANCH  15  16
HETATM   16  C   UNL     1     -42.637  54.954 -55.489  1.00  0.00     0.091 C 
BRANCH  16  17
HETATM   17  C   UNL     1     -42.835  55.245 -56.971  1.00  0.00     0.113 C 
BRANCH  17  18
HETATM   18  C   UNL     1     -43.556  56.560 -57.202  1.00  0.00     0.223 C 
HETATM   19  N   UNL     1     -44.380  56.538 -58.305  1.00  0.00    -0.325 N 
HETATM   20  H   UNL     1     -44.436  55.671 -58.832  1.00  0.00     0.169 HD
HETATM   21  O   UNL     1     -43.363  57.514 -56.454  1.00  0.00    -0.273 OA
BRANCH  19  22
HETATM   22  C   UNL     1     -45.208  57.571 -58.794  1.00  0.00     0.068 A 
HETATM   23  C   UNL     1     -44.733  58.324 -59.882  1.00  0.00     0.095 A 
HETATM   24  C   UNL     1     -45.510  59.323 -60.469  1.00  0.00     0.039 A 
HETATM   25  C   UNL     1     -46.766  59.612 -59.944  1.00  0.00     0.003 A 
HETATM   26  C   UNL     1     -47.239  58.896 -58.844  1.00  0.00     0.002 A 
HETATM   27  C   UNL     1     -46.465  57.878 -58.272  1.00  0.00     0.032 A 
BRANCH  23  28
HETATM   28  O   UNL     1     -43.490  58.075 -60.415  1.00  0.00    -0.349 OA
BRANCH  28  29
HETATM   29  C   UNL     1     -42.541  59.042 -59.940  1.00  0.00     0.171 C 
HETATM   30  C   UNL     1     -41.901  59.719 -61.137  1.00  0.00     0.034 C 
ENDBRANCH  28  29
ENDBRANCH  23  28
ENDBRANCH  19  22
ENDBRANCH  17  18
ENDBRANCH  16  17
ENDBRANCH  15  16
ENDBRANCH   1  15
BRANCH   2  31
HETATM   31  C   UNL     1     -41.319  55.272 -51.913  1.00  0.00     0.065 A 
HETATM   32  C   UNL     1     -42.701  55.370 -51.651  1.00  0.00     0.061 A 
HETATM   33 CL   UNL     1     -43.788  54.095 -52.074  1.00  0.00    -0.082 Cl
HETATM   34  C   UNL     1     -43.229  56.503 -51.026  1.00  0.00     0.026 A 
HETATM   35  C   UNL     1     -42.387  57.551 -50.657  1.00  0.00     0.002 A 
HETATM   36  C   UNL     1     -41.019  57.469 -50.910  1.00  0.00     0.002 A 
HETATM   37  C   UNL     1     -40.485  56.336 -51.530  1.00  0.00     0.032 A 
ENDBRANCH   2  31
TORSDOF 8
ENDMDL
