MODEL 1
REMARK VINA RESULT:      -7.2      0.000      0.000
REMARK  8 active torsions:
REMARK  status: ('A' for Active; 'I' for Inactive)
REMARK    1  A    between atoms: C_2  and  C_3 
REMARK    2  A    between atoms: C_3  and  N_4 
REMARK    3  A    between atoms: N_4  and  C_5 
REMARK    4  A    between atoms: C_7  and  N_8 
REMARK    5  A    between atoms: N_8  and  C_9 
REMARK    6  A    between atoms: C_9  and  C_10 
REMARK    7  A    between atoms: C_10  and  C_11 
REMARK    8  A    between atoms: C_14  and  O_15 
ROOT
HETATM    1  C   UNL     1     -43.014  56.139 -58.986  1.00  0.00     0.119 A 
HETATM    2  N   UNL     1     -43.065  55.593 -57.756  1.00  0.00    -0.207 NA
HETATM    3  C   UNL     1     -42.735  56.369 -56.718  1.00  0.00     0.181 A 
HETATM    4  N   UNL     1     -42.336  57.629 -56.843  1.00  0.00    -0.330 N 
HETATM    5  H   UNL     1     -42.039  58.106 -56.001  1.00  0.00     0.168 HD
HETATM    6  C   UNL     1     -42.295  58.228 -58.037  1.00  0.00     0.048 A 
HETATM    7  C   UNL     1     -42.654  57.492 -59.183  1.00  0.00     0.031 A 
HETATM    8  C   UNL     1     -41.909  59.573 -58.136  1.00  0.00     0.030 A 
HETATM    9  C   UNL     1     -41.890  60.205 -59.379  1.00  0.00     0.002 A 
HETATM   10  C   UNL     1     -42.257  59.500 -60.522  1.00  0.00     0.001 A 
HETATM   11  C   UNL     1     -42.635  58.159 -60.429  1.00  0.00     0.017 A 
ENDROOT
BRANCH   3  12
HETATM   12  N   UNL     1     -42.755  55.794 -55.453  1.00  0.00    -0.262 NA
HETATM   13  H   UNL     1     -43.412  56.374 -54.920  1.00  0.00     0.130 HD
BRANCH  12  14
HETATM   14  C   UNL     1     -41.450  55.742 -54.787  1.00  0.00     0.100 C 
BRANCH  14  15
HETATM   15  C   UNL     1     -40.677  54.489 -55.219  1.00  0.00     0.053 C 
BRANCH  15  16
HETATM   16  C   UNL     1     -40.461  53.551 -54.058  1.00  0.00    -0.057 A 
HETATM   17  C   UNL     1     -40.601  53.999 -52.739  1.00  0.00     0.010 A 
HETATM   18  C   UNL     1     -40.359  53.130 -51.672  1.00  0.00     0.037 A 
HETATM   19  C   UNL     1     -39.987  51.805 -51.899  1.00  0.00     0.068 A 
HETATM   20  C   UNL     1     -39.856  51.350 -53.211  1.00  0.00     0.037 A 
HETATM   21  C   UNL     1     -40.091  52.219 -54.282  1.00  0.00     0.010 A 
BRANCH  19  22
HETATM   22  O   UNL     1     -39.778  51.067 -50.768  1.00  0.00    -0.356 OA
HETATM   23  C   UNL     1     -39.496  49.683 -50.942  1.00  0.00     0.210 C 
ENDBRANCH  19  22
ENDBRANCH  15  16
ENDBRANCH  14  15
ENDBRANCH  12  14
ENDBRANCH   3  12
BRANCH   1  24
HETATM   24  N   UNL     1     -43.379  55.359 -60.091  1.00  0.00    -0.277 NA
HETATM   25  H   UNL     1     -42.694  54.623 -60.257  1.00  0.00     0.129 HD
BRANCH  24  26
HETATM   26  C   UNL     1     -44.743  54.828 -60.104  1.00  0.00     0.093 C 
BRANCH  26  27
HETATM   27  C   UNL     1     -45.676  55.795 -60.833  1.00  0.00     0.010 C 
HETATM   28  C   UNL     1     -46.675  56.467 -59.901  1.00  0.00     0.006 C 
ENDBRANCH  26  27
ENDBRANCH  24  26
ENDBRANCH   1  24
TORSDOF 8
ENDMDL
MODEL 2
REMARK VINA RESULT:      -7.2      3.887      8.389
REMARK  8 active torsions:
REMARK  status: ('A' for Active; 'I' for Inactive)
REMARK    1  A    between atoms: C_2  and  C_3 
REMARK    2  A    between atoms: C_3  and  N_4 
REMARK    3  A    between atoms: N_4  and  C_5 
REMARK    4  A    between atoms: C_7  and  N_8 
REMARK    5  A    between atoms: N_8  and  C_9 
REMARK    6  A    between atoms: C_9  and  C_10 
REMARK    7  A    between atoms: C_10  and  C_11 
REMARK    8  A    between atoms: C_14  and  O_15 
ROOT
HETATM    1  C   UNL     1     -40.219  53.451 -52.122  1.00  0.00     0.119 A 
HETATM    2  N   UNL     1     -40.464  54.217 -53.201  1.00  0.00    -0.207 NA
HETATM    3  C   UNL     1     -40.455  53.623 -54.400  1.00  0.00     0.181 A 
HETATM    4  N   UNL     1     -40.189  52.334 -54.576  1.00  0.00    -0.330 N 
HETATM    5  H   UNL     1     -40.135  52.000 -55.530  1.00  0.00     0.168 HD
HETATM    6  C   UNL     1     -39.967  51.523 -53.537  1.00  0.00     0.048 A 
HETATM    7  C   UNL     1     -39.987  52.061 -52.235  1.00  0.00     0.031 A 
HETATM    8  C   UNL     1     -39.729  50.157 -53.750  1.00  0.00     0.030 A 
HETATM    9  C   UNL     1     -39.522  49.307 -52.664  1.00  0.00     0.002 A 
HETATM   10  C   UNL     1     -39.554  49.814 -51.369  1.00  0.00     0.001 A 
HETATM   11  C   UNL     1     -39.783  51.175 -51.153  1.00  0.00     0.017 A 
ENDROOT
BRANCH   3  12
HETATM   12  N   UNL     1     -40.674  54.422 -55.515  1.00  0.00    -0.262 NA
HETATM   13  H   UNL     1     -40.109  55.260 -55.343  1.00  0.00     0.130 HD
BRANCH  12  14
HETATM   14  C   UNL     1     -42.078  54.780 -55.741  1.00  0.00     0.100 C 
BRANCH  14  15
HETATM   15  C   UNL     1     -42.232  56.302 -55.852  1.00  0.00     0.053 C 
BRANCH  15  16
HETATM   16  C   UNL     1     -42.724  56.899 -54.557  1.00  0.00    -0.057 A 
HETATM   17  C   UNL     1     -44.085  56.877 -54.230  1.00  0.00     0.010 A 
HETATM   18  C   UNL     1     -44.532  57.469 -53.046  1.00  0.00     0.037 A 
HETATM   19  C   UNL     1     -43.635  58.078 -52.167  1.00  0.00     0.068 A 
HETATM   20  C   UNL     1     -42.278  58.093 -52.483  1.00  0.00     0.037 A 
HETATM   21  C   UNL     1     -41.826  57.507 -53.671  1.00  0.00     0.010 A 
BRANCH  19  22
HETATM   22  O   UNL     1     -44.208  58.620 -51.051  1.00  0.00    -0.356 OA
HETATM   23  C   UNL     1     -45.550  59.076 -51.169  1.00  0.00     0.210 C 
ENDBRANCH  19  22
ENDBRANCH  15  16
ENDBRANCH  14  15
ENDBRANCH  12  14
ENDBRANCH   3  12
BRANCH   1  24
HETATM   24  N   UNL     1     -40.248  54.039 -50.850  1.00  0.00    -0.277 NA
HETATM   25  H   UNL     1     -39.306  54.265 -50.534  1.00  0.00     0.129 HD
BRANCH  24  26
HETATM   26  C   UNL     1     -41.156  55.171 -50.667  1.00  0.00     0.093 C 
BRANCH  26  27
HETATM   27  C   UNL     1     -42.483  54.690 -50.077  1.00  0.00     0.010 C 
HETATM   28  C   UNL     1     -43.535  54.408 -51.141  1.00  0.00     0.006 C 
ENDBRANCH  26  27
ENDBRANCH  24  26
ENDBRANCH   1  24
TORSDOF 8
ENDMDL
MODEL 3
REMARK VINA RESULT:      -7.1      3.509      8.512
REMARK  8 active torsions:
REMARK  status: ('A' for Active; 'I' for Inactive)
REMARK    1  A    between atoms: C_2  and  C_3 
REMARK    2  A    between atoms: C_3  and  N_4 
REMARK    3  A    between atoms: N_4  and  C_5 
REMARK    4  A    between atoms: C_7  and  N_8 
REMARK    5  A    between atoms: N_8  and  C_9 
REMARK    6  A    between atoms: C_9  and  C_10 
REMARK    7  A    between atoms: C_10  and  C_11 
REMARK    8  A    between atoms: C_14  and  O_15 
ROOT
HETATM    1  C   UNL     1     -41.121  53.344 -53.100  1.00  0.00     0.119 A 
HETATM    2  N   UNL     1     -42.146  53.745 -53.877  1.00  0.00    -0.207 NA
HETATM    3  C   UNL     1     -43.069  54.540 -53.325  1.00  0.00     0.181 A 
HETATM    4  N   UNL     1     -43.039  54.926 -52.054  1.00  0.00    -0.330 N 
HETATM    5  H   UNL     1     -43.824  55.467 -51.717  1.00  0.00     0.168 HD
HETATM    6  C   UNL     1     -42.030  54.581 -51.249  1.00  0.00     0.048 A 
HETATM    7  C   UNL     1     -40.998  53.767 -51.757  1.00  0.00     0.031 A 
HETATM    8  C   UNL     1     -42.002  55.035 -49.922  1.00  0.00     0.030 A 
HETATM    9  C   UNL     1     -40.937  54.695 -49.089  1.00  0.00     0.002 A 
HETATM   10  C   UNL     1     -39.899  53.905 -49.575  1.00  0.00     0.001 A 
HETATM   11  C   UNL     1     -39.926  53.444 -50.893  1.00  0.00     0.017 A 
ENDROOT
BRANCH   3  12
HETATM   12  N   UNL     1     -44.143  54.925 -54.117  1.00  0.00    -0.262 NA
HETATM   13  H   UNL     1     -43.971  54.468 -55.019  1.00  0.00     0.130 HD
BRANCH  12  14
HETATM   14  C   UNL     1     -44.285  56.375 -54.289  1.00  0.00     0.100 C 
BRANCH  14  15
HETATM   15  C   UNL     1     -43.152  56.925 -55.164  1.00  0.00     0.053 C 
BRANCH  15  16
HETATM   16  C   UNL     1     -43.472  56.779 -56.630  1.00  0.00    -0.057 A 
HETATM   17  C   UNL     1     -44.344  57.670 -57.266  1.00  0.00     0.010 A 
HETATM   18  C   UNL     1     -44.663  57.500 -58.615  1.00  0.00     0.037 A 
HETATM   19  C   UNL     1     -44.111  56.453 -59.354  1.00  0.00     0.068 A 
HETATM   20  C   UNL     1     -43.233  55.568 -58.729  1.00  0.00     0.037 A 
HETATM   21  C   UNL     1     -42.917  55.731 -57.376  1.00  0.00     0.010 A 
BRANCH  19  22
HETATM   22  O   UNL     1     -44.511  56.401 -60.660  1.00  0.00    -0.356 OA
HETATM   23  C   UNL     1     -45.084  55.179 -61.112  1.00  0.00     0.210 C 
ENDBRANCH  19  22
ENDBRANCH  15  16
ENDBRANCH  14  15
ENDBRANCH  12  14
ENDBRANCH   3  12
BRANCH   1  24
HETATM   24  N   UNL     1     -40.125  52.532 -53.657  1.00  0.00    -0.277 NA
HETATM   25  H   UNL     1     -39.414  52.304 -52.964  1.00  0.00     0.129 HD
BRANCH  24  26
HETATM   26  C   UNL     1     -40.571  51.336 -54.373  1.00  0.00     0.093 C 
BRANCH  26  27
HETATM   27  C   UNL     1     -39.719  50.132 -53.967  1.00  0.00     0.010 C 
HETATM   28  C   UNL     1     -39.658  49.934 -52.459  1.00  0.00     0.006 C 
ENDBRANCH  26  27
ENDBRANCH  24  26
ENDBRANCH   1  24
TORSDOF 8
ENDMDL
MODEL 4
REMARK VINA RESULT:      -7.0      4.073      5.547
REMARK  8 active torsions:
REMARK  status: ('A' for Active; 'I' for Inactive)
REMARK    1  A    between atoms: C_2  and  C_3 
REMARK    2  A    between atoms: C_3  and  N_4 
REMARK    3  A    between atoms: N_4  and  C_5 
REMARK    4  A    between atoms: C_7  and  N_8 
REMARK    5  A    between atoms: N_8  and  C_9 
REMARK    6  A    between atoms: C_9  and  C_10 
REMARK    7  A    between atoms: C_10  and  C_11 
REMARK    8  A    between atoms: C_14  and  O_15 
ROOT
HETATM    1  C   UNL     1     -43.641  55.460 -53.119  1.00  0.00     0.119 A 
HETATM    2  N   UNL     1     -43.109  54.801 -52.073  1.00  0.00    -0.207 NA
HETATM    3  C   UNL     1     -42.894  55.492 -50.948  1.00  0.00     0.181 A 
HETATM    4  N   UNL     1     -43.150  56.789 -50.824  1.00  0.00    -0.330 N 
HETATM    5  H   UNL     1     -42.882  57.232 -49.956  1.00  0.00     0.168 HD
HETATM    6  C   UNL     1     -43.705  57.484 -51.822  1.00  0.00     0.048 A 
HETATM    7  C   UNL     1     -43.992  56.827 -53.035  1.00  0.00     0.031 A 
HETATM    8  C   UNL     1     -44.002  58.844 -51.652  1.00  0.00     0.030 A 
HETATM    9  C   UNL     1     -44.603  59.563 -52.684  1.00  0.00     0.002 A 
HETATM   10  C   UNL     1     -44.910  58.930 -53.884  1.00  0.00     0.001 A 
HETATM   11  C   UNL     1     -44.609  57.577 -54.062  1.00  0.00     0.017 A 
ENDROOT
BRANCH   3  12
HETATM   12  N   UNL     1     -42.314  54.819 -49.881  1.00  0.00    -0.262 NA
HETATM   13  H   UNL     1     -42.470  55.434 -49.075  1.00  0.00     0.130 HD
BRANCH  12  14
HETATM   14  C   UNL     1     -40.884  54.533 -50.045  1.00  0.00     0.100 C 
BRANCH  14  15
HETATM   15  C   UNL     1     -40.529  53.188 -49.400  1.00  0.00     0.053 C 
BRANCH  15  16
HETATM   16  C   UNL     1     -40.188  52.153 -50.443  1.00  0.00    -0.057 A 
HETATM   17  C   UNL     1     -39.883  52.532 -51.755  1.00  0.00     0.010 A 
HETATM   18  C   UNL     1     -39.608  51.561 -52.721  1.00  0.00     0.037 A 
HETATM   19  C   UNL     1     -39.619  50.204 -52.395  1.00  0.00     0.068 A 
HETATM   20  C   UNL     1     -39.911  49.821 -51.087  1.00  0.00     0.037 A 
HETATM   21  C   UNL     1     -40.194  50.791 -50.118  1.00  0.00     0.010 A 
BRANCH  19  22
HETATM   22  O   UNL     1     -39.337  49.363 -53.435  1.00  0.00    -0.356 OA
HETATM   23  C   UNL     1     -39.948  49.656 -54.686  1.00  0.00     0.210 C 
ENDBRANCH  19  22
ENDBRANCH  15  16
ENDBRANCH  14  15
ENDBRANCH  12  14
ENDBRANCH   3  12
BRANCH   1  24
HETATM   24  N   UNL     1     -43.902  54.757 -54.303  1.00  0.00    -0.277 NA
HETATM   25  H   UNL     1     -44.797  55.038 -54.701  1.00  0.00     0.129 HD
BRANCH  24  26
HETATM   26  C   UNL     1     -42.847  54.756 -55.317  1.00  0.00     0.093 C 
BRANCH  26  27
HETATM   27  C   UNL     1     -41.704  53.835 -54.884  1.00  0.00     0.010 C 
HETATM   28  C   UNL     1     -40.341  54.507 -54.968  1.00  0.00     0.006 C 
ENDBRANCH  26  27
ENDBRANCH  24  26
ENDBRANCH   1  24
TORSDOF 8
ENDMDL
MODEL 5
REMARK VINA RESULT:      -7.0      3.292      9.279
REMARK  8 active torsions:
REMARK  status: ('A' for Active; 'I' for Inactive)
REMARK    1  A    between atoms: C_2  and  C_3 
REMARK    2  A    between atoms: C_3  and  N_4 
REMARK    3  A    between atoms: N_4  and  C_5 
REMARK    4  A    between atoms: C_7  and  N_8 
REMARK    5  A    between atoms: N_8  and  C_9 
REMARK    6  A    between atoms: C_9  and  C_10 
REMARK    7  A    between atoms: C_10  and  C_11 
REMARK    8  A    between atoms: C_14  and  O_15 
ROOT
HETATM    1  C   UNL     1     -40.273  53.482 -52.264  1.00  0.00     0.119 A 
HETATM    2  N   UNL     1     -40.610  54.349 -53.238  1.00  0.00    -0.207 NA
HETATM    3  C   UNL     1     -40.675  53.881 -54.490  1.00  0.00     0.181 A 
HETATM    4  N   UNL     1     -40.397  52.625 -54.818  1.00  0.00    -0.330 N 
HETATM    5  H   UNL     1     -40.404  52.392 -55.803  1.00  0.00     0.168 HD
HETATM    6  C   UNL     1     -40.086  51.718 -53.887  1.00  0.00     0.048 A 
HETATM    7  C   UNL     1     -40.023  52.118 -52.538  1.00  0.00     0.031 A 
HETATM    8  C   UNL     1     -39.836  50.388 -54.257  1.00  0.00     0.030 A 
HETATM    9  C   UNL     1     -39.536  49.436 -53.283  1.00  0.00     0.002 A 
HETATM   10  C   UNL     1     -39.485  49.807 -51.942  1.00  0.00     0.001 A 
HETATM   11  C   UNL     1     -39.724  51.132 -51.570  1.00  0.00     0.017 A 
ENDROOT
BRANCH   3  12
HETATM   12  N   UNL     1     -40.989  54.784 -55.498  1.00  0.00    -0.262 NA
HETATM   13  H   UNL     1     -40.164  55.390 -55.563  1.00  0.00     0.130 HD
BRANCH  12  14
HETATM   14  C   UNL     1     -42.198  55.576 -55.252  1.00  0.00     0.100 C 
BRANCH  14  15
HETATM   15  C   UNL     1     -43.188  55.419 -56.412  1.00  0.00     0.053 C 
BRANCH  15  16
HETATM   16  C   UNL     1     -42.809  56.296 -57.578  1.00  0.00    -0.057 A 
HETATM   17  C   UNL     1     -42.424  57.627 -57.379  1.00  0.00     0.010 A 
HETATM   18  C   UNL     1     -42.114  58.441 -58.471  1.00  0.00     0.037 A 
HETATM   19  C   UNL     1     -42.170  57.942 -59.773  1.00  0.00     0.068 A 
HETATM   20  C   UNL     1     -42.543  56.614 -59.978  1.00  0.00     0.037 A 
HETATM   21  C   UNL     1     -42.861  55.798 -58.887  1.00  0.00     0.010 A 
BRANCH  19  22
HETATM   22  O   UNL     1     -41.847  58.846 -60.746  1.00  0.00    -0.356 OA
HETATM   23  C   UNL     1     -42.797  59.869 -61.019  1.00  0.00     0.210 C 
ENDBRANCH  19  22
ENDBRANCH  15  16
ENDBRANCH  14  15
ENDBRANCH  12  14
ENDBRANCH   3  12
BRANCH   1  24
HETATM   24  N   UNL     1     -40.223  53.936 -50.939  1.00  0.00    -0.277 NA
HETATM   25  H   UNL     1     -39.274  54.205 -50.685  1.00  0.00     0.129 HD
BRANCH  24  26
HETATM   26  C   UNL     1     -41.189  54.966 -50.557  1.00  0.00     0.093 C 
BRANCH  26  27
HETATM   27  C   UNL     1     -41.308  55.034 -49.033  1.00  0.00     0.010 C 
HETATM   28  C   UNL     1     -40.550  53.917 -48.331  1.00  0.00     0.006 C 
ENDBRANCH  26  27
ENDBRANCH  24  26
ENDBRANCH   1  24
TORSDOF 8
ENDMDL
MODEL 6
REMARK VINA RESULT:      -7.0      4.076      7.969
REMARK  8 active torsions:
REMARK  status: ('A' for Active; 'I' for Inactive)
REMARK    1  A    between atoms: C_2  and  C_3 
REMARK    2  A    between atoms: C_3  and  N_4 
REMARK    3  A    between atoms: N_4  and  C_5 
REMARK    4  A    between atoms: C_7  and  N_8 
REMARK    5  A    between atoms: N_8  and  C_9 
REMARK    6  A    between atoms: C_9  and  C_10 
REMARK    7  A    between atoms: C_10  and  C_11 
REMARK    8  A    between atoms: C_14  and  O_15 
ROOT
HETATM    1  C   UNL     1     -40.507  53.453 -53.466  1.00  0.00     0.119 A 
HETATM    2  N   UNL     1     -40.551  54.334 -52.448  1.00  0.00    -0.207 NA
HETATM    3  C   UNL     1     -40.282  53.877 -51.219  1.00  0.00     0.181 A 
HETATM    4  N   UNL     1     -40.005  52.605 -50.955  1.00  0.00    -0.330 N 
HETATM    5  H   UNL     1     -39.890  52.350 -49.983  1.00  0.00     0.168 HD
HETATM    6  C   UNL     1     -39.920  51.697 -51.931  1.00  0.00     0.048 A 
HETATM    7  C   UNL     1     -40.161  52.098 -53.260  1.00  0.00     0.031 A 
HETATM    8  C   UNL     1     -39.586  50.368 -51.629  1.00  0.00     0.030 A 
HETATM    9  C   UNL     1     -39.474  49.426 -52.650  1.00  0.00     0.002 A 
HETATM   10  C   UNL     1     -39.691  49.805 -53.971  1.00  0.00     0.001 A 
HETATM   11  C   UNL     1     -40.031  51.124 -54.277  1.00  0.00     0.017 A 
ENDROOT
BRANCH   3  12
HETATM   12  N   UNL     1     -40.362  54.779 -50.166  1.00  0.00    -0.262 NA
HETATM   13  H   UNL     1     -40.403  54.189 -49.328  1.00  0.00     0.130 HD
BRANCH  12  14
HETATM   14  C   UNL     1     -41.517  55.681 -50.222  1.00  0.00     0.100 C 
BRANCH  14  15
HETATM   15  C   UNL     1     -41.056  57.132 -50.407  1.00  0.00     0.053 C 
BRANCH  15  16
HETATM   16  C   UNL     1     -41.599  57.721 -51.684  1.00  0.00    -0.057 A 
HETATM   17  C   UNL     1     -42.966  57.657 -51.980  1.00  0.00     0.010 A 
HETATM   18  C   UNL     1     -43.450  58.171 -53.184  1.00  0.00     0.037 A 
HETATM   19  C   UNL     1     -42.588  58.768 -54.105  1.00  0.00     0.068 A 
HETATM   20  C   UNL     1     -41.227  58.845 -53.812  1.00  0.00     0.037 A 
HETATM   21  C   UNL     1     -40.737  58.324 -52.609  1.00  0.00     0.010 A 
BRANCH  19  22
HETATM   22  O   UNL     1     -43.192  59.224 -55.243  1.00  0.00    -0.356 OA
HETATM   23  C   UNL     1     -44.426  58.616 -55.607  1.00  0.00     0.210 C 
ENDBRANCH  19  22
ENDBRANCH  15  16
ENDBRANCH  14  15
ENDBRANCH  12  14
ENDBRANCH   3  12
BRANCH   1  24
HETATM   24  N   UNL     1     -40.758  53.906 -54.767  1.00  0.00    -0.277 NA
HETATM   25  H   UNL     1     -41.333  53.239 -55.279  1.00  0.00     0.129 HD
BRANCH  24  26
HETATM   26  C   UNL     1     -41.277  55.268 -54.904  1.00  0.00     0.093 C 
BRANCH  26  27
HETATM   27  C   UNL     1     -42.705  55.234 -55.451  1.00  0.00     0.010 C 
HETATM   28  C   UNL     1     -43.718  54.744 -54.426  1.00  0.00     0.006 C 
ENDBRANCH  26  27
ENDBRANCH  24  26
ENDBRANCH   1  24
TORSDOF 8
ENDMDL
MODEL 7
REMARK VINA RESULT:      -7.0      4.288      8.103
REMARK  8 active torsions:
REMARK  status: ('A' for Active; 'I' for Inactive)
REMARK    1  A    between atoms: C_2  and  C_3 
REMARK    2  A    between atoms: C_3  and  N_4 
REMARK    3  A    between atoms: N_4  and  C_5 
REMARK    4  A    between atoms: C_7  and  N_8 
REMARK    5  A    between atoms: N_8  and  C_9 
REMARK    6  A    between atoms: C_9  and  C_10 
REMARK    7  A    between atoms: C_10  and  C_11 
REMARK    8  A    between atoms: C_14  and  O_15 
ROOT
HETATM    1  C   UNL     1     -42.387  54.090 -51.753  1.00  0.00     0.119 A 
HETATM    2  N   UNL     1     -43.341  54.725 -52.460  1.00  0.00    -0.207 NA
HETATM    3  C   UNL     1     -43.325  54.585 -53.790  1.00  0.00     0.181 A 
HETATM    4  N   UNL     1     -42.407  53.881 -54.442  1.00  0.00    -0.330 N 
HETATM    5  H   UNL     1     -42.442  53.900 -55.453  1.00  0.00     0.168 HD
HETATM    6  C   UNL     1     -41.455  53.208 -53.787  1.00  0.00     0.048 A 
HETATM    7  C   UNL     1     -41.415  53.277 -52.381  1.00  0.00     0.031 A 
HETATM    8  C   UNL     1     -40.522  52.440 -54.498  1.00  0.00     0.030 A 
HETATM    9  C   UNL     1     -39.545  51.719 -53.814  1.00  0.00     0.002 A 
HETATM   10  C   UNL     1     -39.497  51.759 -52.424  1.00  0.00     0.001 A 
HETATM   11  C   UNL     1     -40.419  52.529 -51.712  1.00  0.00     0.017 A 
ENDROOT
BRANCH   3  12
HETATM   12  N   UNL     1     -44.289  55.268 -54.520  1.00  0.00    -0.262 NA
HETATM   13  H   UNL     1     -44.013  55.131 -55.498  1.00  0.00     0.130 HD
BRANCH  12  14
HETATM   14  C   UNL     1     -44.393  56.697 -54.206  1.00  0.00     0.100 C 
BRANCH  14  15
HETATM   15  C   UNL     1     -43.143  57.444 -54.688  1.00  0.00     0.053 C 
BRANCH  15  16
HETATM   16  C   UNL     1     -42.351  57.993 -53.529  1.00  0.00    -0.057 A 
HETATM   17  C   UNL     1     -42.977  58.304 -52.316  1.00  0.00     0.010 A 
HETATM   18  C   UNL     1     -42.239  58.849 -51.263  1.00  0.00     0.037 A 
HETATM   19  C   UNL     1     -40.868  59.081 -51.395  1.00  0.00     0.068 A 
HETATM   20  C   UNL     1     -40.237  58.763 -52.597  1.00  0.00     0.037 A 
HETATM   21  C   UNL     1     -40.975  58.223 -53.657  1.00  0.00     0.010 A 
BRANCH  19  22
HETATM   22  O   UNL     1     -40.271  59.621 -50.291  1.00  0.00    -0.356 OA
HETATM   23  C   UNL     1     -38.858  59.782 -50.335  1.00  0.00     0.210 C 
ENDBRANCH  19  22
ENDBRANCH  15  16
ENDBRANCH  14  15
ENDBRANCH  12  14
ENDBRANCH   3  12
BRANCH   1  24
HETATM   24  N   UNL     1     -42.393  54.196 -50.356  1.00  0.00    -0.277 NA
HETATM   25  H   UNL     1     -42.017  53.352 -49.927  1.00  0.00     0.129 HD
BRANCH  24  26
HETATM   26  C   UNL     1     -41.787  55.399 -49.782  1.00  0.00     0.093 C 
BRANCH  26  27
HETATM   27  C   UNL     1     -40.439  55.057 -49.147  1.00  0.00     0.010 C 
HETATM   28  C   UNL     1     -40.506  53.835 -48.241  1.00  0.00     0.006 C 
ENDBRANCH  26  27
ENDBRANCH  24  26
ENDBRANCH   1  24
TORSDOF 8
ENDMDL
MODEL 8
REMARK VINA RESULT:      -7.0      4.332      7.905
REMARK  8 active torsions:
REMARK  status: ('A' for Active; 'I' for Inactive)
REMARK    1  A    between atoms: C_2  and  C_3 
REMARK    2  A    between atoms: C_3  and  N_4 
REMARK    3  A    between atoms: N_4  and  C_5 
REMARK    4  A    between atoms: C_7  and  N_8 
REMARK    5  A    between atoms: N_8  and  C_9 
REMARK    6  A    between atoms: C_9  and  C_10 
REMARK    7  A    between atoms: C_10  and  C_11 
REMARK    8  A    between atoms: C_14  and  O_15 
ROOT
HETATM    1  C   UNL     1     -41.106  53.264 -53.136  1.00  0.00     0.119 A 
HETATM    2  N   UNL     1     -42.080  53.691 -53.961  1.00  0.00    -0.207 NA
HETATM    3  C   UNL     1     -43.016  54.499 -53.451  1.00  0.00     0.181 A 
HETATM    4  N   UNL     1     -43.047  54.871 -52.177  1.00  0.00    -0.330 N 
HETATM    5  H   UNL     1     -43.840  55.424 -51.876  1.00  0.00     0.168 HD
HETATM    6  C   UNL     1     -42.089  54.499 -51.322  1.00  0.00     0.048 A 
HETATM    7  C   UNL     1     -41.047  53.671 -51.783  1.00  0.00     0.031 A 
HETATM    8  C   UNL     1     -42.124  54.940 -49.991  1.00  0.00     0.030 A 
HETATM    9  C   UNL     1     -41.112  54.572 -49.106  1.00  0.00     0.002 A 
HETATM   10  C   UNL     1     -40.064  53.768 -49.545  1.00  0.00     0.001 A 
HETATM   11  C   UNL     1     -40.029  53.319 -50.867  1.00  0.00     0.017 A 
ENDROOT
BRANCH   3  12
HETATM   12  N   UNL     1     -44.040  54.911 -54.295  1.00  0.00    -0.262 NA
HETATM   13  H   UNL     1     -43.675  54.743 -55.239  1.00  0.00     0.130 HD
BRANCH  12  14
HETATM   14  C   UNL     1     -44.435  56.314 -54.133  1.00  0.00     0.100 C 
BRANCH  14  15
HETATM   15  C   UNL     1     -43.385  57.243 -54.754  1.00  0.00     0.053 C 
BRANCH  15  16
HETATM   16  C   UNL     1     -42.524  57.883 -53.695  1.00  0.00    -0.057 A 
HETATM   17  C   UNL     1     -43.089  58.382 -52.516  1.00  0.00     0.010 A 
HETATM   18  C   UNL     1     -42.286  59.008 -51.560  1.00  0.00     0.037 A 
HETATM   19  C   UNL     1     -40.910  59.136 -51.756  1.00  0.00     0.068 A 
HETATM   20  C   UNL     1     -40.339  58.631 -52.923  1.00  0.00     0.037 A 
HETATM   21  C   UNL     1     -41.142  58.009 -53.886  1.00  0.00     0.010 A 
BRANCH  19  22
HETATM   22  O   UNL     1     -40.246  59.772 -50.745  1.00  0.00    -0.356 OA
HETATM   23  C   UNL     1     -38.864  59.469 -50.589  1.00  0.00     0.210 C 
ENDBRANCH  19  22
ENDBRANCH  15  16
ENDBRANCH  14  15
ENDBRANCH  12  14
ENDBRANCH   3  12
BRANCH   1  24
HETATM   24  N   UNL     1     -40.096  52.438 -53.647  1.00  0.00    -0.277 NA
HETATM   25  H   UNL     1     -39.438  52.175 -52.916  1.00  0.00     0.129 HD
BRANCH  24  26
HETATM   26  C   UNL     1     -40.524  51.272 -54.421  1.00  0.00     0.093 C 
BRANCH  26  27
HETATM   27  C   UNL     1     -39.616  50.079 -54.120  1.00  0.00     0.010 C 
HETATM   28  C   UNL     1     -39.676  49.645 -52.663  1.00  0.00     0.006 C 
ENDBRANCH  26  27
ENDBRANCH  24  26
ENDBRANCH   1  24
TORSDOF 8
ENDMDL
MODEL 9
REMARK VINA RESULT:      -7.0      3.414      8.738
REMARK  8 active torsions:
REMARK  status: ('A' for Active; 'I' for Inactive)
REMARK    1  A    between atoms: C_2  and  C_3 
REMARK    2  A    between atoms: C_3  and  N_4 
REMARK    3  A    between atoms: N_4  and  C_5 
REMARK    4  A    between atoms: C_7  and  N_8 
REMARK    5  A    between atoms: N_8  and  C_9 
REMARK    6  A    between atoms: C_9  and  C_10 
REMARK    7  A    between atoms: C_10  and  C_11 
REMARK    8  A    between atoms: C_14  and  O_15 
ROOT
HETATM    1  C   UNL     1     -42.383  54.186 -51.775  1.00  0.00     0.119 A 
HETATM    2  N   UNL     1     -43.361  54.792 -52.474  1.00  0.00    -0.207 NA
HETATM    3  C   UNL     1     -43.394  54.592 -53.796  1.00  0.00     0.181 A 
HETATM    4  N   UNL     1     -42.501  53.856 -54.449  1.00  0.00    -0.330 N 
HETATM    5  H   UNL     1     -42.573  53.829 -55.457  1.00  0.00     0.168 HD
HETATM    6  C   UNL     1     -41.529  53.209 -53.799  1.00  0.00     0.048 A 
HETATM    7  C   UNL     1     -41.437  53.341 -52.400  1.00  0.00     0.031 A 
HETATM    8  C   UNL     1     -40.623  52.406 -54.508  1.00  0.00     0.030 A 
HETATM    9  C   UNL     1     -39.624  51.712 -53.828  1.00  0.00     0.002 A 
HETATM   10  C   UNL     1     -39.526  51.815 -52.443  1.00  0.00     0.001 A 
HETATM   11  C   UNL     1     -40.420  52.620 -51.734  1.00  0.00     0.017 A 
ENDROOT
BRANCH   3  12
HETATM   12  N   UNL     1     -44.382  55.246 -54.521  1.00  0.00    -0.262 NA
HETATM   13  H   UNL     1     -44.225  54.950 -55.491  1.00  0.00     0.130 HD
BRANCH  12  14
HETATM   14  C   UNL     1     -44.350  56.709 -54.414  1.00  0.00     0.100 C 
BRANCH  14  15
HETATM   15  C   UNL     1     -43.268  57.290 -55.332  1.00  0.00     0.053 C 
BRANCH  15  16
HETATM   16  C   UNL     1     -43.525  56.935 -56.775  1.00  0.00    -0.057 A 
HETATM   17  C   UNL     1     -42.765  55.951 -57.417  1.00  0.00     0.010 A 
HETATM   18  C   UNL     1     -42.986  55.660 -58.765  1.00  0.00     0.037 A 
HETATM   19  C   UNL     1     -43.972  56.332 -59.490  1.00  0.00     0.068 A 
HETATM   20  C   UNL     1     -44.739  57.306 -58.852  1.00  0.00     0.037 A 
HETATM   21  C   UNL     1     -44.516  57.606 -57.504  1.00  0.00     0.010 A 
BRANCH  19  22
HETATM   22  O   UNL     1     -44.079  55.953 -60.798  1.00  0.00    -0.356 OA
HETATM   23  C   UNL     1     -45.329  55.416 -61.215  1.00  0.00     0.210 C 
ENDBRANCH  19  22
ENDBRANCH  15  16
ENDBRANCH  14  15
ENDBRANCH  12  14
ENDBRANCH   3  12
BRANCH   1  24
HETATM   24  N   UNL     1     -42.338  54.355 -50.384  1.00  0.00    -0.277 NA
HETATM   25  H   UNL     1     -42.089  53.483 -49.921  1.00  0.00     0.129 HD
BRANCH  24  26
HETATM   26  C   UNL     1     -41.537  55.472 -49.880  1.00  0.00     0.093 C 
BRANCH  26  27
HETATM   27  C   UNL     1     -40.193  54.961 -49.358  1.00  0.00     0.010 C 
HETATM   28  C   UNL     1     -40.343  53.953 -48.227  1.00  0.00     0.006 C 
ENDBRANCH  26  27
ENDBRANCH  24  26
ENDBRANCH   1  24
TORSDOF 8
ENDMDL
MODEL 10
REMARK VINA RESULT:      -6.9      3.479      8.834
REMARK  8 active torsions:
REMARK  status: ('A' for Active; 'I' for Inactive)
REMARK    1  A    between atoms: C_2  and  C_3 
REMARK    2  A    between atoms: C_3  and  N_4 
REMARK    3  A    between atoms: N_4  and  C_5 
REMARK    4  A    between atoms: C_7  and  N_8 
REMARK    5  A    between atoms: N_8  and  C_9 
REMARK    6  A    between atoms: C_9  and  C_10 
REMARK    7  A    between atoms: C_10  and  C_11 
REMARK    8  A    between atoms: C_14  and  O_15 
ROOT
HETATM    1  C   UNL     1     -42.536  54.625 -52.479  1.00  0.00     0.119 A 
HETATM    2  N   UNL     1     -43.209  54.998 -53.584  1.00  0.00    -0.207 NA
HETATM    3  C   UNL     1     -42.858  54.434 -54.745  1.00  0.00     0.181 A 
HETATM    4  N   UNL     1     -41.869  53.555 -54.864  1.00  0.00    -0.330 N 
HETATM    5  H   UNL     1     -41.637  53.245 -55.798  1.00  0.00     0.168 HD
HETATM    6  C   UNL     1     -41.188  53.129 -53.795  1.00  0.00     0.048 A 
HETATM    7  C   UNL     1     -41.512  53.651 -52.527  1.00  0.00     0.031 A 
HETATM    8  C   UNL     1     -40.175  52.171 -53.943  1.00  0.00     0.030 A 
HETATM    9  C   UNL     1     -39.482  51.708 -52.826  1.00  0.00     0.002 A 
HETATM   10  C   UNL     1     -39.797  52.198 -51.561  1.00  0.00     0.001 A 
HETATM   11  C   UNL     1     -40.799  53.159 -51.410  1.00  0.00     0.017 A 
ENDROOT
BRANCH   3  12
HETATM   12  N   UNL     1     -43.531  54.845 -55.889  1.00  0.00    -0.262 NA
HETATM   13  H   UNL     1     -43.169  54.235 -56.630  1.00  0.00     0.130 HD
BRANCH  12  14
HETATM   14  C   UNL     1     -43.335  56.256 -56.236  1.00  0.00     0.100 C 
BRANCH  14  15
HETATM   15  C   UNL     1     -42.758  56.385 -57.652  1.00  0.00     0.053 C 
BRANCH  15  16
HETATM   16  C   UNL     1     -43.832  56.225 -58.698  1.00  0.00    -0.057 A 
HETATM   17  C   UNL     1     -44.884  57.143 -58.792  1.00  0.00     0.010 A 
HETATM   18  C   UNL     1     -45.894  56.962 -59.740  1.00  0.00     0.037 A 
HETATM   19  C   UNL     1     -45.866  55.874 -60.615  1.00  0.00     0.068 A 
HETATM   20  C   UNL     1     -44.815  54.962 -60.533  1.00  0.00     0.037 A 
HETATM   21  C   UNL     1     -43.805  55.137 -59.580  1.00  0.00     0.010 A 
BRANCH  19  22
HETATM   22  O   UNL     1     -46.917  55.815 -61.487  1.00  0.00    -0.356 OA
HETATM   23  C   UNL     1     -47.791  56.937 -61.522  1.00  0.00     0.210 C 
ENDBRANCH  19  22
ENDBRANCH  15  16
ENDBRANCH  14  15
ENDBRANCH  12  14
ENDBRANCH   3  12
BRANCH   1  24
HETATM   24  N   UNL     1     -42.898  55.178 -51.244  1.00  0.00    -0.277 NA
HETATM   25  H   UNL     1     -42.361  54.758 -50.487  1.00  0.00     0.129 HD
BRANCH  24  26
HETATM   26  C   UNL     1     -42.897  56.639 -51.149  1.00  0.00     0.093 C 
BRANCH  26  27
HETATM   27  C   UNL     1     -41.478  57.147 -50.886  1.00  0.00     0.010 C 
HETATM   28  C   UNL     1     -40.963  58.057 -51.993  1.00  0.00     0.006 C 
ENDBRANCH  26  27
ENDBRANCH  24  26
ENDBRANCH   1  24
TORSDOF 8
ENDMDL
