MODEL 1
REMARK VINA RESULT:      -8.5      0.000      0.000
REMARK  6 active torsions:
REMARK  status: ('A' for Active; 'I' for Inactive)
REMARK    1  A    between atoms: C_5  and  C_6 
REMARK    2  A    between atoms: C_6  and  C_7 
REMARK       I    between atoms: C_7  and  N_8 
REMARK    3  A    between atoms: N_8  and  N_9 
REMARK       I    between atoms: N_9  and  C_10 
REMARK    4  A    between atoms: C_10  and  C_11 
REMARK    5  A    between atoms: C_15  and  C_16 
REMARK    6  A    between atoms: C_19  and  O_20 
ROOT
HETATM    1  N   UNL     1     -43.644  59.136 -50.582  1.00  0.00    -0.262 N 
HETATM    2  C   UNL     1     -42.420  59.122 -51.216  1.00  0.00     0.288 C 
HETATM    3  O   UNL     1     -41.637  60.067 -51.148  1.00  0.00    -0.264 OA
HETATM    4  H   UNL     1     -44.350  58.417 -50.726  1.00  0.00     0.190 HD
ENDROOT
BRANCH   2   5
HETATM    5  C   UNL     1     -42.137  57.924 -51.959  1.00  0.00     0.121 A 
HETATM    6  N   UNL     1     -42.549  57.752 -53.250  1.00  0.00    -0.272 N 
HETATM    7  H   UNL     1     -43.079  58.409 -53.815  1.00  0.00     0.189 HD
HETATM    8  N   UNL     1     -42.186  56.580 -53.792  1.00  0.00    -0.174 NA
HETATM    9  C   UNL     1     -41.523  55.941 -52.813  1.00  0.00     0.089 A 
HETATM   10  C   UNL     1     -41.466  56.758 -51.649  1.00  0.00     0.071 A 
BRANCH   9  11
HETATM   11  C   UNL     1     -40.956  54.602 -52.998  1.00  0.00    -0.005 A 
HETATM   12  C   UNL     1     -40.601  53.818 -51.894  1.00  0.00     0.016 A 
HETATM   13  C   UNL     1     -40.084  52.530 -52.070  1.00  0.00     0.037 A 
HETATM   14  C   UNL     1     -39.910  52.002 -53.351  1.00  0.00     0.068 A 
HETATM   15  C   UNL     1     -40.245  52.780 -54.457  1.00  0.00     0.037 A 
HETATM   16  C   UNL     1     -40.764  54.070 -54.281  1.00  0.00     0.016 A 
BRANCH  14  17
HETATM   17  O   UNL     1     -39.406  50.732 -53.385  1.00  0.00    -0.356 OA
HETATM   18  C   UNL     1     -39.811  49.910 -54.472  1.00  0.00     0.210 C 
ENDBRANCH  14  17
ENDBRANCH   9  11
ENDBRANCH   2   5
BRANCH   1  19
HETATM   19  N   UNL     1     -44.089  60.307 -49.962  1.00  0.00    -0.267 N 
HETATM   20  C   UNL     1     -45.379  60.315 -49.471  1.00  0.00     0.240 C 
HETATM   21  O   UNL     1     -46.094  59.312 -49.501  1.00  0.00    -0.272 OA
HETATM   22  H   UNL     1     -43.494  61.130 -50.029  1.00  0.00     0.190 HD
BRANCH  20  23
HETATM   23  C   UNL     1     -45.823  61.634 -48.875  1.00  0.00     0.143 C 
BRANCH  23  24
HETATM   24  C   UNL     1     -45.394  61.887 -47.447  1.00  0.00    -0.049 A 
HETATM   25  C   UNL     1     -45.041  60.866 -46.556  1.00  0.00     0.008 A 
HETATM   26  C   UNL     1     -44.674  61.163 -45.239  1.00  0.00     0.007 A 
HETATM   27  C   UNL     1     -44.672  62.483 -44.780  1.00  0.00    -0.062 A 
HETATM   28  C   UNL     1     -44.256  62.803 -43.374  1.00  0.00     0.048 C 
HETATM   29  C   UNL     1     -45.020  63.507 -45.665  1.00  0.00     0.007 A 
HETATM   30  C   UNL     1     -45.382  63.211 -46.981  1.00  0.00     0.008 A 
ENDBRANCH  23  24
ENDBRANCH  20  23
ENDBRANCH   1  19
TORSDOF 6
ENDMDL
MODEL 2
REMARK VINA RESULT:      -8.4      7.367     11.144
REMARK  6 active torsions:
REMARK  status: ('A' for Active; 'I' for Inactive)
REMARK    1  A    between atoms: C_5  and  C_6 
REMARK    2  A    between atoms: C_6  and  C_7 
REMARK       I    between atoms: C_7  and  N_8 
REMARK    3  A    between atoms: N_8  and  N_9 
REMARK       I    between atoms: N_9  and  C_10 
REMARK    4  A    between atoms: C_10  and  C_11 
REMARK    5  A    between atoms: C_15  and  C_16 
REMARK    6  A    between atoms: C_19  and  O_20 
ROOT
HETATM    1  N   UNL     1     -42.503  55.434 -57.046  1.00  0.00    -0.262 N 
HETATM    2  C   UNL     1     -42.894  56.630 -57.609  1.00  0.00     0.288 C 
HETATM    3  O   UNL     1     -42.345  57.694 -57.333  1.00  0.00    -0.264 OA
HETATM    4  H   UNL     1     -43.022  54.567 -57.171  1.00  0.00     0.190 HD
ENDROOT
BRANCH   2   5
HETATM    5  C   UNL     1     -43.991  56.533 -58.534  1.00  0.00     0.121 A 
HETATM    6  N   UNL     1     -44.364  55.349 -59.103  1.00  0.00    -0.272 N 
HETATM    7  H   UNL     1     -43.937  54.439 -58.955  1.00  0.00     0.189 HD
HETATM    8  N   UNL     1     -45.415  55.443 -59.931  1.00  0.00    -0.174 NA
HETATM    9  C   UNL     1     -45.739  56.746 -59.925  1.00  0.00     0.089 A 
HETATM   10  C   UNL     1     -44.871  57.462 -59.054  1.00  0.00     0.071 A 
BRANCH   9  11
HETATM   11  C   UNL     1     -46.850  57.278 -60.719  1.00  0.00    -0.005 A 
HETATM   12  C   UNL     1     -47.121  58.652 -60.739  1.00  0.00     0.016 A 
HETATM   13  C   UNL     1     -48.166  59.162 -61.517  1.00  0.00     0.037 A 
HETATM   14  C   UNL     1     -48.961  58.312 -62.288  1.00  0.00     0.068 A 
HETATM   15  C   UNL     1     -48.710  56.941 -62.263  1.00  0.00     0.037 A 
HETATM   16  C   UNL     1     -47.663  56.429 -61.485  1.00  0.00     0.016 A 
BRANCH  14  17
HETATM   17  O   UNL     1     -49.940  58.937 -63.009  1.00  0.00    -0.356 OA
HETATM   18  C   UNL     1     -51.251  58.920 -62.459  1.00  0.00     0.210 C 
ENDBRANCH  14  17
ENDBRANCH   9  11
ENDBRANCH   2   5
BRANCH   1  19
HETATM   19  N   UNL     1     -41.554  55.430 -56.020  1.00  0.00    -0.267 N 
HETATM   20  C   UNL     1     -41.992  55.113 -54.751  1.00  0.00     0.240 C 
HETATM   21  O   UNL     1     -43.154  54.770 -54.529  1.00  0.00    -0.272 OA
HETATM   22  H   UNL     1     -40.627  55.793 -56.235  1.00  0.00     0.190 HD
BRANCH  20  23
HETATM   23  C   UNL     1     -40.931  55.194 -53.674  1.00  0.00     0.143 C 
BRANCH  23  24
HETATM   24  C   UNL     1     -40.556  53.883 -53.021  1.00  0.00    -0.049 A 
HETATM   25  C   UNL     1     -40.515  53.697 -51.634  1.00  0.00     0.008 A 
HETATM   26  C   UNL     1     -40.138  52.465 -51.089  1.00  0.00     0.007 A 
HETATM   27  C   UNL     1     -39.772  51.401 -51.919  1.00  0.00    -0.062 A 
HETATM   28  C   UNL     1     -39.389  50.073 -51.335  1.00  0.00     0.048 C 
HETATM   29  C   UNL     1     -39.814  51.579 -53.304  1.00  0.00     0.007 A 
HETATM   30  C   UNL     1     -40.196  52.807 -53.848  1.00  0.00     0.008 A 
ENDBRANCH  23  24
ENDBRANCH  20  23
ENDBRANCH   1  19
TORSDOF 6
ENDMDL
MODEL 3
REMARK VINA RESULT:      -8.3      7.287      9.149
REMARK  6 active torsions:
REMARK  status: ('A' for Active; 'I' for Inactive)
REMARK    1  A    between atoms: C_5  and  C_6 
REMARK    2  A    between atoms: C_6  and  C_7 
REMARK       I    between atoms: C_7  and  N_8 
REMARK    3  A    between atoms: N_8  and  N_9 
REMARK       I    between atoms: N_9  and  C_10 
REMARK    4  A    between atoms: C_10  and  C_11 
REMARK    5  A    between atoms: C_15  and  C_16 
REMARK    6  A    between atoms: C_19  and  O_20 
ROOT
HETATM    1  N   UNL     1     -43.327  57.240 -57.909  1.00  0.00    -0.262 N 
HETATM    2  C   UNL     1     -42.744  57.341 -56.664  1.00  0.00     0.288 C 
HETATM    3  O   UNL     1     -42.451  58.426 -56.165  1.00  0.00    -0.264 OA
HETATM    4  H   UNL     1     -43.464  56.351 -58.385  1.00  0.00     0.190 HD
ENDROOT
BRANCH   2   5
HETATM    5  C   UNL     1     -42.506  56.087 -56.003  1.00  0.00     0.121 A 
HETATM    6  N   UNL     1     -43.368  55.032 -56.106  1.00  0.00    -0.272 N 
HETATM    7  H   UNL     1     -44.237  55.003 -56.630  1.00  0.00     0.189 HD
HETATM    8  N   UNL     1     -42.980  53.937 -55.435  1.00  0.00    -0.174 NA
HETATM    9  C   UNL     1     -41.825  54.288 -54.847  1.00  0.00     0.089 A 
HETATM   10  C   UNL     1     -41.491  55.628 -55.187  1.00  0.00     0.071 A 
BRANCH   9  11
HETATM   11  C   UNL     1     -41.065  53.361 -54.002  1.00  0.00    -0.005 A 
HETATM   12  C   UNL     1     -40.937  53.590 -52.627  1.00  0.00     0.016 A 
HETATM   13  C   UNL     1     -40.234  52.692 -51.817  1.00  0.00     0.037 A 
HETATM   14  C   UNL     1     -39.645  51.551 -52.364  1.00  0.00     0.068 A 
HETATM   15  C   UNL     1     -39.753  51.321 -53.734  1.00  0.00     0.037 A 
HETATM   16  C   UNL     1     -40.459  52.220 -54.546  1.00  0.00     0.016 A 
BRANCH  14  17
HETATM   17  O   UNL     1     -38.997  50.751 -51.464  1.00  0.00    -0.356 OA
HETATM   18  C   UNL     1     -39.806  49.898 -50.664  1.00  0.00     0.210 C 
ENDBRANCH  14  17
ENDBRANCH   9  11
ENDBRANCH   2   5
BRANCH   1  19
HETATM   19  N   UNL     1     -43.461  58.381 -58.705  1.00  0.00    -0.267 N 
HETATM   20  C   UNL     1     -42.521  58.578 -59.696  1.00  0.00     0.240 C 
HETATM   21  O   UNL     1     -41.639  57.751 -59.932  1.00  0.00    -0.272 OA
HETATM   22  H   UNL     1     -44.156  59.071 -58.426  1.00  0.00     0.190 HD
BRANCH  20  23
HETATM   23  C   UNL     1     -42.682  59.865 -60.477  1.00  0.00     0.143 C 
BRANCH  23  24
HETATM   24  C   UNL     1     -41.664  60.944 -60.183  1.00  0.00    -0.049 A 
HETATM   25  C   UNL     1     -41.219  61.253 -58.891  1.00  0.00     0.008 A 
HETATM   26  C   UNL     1     -40.291  62.277 -58.681  1.00  0.00     0.007 A 
HETATM   27  C   UNL     1     -39.805  63.031 -59.754  1.00  0.00    -0.062 A 
HETATM   28  C   UNL     1     -38.793  64.115 -59.531  1.00  0.00     0.048 C 
HETATM   29  C   UNL     1     -40.242  62.725 -61.046  1.00  0.00     0.007 A 
HETATM   30  C   UNL     1     -41.165  61.699 -61.257  1.00  0.00     0.008 A 
ENDBRANCH  23  24
ENDBRANCH  20  23
ENDBRANCH   1  19
TORSDOF 6
ENDMDL
MODEL 4
REMARK VINA RESULT:      -7.9      6.400     10.590
REMARK  6 active torsions:
REMARK  status: ('A' for Active; 'I' for Inactive)
REMARK    1  A    between atoms: C_5  and  C_6 
REMARK    2  A    between atoms: C_6  and  C_7 
REMARK       I    between atoms: C_7  and  N_8 
REMARK    3  A    between atoms: N_8  and  N_9 
REMARK       I    between atoms: N_9  and  C_10 
REMARK    4  A    between atoms: C_10  and  C_11 
REMARK    5  A    between atoms: C_15  and  C_16 
REMARK    6  A    between atoms: C_19  and  O_20 
ROOT
HETATM    1  N   UNL     1     -43.012  56.823 -54.993  1.00  0.00    -0.262 N 
HETATM    2  C   UNL     1     -43.008  56.328 -56.280  1.00  0.00     0.288 C 
HETATM    3  O   UNL     1     -42.955  55.123 -56.517  1.00  0.00    -0.264 OA
HETATM    4  H   UNL     1     -42.933  57.815 -54.782  1.00  0.00     0.190 HD
ENDROOT
BRANCH   2   5
HETATM    5  C   UNL     1     -43.065  57.325 -57.313  1.00  0.00     0.121 A 
HETATM    6  N   UNL     1     -44.207  57.586 -58.014  1.00  0.00    -0.272 N 
HETATM    7  H   UNL     1     -45.109  57.133 -57.901  1.00  0.00     0.189 HD
HETATM    8  N   UNL     1     -44.082  58.557 -58.931  1.00  0.00    -0.174 NA
HETATM    9  C   UNL     1     -42.798  58.941 -58.847  1.00  0.00     0.089 A 
HETATM   10  C   UNL     1     -42.129  58.195 -57.837  1.00  0.00     0.071 A 
BRANCH   9  11
HETATM   11  C   UNL     1     -42.241  59.996 -59.699  1.00  0.00    -0.005 A 
HETATM   12  C   UNL     1     -41.479  61.034 -59.147  1.00  0.00     0.016 A 
HETATM   13  C   UNL     1     -40.927  62.026 -59.963  1.00  0.00     0.037 A 
HETATM   14  C   UNL     1     -41.125  62.003 -61.345  1.00  0.00     0.068 A 
HETATM   15  C   UNL     1     -41.894  60.984 -61.904  1.00  0.00     0.037 A 
HETATM   16  C   UNL     1     -42.447  59.989 -61.086  1.00  0.00     0.016 A 
BRANCH  14  17
HETATM   17  O   UNL     1     -40.524  63.023 -62.029  1.00  0.00    -0.356 OA
HETATM   18  C   UNL     1     -39.309  63.529 -61.489  1.00  0.00     0.210 C 
ENDBRANCH  14  17
ENDBRANCH   9  11
ENDBRANCH   2   5
BRANCH   1  19
HETATM   19  N   UNL     1     -42.803  55.956 -53.917  1.00  0.00    -0.267 N 
HETATM   20  C   UNL     1     -41.534  55.909 -53.377  1.00  0.00     0.240 C 
HETATM   21  O   UNL     1     -40.632  56.652 -53.766  1.00  0.00    -0.272 OA
HETATM   22  H   UNL     1     -43.553  55.309 -53.681  1.00  0.00     0.190 HD
BRANCH  20  23
HETATM   23  C   UNL     1     -41.356  54.902 -52.261  1.00  0.00     0.143 C 
BRANCH  23  24
HETATM   24  C   UNL     1     -40.825  53.549 -52.675  1.00  0.00    -0.049 A 
HETATM   25  C   UNL     1     -40.035  52.743 -51.845  1.00  0.00     0.008 A 
HETATM   26  C   UNL     1     -39.554  51.509 -52.294  1.00  0.00     0.007 A 
HETATM   27  C   UNL     1     -39.834  51.064 -53.590  1.00  0.00    -0.062 A 
HETATM   28  C   UNL     1     -39.337  49.730 -54.064  1.00  0.00     0.048 C 
HETATM   29  C   UNL     1     -40.624  51.861 -54.422  1.00  0.00     0.007 A 
HETATM   30  C   UNL     1     -41.109  53.091 -53.972  1.00  0.00     0.008 A 
ENDBRANCH  23  24
ENDBRANCH  20  23
ENDBRANCH   1  19
TORSDOF 6
ENDMDL
MODEL 5
REMARK VINA RESULT:      -7.8     18.431     21.296
REMARK  6 active torsions:
REMARK  status: ('A' for Active; 'I' for Inactive)
REMARK    1  A    between atoms: C_5  and  C_6 
REMARK    2  A    between atoms: C_6  and  C_7 
REMARK       I    between atoms: C_7  and  N_8 
REMARK    3  A    between atoms: N_8  and  N_9 
REMARK       I    between atoms: N_9  and  C_10 
REMARK    4  A    between atoms: C_10  and  C_11 
REMARK    5  A    between atoms: C_15  and  C_16 
REMARK    6  A    between atoms: C_19  and  O_20 
ROOT
HETATM    1  N   UNL     1     -34.792  41.342 -54.062  1.00  0.00    -0.262 N 
HETATM    2  C   UNL     1     -34.929  41.740 -52.748  1.00  0.00     0.288 C 
HETATM    3  O   UNL     1     -35.778  42.556 -52.398  1.00  0.00    -0.264 OA
HETATM    4  H   UNL     1     -34.020  40.763 -54.386  1.00  0.00     0.190 HD
ENDROOT
BRANCH   2   5
HETATM    5  C   UNL     1     -34.003  41.132 -51.832  1.00  0.00     0.121 A 
HETATM    6  N   UNL     1     -32.687  40.941 -52.142  1.00  0.00    -0.272 N 
HETATM    7  H   UNL     1     -32.222  41.189 -53.011  1.00  0.00     0.189 HD
HETATM    8  N   UNL     1     -31.967  40.371 -51.164  1.00  0.00    -0.174 NA
HETATM    9  C   UNL     1     -32.847  40.158 -50.173  1.00  0.00     0.089 A 
HETATM   10  C   UNL     1     -34.135  40.629 -50.552  1.00  0.00     0.071 A 
BRANCH   9  11
HETATM   11  C   UNL     1     -32.459  39.536 -48.903  1.00  0.00    -0.005 A 
HETATM   12  C   UNL     1     -31.339  39.993 -48.197  1.00  0.00     0.016 A 
HETATM   13  C   UNL     1     -30.983  39.417 -46.973  1.00  0.00     0.037 A 
HETATM   14  C   UNL     1     -31.737  38.373 -46.432  1.00  0.00     0.068 A 
HETATM   15  C   UNL     1     -32.844  37.900 -47.134  1.00  0.00     0.037 A 
HETATM   16  C   UNL     1     -33.201  38.478 -48.360  1.00  0.00     0.016 A 
BRANCH  14  17
HETATM   17  O   UNL     1     -31.290  37.906 -45.228  1.00  0.00    -0.356 OA
HETATM   18  C   UNL     1     -30.871  38.878 -44.278  1.00  0.00     0.210 C 
ENDBRANCH  14  17
ENDBRANCH   9  11
ENDBRANCH   2   5
BRANCH   1  19
HETATM   19  N   UNL     1     -35.531  41.982 -55.060  1.00  0.00    -0.267 N 
HETATM   20  C   UNL     1     -36.787  41.484 -55.338  1.00  0.00     0.240 C 
HETATM   21  O   UNL     1     -37.281  40.562 -54.688  1.00  0.00    -0.272 OA
HETATM   22  H   UNL     1     -35.054  42.687 -55.619  1.00  0.00     0.190 HD
BRANCH  20  23
HETATM   23  C   UNL     1     -37.508  42.177 -56.475  1.00  0.00     0.143 C 
BRANCH  23  24
HETATM   24  C   UNL     1     -37.546  41.424 -57.785  1.00  0.00    -0.049 A 
HETATM   25  C   UNL     1     -37.136  41.978 -59.005  1.00  0.00     0.008 A 
HETATM   26  C   UNL     1     -37.216  41.237 -60.188  1.00  0.00     0.007 A 
HETATM   27  C   UNL     1     -37.728  39.936 -60.182  1.00  0.00    -0.062 A 
HETATM   28  C   UNL     1     -37.793  39.134 -61.448  1.00  0.00     0.048 C 
HETATM   29  C   UNL     1     -38.135  39.376 -58.968  1.00  0.00     0.007 A 
HETATM   30  C   UNL     1     -38.050  40.114 -57.785  1.00  0.00     0.008 A 
ENDBRANCH  23  24
ENDBRANCH  20  23
ENDBRANCH   1  19
TORSDOF 6
ENDMDL
MODEL 6
REMARK VINA RESULT:      -7.7     18.810     21.639
REMARK  6 active torsions:
REMARK  status: ('A' for Active; 'I' for Inactive)
REMARK    1  A    between atoms: C_5  and  C_6 
REMARK    2  A    between atoms: C_6  and  C_7 
REMARK       I    between atoms: C_7  and  N_8 
REMARK    3  A    between atoms: N_8  and  N_9 
REMARK       I    between atoms: N_9  and  C_10 
REMARK    4  A    between atoms: C_10  and  C_11 
REMARK    5  A    between atoms: C_15  and  C_16 
REMARK    6  A    between atoms: C_19  and  O_20 
ROOT
HETATM    1  N   UNL     1     -34.041  41.140 -53.350  1.00  0.00    -0.262 N 
HETATM    2  C   UNL     1     -32.882  40.522 -52.932  1.00  0.00     0.288 C 
HETATM    3  O   UNL     1     -31.915  40.373 -53.676  1.00  0.00    -0.264 OA
HETATM    4  H   UNL     1     -34.889  41.163 -52.788  1.00  0.00     0.190 HD
ENDROOT
BRANCH   2   5
HETATM    5  C   UNL     1     -32.897  40.065 -51.569  1.00  0.00     0.121 A 
HETATM    6  N   UNL     1     -34.009  39.519 -50.994  1.00  0.00    -0.272 N 
HETATM    7  H   UNL     1     -34.915  39.376 -51.432  1.00  0.00     0.189 HD
HETATM    8  N   UNL     1     -33.839  39.136 -49.720  1.00  0.00    -0.174 NA
HETATM    9  C   UNL     1     -32.568  39.460 -49.433  1.00  0.00     0.089 A 
HETATM   10  C   UNL     1     -31.942  40.039 -50.572  1.00  0.00     0.071 A 
BRANCH   9  11
HETATM   11  C   UNL     1     -31.976  39.208 -48.116  1.00  0.00    -0.005 A 
HETATM   12  C   UNL     1     -30.902  39.980 -47.656  1.00  0.00     0.016 A 
HETATM   13  C   UNL     1     -30.354  39.757 -46.388  1.00  0.00     0.037 A 
HETATM   14  C   UNL     1     -30.866  38.759 -45.557  1.00  0.00     0.068 A 
HETATM   15  C   UNL     1     -31.924  37.974 -46.011  1.00  0.00     0.037 A 
HETATM   16  C   UNL     1     -32.474  38.198 -47.281  1.00  0.00     0.016 A 
BRANCH  14  17
HETATM   17  O   UNL     1     -30.249  38.650 -44.342  1.00  0.00    -0.356 OA
HETATM   18  C   UNL     1     -29.616  39.819 -43.837  1.00  0.00     0.210 C 
ENDBRANCH  14  17
ENDBRANCH   9  11
ENDBRANCH   2   5
BRANCH   1  19
HETATM   19  N   UNL     1     -34.196  41.483 -54.696  1.00  0.00    -0.267 N 
HETATM   20  C   UNL     1     -35.306  42.229 -55.037  1.00  0.00     0.240 C 
HETATM   21  O   UNL     1     -36.095  42.648 -54.190  1.00  0.00    -0.272 OA
HETATM   22  H   UNL     1     -33.563  41.052 -55.367  1.00  0.00     0.190 HD
BRANCH  20  23
HETATM   23  C   UNL     1     -35.452  42.507 -56.518  1.00  0.00     0.143 C 
BRANCH  23  24
HETATM   24  C   UNL     1     -36.365  41.571 -57.276  1.00  0.00    -0.049 A 
HETATM   25  C   UNL     1     -36.819  40.351 -56.759  1.00  0.00     0.008 A 
HETATM   26  C   UNL     1     -37.645  39.516 -57.519  1.00  0.00     0.007 A 
HETATM   27  C   UNL     1     -38.016  39.872 -58.819  1.00  0.00    -0.062 A 
HETATM   28  C   UNL     1     -38.921  38.987 -59.625  1.00  0.00     0.048 C 
HETATM   29  C   UNL     1     -37.570  41.089 -59.339  1.00  0.00     0.007 A 
HETATM   30  C   UNL     1     -36.749  41.926 -58.579  1.00  0.00     0.008 A 
ENDBRANCH  23  24
ENDBRANCH  20  23
ENDBRANCH   1  19
TORSDOF 6
ENDMDL
MODEL 7
REMARK VINA RESULT:      -7.7      3.306     10.554
REMARK  6 active torsions:
REMARK  status: ('A' for Active; 'I' for Inactive)
REMARK    1  A    between atoms: C_5  and  C_6 
REMARK    2  A    between atoms: C_6  and  C_7 
REMARK       I    between atoms: C_7  and  N_8 
REMARK    3  A    between atoms: N_8  and  N_9 
REMARK       I    between atoms: N_9  and  C_10 
REMARK    4  A    between atoms: C_10  and  C_11 
REMARK    5  A    between atoms: C_15  and  C_16 
REMARK    6  A    between atoms: C_19  and  O_20 
ROOT
HETATM    1  N   UNL     1     -41.675  56.790 -50.140  1.00  0.00    -0.262 N 
HETATM    2  C   UNL     1     -41.677  57.685 -51.189  1.00  0.00     0.288 C 
HETATM    3  O   UNL     1     -40.984  57.520 -52.190  1.00  0.00    -0.264 OA
HETATM    4  H   UNL     1     -42.148  56.972 -49.257  1.00  0.00     0.190 HD
ENDROOT
BRANCH   2   5
HETATM    5  C   UNL     1     -42.544  58.819 -51.017  1.00  0.00     0.121 A 
HETATM    6  N   UNL     1     -42.195  59.895 -50.251  1.00  0.00    -0.272 N 
HETATM    7  H   UNL     1     -41.329  60.022 -49.735  1.00  0.00     0.189 HD
HETATM    8  N   UNL     1     -43.119  60.866 -50.213  1.00  0.00    -0.174 NA
HETATM    9  C   UNL     1     -44.130  60.406 -50.968  1.00  0.00     0.089 A 
HETATM   10  C   UNL     1     -43.803  59.126 -51.495  1.00  0.00     0.071 A 
BRANCH   9  11
HETATM   11  C   UNL     1     -45.359  61.176 -51.183  1.00  0.00    -0.005 A 
HETATM   12  C   UNL     1     -45.690  62.243 -50.339  1.00  0.00     0.016 A 
HETATM   13  C   UNL     1     -46.849  62.995 -50.560  1.00  0.00     0.037 A 
HETATM   14  C   UNL     1     -47.700  62.694 -51.625  1.00  0.00     0.068 A 
HETATM   15  C   UNL     1     -47.388  61.624 -52.462  1.00  0.00     0.037 A 
HETATM   16  C   UNL     1     -46.226  60.872 -52.241  1.00  0.00     0.016 A 
BRANCH  14  17
HETATM   17  O   UNL     1     -48.792  63.509 -51.736  1.00  0.00    -0.356 OA
HETATM   18  C   UNL     1     -49.750  63.167 -52.730  1.00  0.00     0.210 C 
ENDBRANCH  14  17
ENDBRANCH   9  11
ENDBRANCH   2   5
BRANCH   1  19
HETATM   19  N   UNL     1     -40.758  55.737 -50.130  1.00  0.00    -0.267 N 
HETATM   20  C   UNL     1     -41.262  54.454 -50.198  1.00  0.00     0.240 C 
HETATM   21  O   UNL     1     -42.465  54.234 -50.340  1.00  0.00    -0.272 OA
HETATM   22  H   UNL     1     -39.784  55.963 -49.934  1.00  0.00     0.190 HD
BRANCH  20  23
HETATM   23  C   UNL     1     -40.221  53.358 -50.113  1.00  0.00     0.143 C 
BRANCH  23  24
HETATM   24  C   UNL     1     -40.090  52.480 -51.336  1.00  0.00    -0.049 A 
HETATM   25  C   UNL     1     -40.344  52.930 -52.638  1.00  0.00     0.008 A 
HETATM   26  C   UNL     1     -40.226  52.062 -53.729  1.00  0.00     0.007 A 
HETATM   27  C   UNL     1     -39.875  50.722 -53.541  1.00  0.00    -0.062 A 
HETATM   28  C   UNL     1     -39.727  49.798 -54.713  1.00  0.00     0.048 C 
HETATM   29  C   UNL     1     -39.618  50.268 -52.245  1.00  0.00     0.007 A 
HETATM   30  C   UNL     1     -39.730  51.135 -51.155  1.00  0.00     0.008 A 
ENDBRANCH  23  24
ENDBRANCH  20  23
ENDBRANCH   1  19
TORSDOF 6
ENDMDL
MODEL 8
REMARK VINA RESULT:      -7.5      6.454     10.679
REMARK  6 active torsions:
REMARK  status: ('A' for Active; 'I' for Inactive)
REMARK    1  A    between atoms: C_5  and  C_6 
REMARK    2  A    between atoms: C_6  and  C_7 
REMARK       I    between atoms: C_7  and  N_8 
REMARK    3  A    between atoms: N_8  and  N_9 
REMARK       I    between atoms: N_9  and  C_10 
REMARK    4  A    between atoms: C_10  and  C_11 
REMARK    5  A    between atoms: C_15  and  C_16 
REMARK    6  A    between atoms: C_19  and  O_20 
ROOT
HETATM    1  N   UNL     1     -42.730  57.875 -54.816  1.00  0.00    -0.262 N 
HETATM    2  C   UNL     1     -42.522  57.739 -56.173  1.00  0.00     0.288 C 
HETATM    3  O   UNL     1     -42.645  56.660 -56.748  1.00  0.00    -0.264 OA
HETATM    4  H   UNL     1     -42.515  58.729 -54.307  1.00  0.00     0.190 HD
ENDROOT
BRANCH   2   5
HETATM    5  C   UNL     1     -42.148  58.949 -56.852  1.00  0.00     0.121 A 
HETATM    6  N   UNL     1     -42.129  60.162 -56.226  1.00  0.00    -0.272 N 
HETATM    7  H   UNL     1     -42.366  60.352 -55.256  1.00  0.00     0.189 HD
HETATM    8  N   UNL     1     -41.743  61.181 -57.009  1.00  0.00    -0.174 NA
HETATM    9  C   UNL     1     -41.516  60.622 -58.209  1.00  0.00     0.089 A 
HETATM   10  C   UNL     1     -41.752  59.220 -58.148  1.00  0.00     0.071 A 
BRANCH   9  11
HETATM   11  C   UNL     1     -41.075  61.407 -59.365  1.00  0.00    -0.005 A 
HETATM   12  C   UNL     1     -41.631  61.187 -60.632  1.00  0.00     0.016 A 
HETATM   13  C   UNL     1     -41.228  61.954 -61.730  1.00  0.00     0.037 A 
HETATM   14  C   UNL     1     -40.263  62.953 -61.586  1.00  0.00     0.068 A 
HETATM   15  C   UNL     1     -39.692  63.169 -60.334  1.00  0.00     0.037 A 
HETATM   16  C   UNL     1     -40.096  62.402 -59.232  1.00  0.00     0.016 A 
BRANCH  14  17
HETATM   17  O   UNL     1     -39.966  63.636 -62.733  1.00  0.00    -0.356 OA
HETATM   18  C   UNL     1     -38.613  63.601 -63.169  1.00  0.00     0.210 C 
ENDBRANCH  14  17
ENDBRANCH   9  11
ENDBRANCH   2   5
BRANCH   1  19
HETATM   19  N   UNL     1     -42.943  56.739 -54.031  1.00  0.00    -0.267 N 
HETATM   20  C   UNL     1     -41.935  56.365 -53.167  1.00  0.00     0.240 C 
HETATM   21  O   UNL     1     -40.914  57.040 -53.026  1.00  0.00    -0.272 OA
HETATM   22  H   UNL     1     -43.765  56.173 -54.237  1.00  0.00     0.190 HD
BRANCH  20  23
HETATM   23  C   UNL     1     -42.199  55.089 -52.397  1.00  0.00     0.143 C 
BRANCH  23  24
HETATM   24  C   UNL     1     -41.492  53.854 -52.908  1.00  0.00    -0.049 A 
HETATM   25  C   UNL     1     -41.799  53.240 -54.129  1.00  0.00     0.008 A 
HETATM   26  C   UNL     1     -41.124  52.085 -54.537  1.00  0.00     0.007 A 
HETATM   27  C   UNL     1     -40.144  51.507 -53.725  1.00  0.00    -0.062 A 
HETATM   28  C   UNL     1     -39.405  50.281 -54.173  1.00  0.00     0.048 C 
HETATM   29  C   UNL     1     -39.831  52.116 -52.507  1.00  0.00     0.007 A 
HETATM   30  C   UNL     1     -40.502  53.272 -52.101  1.00  0.00     0.008 A 
ENDBRANCH  23  24
ENDBRANCH  20  23
ENDBRANCH   1  19
TORSDOF 6
ENDMDL
MODEL 9
REMARK VINA RESULT:      -7.4      6.883      9.212
REMARK  6 active torsions:
REMARK  status: ('A' for Active; 'I' for Inactive)
REMARK    1  A    between atoms: C_5  and  C_6 
REMARK    2  A    between atoms: C_6  and  C_7 
REMARK       I    between atoms: C_7  and  N_8 
REMARK    3  A    between atoms: N_8  and  N_9 
REMARK       I    between atoms: N_9  and  C_10 
REMARK    4  A    between atoms: C_10  and  C_11 
REMARK    5  A    between atoms: C_15  and  C_16 
REMARK    6  A    between atoms: C_19  and  O_20 
ROOT
HETATM    1  N   UNL     1     -43.714  56.297 -56.894  1.00  0.00    -0.262 N 
HETATM    2  C   UNL     1     -42.878  57.008 -56.059  1.00  0.00     0.288 C 
HETATM    3  O   UNL     1     -42.757  58.228 -56.140  1.00  0.00    -0.264 OA
HETATM    4  H   UNL     1     -43.734  55.279 -56.921  1.00  0.00     0.190 HD
ENDROOT
BRANCH   2   5
HETATM    5  C   UNL     1     -42.162  56.213 -55.100  1.00  0.00     0.121 A 
HETATM    6  N   UNL     1     -41.602  56.752 -53.977  1.00  0.00    -0.272 N 
HETATM    7  H   UNL     1     -41.618  57.728 -53.695  1.00  0.00     0.189 HD
HETATM    8  N   UNL     1     -40.983  55.862 -53.188  1.00  0.00    -0.174 NA
HETATM    9  C   UNL     1     -41.121  54.687 -53.824  1.00  0.00     0.089 A 
HETATM   10  C   UNL     1     -41.862  54.866 -55.025  1.00  0.00     0.071 A 
BRANCH   9  11
HETATM   11  C   UNL     1     -40.572  53.439 -53.287  1.00  0.00    -0.005 A 
HETATM   12  C   UNL     1     -40.376  53.278 -51.910  1.00  0.00     0.016 A 
HETATM   13  C   UNL     1     -39.876  52.077 -51.396  1.00  0.00     0.037 A 
HETATM   14  C   UNL     1     -39.560  51.015 -52.246  1.00  0.00     0.068 A 
HETATM   15  C   UNL     1     -39.737  51.170 -53.619  1.00  0.00     0.037 A 
HETATM   16  C   UNL     1     -40.239  52.373 -54.135  1.00  0.00     0.016 A 
BRANCH  14  17
HETATM   17  O   UNL     1     -39.091  49.896 -51.618  1.00  0.00    -0.356 OA
HETATM   18  C   UNL     1     -39.850  49.411 -50.517  1.00  0.00     0.210 C 
ENDBRANCH  14  17
ENDBRANCH   9  11
ENDBRANCH   2   5
BRANCH   1  19
HETATM   19  N   UNL     1     -44.339  56.944 -57.963  1.00  0.00    -0.267 N 
HETATM   20  C   UNL     1     -44.164  56.405 -59.222  1.00  0.00     0.240 C 
HETATM   21  O   UNL     1     -43.551  55.352 -59.400  1.00  0.00    -0.272 OA
HETATM   22  H   UNL     1     -44.769  57.849 -57.779  1.00  0.00     0.190 HD
BRANCH  20  23
HETATM   23  C   UNL     1     -44.808  57.191 -60.344  1.00  0.00     0.143 C 
BRANCH  23  24
HETATM   24  C   UNL     1     -44.264  58.583 -60.568  1.00  0.00    -0.049 A 
HETATM   25  C   UNL     1     -42.896  58.871 -60.658  1.00  0.00     0.008 A 
HETATM   26  C   UNL     1     -42.453  60.184 -60.844  1.00  0.00     0.007 A 
HETATM   27  C   UNL     1     -43.365  61.241 -60.921  1.00  0.00    -0.062 A 
HETATM   28  C   UNL     1     -42.891  62.646 -61.143  1.00  0.00     0.048 C 
HETATM   29  C   UNL     1     -44.731  60.960 -60.834  1.00  0.00     0.007 A 
HETATM   30  C   UNL     1     -45.175  59.648 -60.654  1.00  0.00     0.008 A 
ENDBRANCH  23  24
ENDBRANCH  20  23
ENDBRANCH   1  19
TORSDOF 6
ENDMDL
MODEL 10
REMARK VINA RESULT:      -7.3      2.876     10.543
REMARK  6 active torsions:
REMARK  status: ('A' for Active; 'I' for Inactive)
REMARK    1  A    between atoms: C_5  and  C_6 
REMARK    2  A    between atoms: C_6  and  C_7 
REMARK       I    between atoms: C_7  and  N_8 
REMARK    3  A    between atoms: N_8  and  N_9 
REMARK       I    between atoms: N_9  and  C_10 
REMARK    4  A    between atoms: C_10  and  C_11 
REMARK    5  A    between atoms: C_15  and  C_16 
REMARK    6  A    between atoms: C_19  and  O_20 
ROOT
HETATM    1  N   UNL     1     -41.451  57.084 -50.346  1.00  0.00    -0.262 N 
HETATM    2  C   UNL     1     -41.456  57.734 -51.562  1.00  0.00     0.288 C 
HETATM    3  O   UNL     1     -40.897  57.271 -52.553  1.00  0.00    -0.264 OA
HETATM    4  H   UNL     1     -41.802  57.509 -49.490  1.00  0.00     0.190 HD
ENDROOT
BRANCH   2   5
HETATM    5  C   UNL     1     -42.157  58.989 -51.574  1.00  0.00     0.121 A 
HETATM    6  N   UNL     1     -42.063  59.867 -52.616  1.00  0.00    -0.272 N 
HETATM    7  H   UNL     1     -41.517  59.751 -53.465  1.00  0.00     0.189 HD
HETATM    8  N   UNL     1     -42.794  60.981 -52.465  1.00  0.00    -0.174 NA
HETATM    9  C   UNL     1     -43.380  60.845 -51.264  1.00  0.00     0.089 A 
HETATM   10  C   UNL     1     -43.009  59.603 -50.678  1.00  0.00     0.071 A 
BRANCH   9  11
HETATM   11  C   UNL     1     -44.274  61.867 -50.710  1.00  0.00    -0.005 A 
HETATM   12  C   UNL     1     -45.136  62.590 -51.543  1.00  0.00     0.016 A 
HETATM   13  C   UNL     1     -46.007  63.546 -51.011  1.00  0.00     0.037 A 
HETATM   14  C   UNL     1     -46.032  63.801 -49.638  1.00  0.00     0.068 A 
HETATM   15  C   UNL     1     -45.167  63.098 -48.802  1.00  0.00     0.037 A 
HETATM   16  C   UNL     1     -44.295  62.138 -49.334  1.00  0.00     0.016 A 
BRANCH  14  17
HETATM   17  O   UNL     1     -46.934  64.750 -49.246  1.00  0.00    -0.356 OA
HETATM   18  C   UNL     1     -48.280  64.325 -49.076  1.00  0.00     0.210 C 
ENDBRANCH  14  17
ENDBRANCH   9  11
ENDBRANCH   2   5
BRANCH   1  19
HETATM   19  N   UNL     1     -40.671  55.937 -50.177  1.00  0.00    -0.267 N 
HETATM   20  C   UNL     1     -41.331  54.732 -50.051  1.00  0.00     0.240 C 
HETATM   21  O   UNL     1     -42.555  54.646 -50.158  1.00  0.00    -0.272 OA
HETATM   22  H   UNL     1     -39.673  56.066 -50.018  1.00  0.00     0.190 HD
BRANCH  20  23
HETATM   23  C   UNL     1     -40.434  53.539 -49.801  1.00  0.00     0.143 C 
BRANCH  23  24
HETATM   24  C   UNL     1     -40.230  52.612 -50.978  1.00  0.00    -0.049 A 
HETATM   25  C   UNL     1     -39.886  51.261 -50.845  1.00  0.00     0.008 A 
HETATM   26  C   UNL     1     -39.690  50.459 -51.974  1.00  0.00     0.007 A 
HETATM   27  C   UNL     1     -39.810  50.995 -53.259  1.00  0.00    -0.062 A 
HETATM   28  C   UNL     1     -39.621  50.130 -54.470  1.00  0.00     0.048 C 
HETATM   29  C   UNL     1     -40.156  52.342 -53.399  1.00  0.00     0.007 A 
HETATM   30  C   UNL     1     -40.358  53.142 -52.272  1.00  0.00     0.008 A 
ENDBRANCH  23  24
ENDBRANCH  20  23
ENDBRANCH   1  19
TORSDOF 6
ENDMDL
