MODEL 1
REMARK VINA RESULT:      -7.9      0.000      0.000
REMARK  8 active torsions:
REMARK  status: ('A' for Active; 'I' for Inactive)
REMARK    1  A    between atoms: CG_8  and  CB_9 
REMARK    2  A    between atoms: CB_9  and  CA_10 
REMARK    3  A    between atoms: CA_10  and  N_11 
REMARK    4  A    between atoms: CA_10  and  C_14 
REMARK    5  A    between atoms: N_11  and  C_19 
REMARK    6  A    between atoms: C_14  and  O_15 
REMARK    7  A    between atoms: C_19  and  C_20 
REMARK    8  A    between atoms: C_22  and  C_23 
ROOT
ATOM      1  CA  TRP A   1     -42.702  54.855 -53.023  1.00  0.00     0.214 C 
ENDROOT
BRANCH   1   2
ATOM      2  CB  TRP A   1     -41.170  54.829 -53.047  1.00  0.00     0.076 C 
BRANCH   2   3
ATOM      3  CG  TRP A   1     -40.605  53.640 -52.343  1.00  0.00    -0.028 A 
ATOM      4  CD2 TRP A   1     -40.321  52.355 -52.910  1.00  0.00    -0.002 A 
ATOM      5  CE3 TRP A   1     -40.433  51.800 -54.202  1.00  0.00     0.014 A 
ATOM      6  CE2 TRP A   1     -39.839  51.545 -51.881  1.00  0.00     0.042 A 
ATOM      7  CZ3 TRP A   1     -40.076  50.462 -54.412  1.00  0.00     0.001 A 
ATOM      8  CH2 TRP A   1     -39.608  49.679 -53.359  1.00  0.00     0.002 A 
ATOM      9  CZ2 TRP A   1     -39.476  50.208 -52.073  1.00  0.00     0.030 A 
ATOM     10  NE1 TRP A   1     -39.797  52.313 -50.741  1.00  0.00    -0.365 N 
ATOM     11  HE1 TRP A   1     -39.462  51.985 -49.844  1.00  0.00     0.165 HD
ATOM     12  CD1 TRP A   1     -40.265  53.573 -51.005  1.00  0.00     0.096 A 
ENDBRANCH   2   3
ENDBRANCH   1   2
BRANCH   1  13
ATOM     13  N   TRP A   1     -43.239  55.996 -53.860  1.00  0.00    -0.064 N 
ATOM     14  H1  TRP A   1     -43.855  55.526 -54.555  1.00  0.00     0.278 HD
ATOM     15  H2  TRP A   1     -43.881  56.588 -53.320  1.00  0.00     0.278 HD
BRANCH  13  16
HETATM   16  C   UNK A   0     -42.253  56.835 -54.587  1.00  0.00     0.280 C 
BRANCH  16  17
HETATM   17  C   UNK A   0     -42.528  56.848 -56.045  1.00  0.00     0.027 A 
HETATM   18  S   UNK A   0     -42.901  55.402 -56.896  1.00  0.00    -0.076 SA
HETATM   19  C   UNK A   0     -43.013  56.301 -58.353  1.00  0.00     0.079 A 
HETATM   20  N   UNK A   0     -42.803  57.593 -58.235  1.00  0.00    -0.257 NA
HETATM   21  C   UNK A   0     -42.540  57.913 -56.921  1.00  0.00     0.133 A 
BRANCH  19  22
HETATM   22  C   UNK A   0     -43.322  55.636 -59.695  1.00  0.00     0.045 C 
HETATM   23  C   UNK A   0     -44.372  54.486 -59.612  1.00  0.00     0.011 C 
HETATM   24  C   UNK A   0     -44.943  55.004 -60.944  1.00  0.00     0.002 C 
HETATM   25  C   UNK A   0     -44.400  56.385 -60.538  1.00  0.00     0.011 C 
ENDBRANCH  19  22
ENDBRANCH  16  17
ENDBRANCH  13  16
ENDBRANCH   1  13
BRANCH   1  26
ATOM     26  C   TRP A   1     -43.299  55.056 -51.614  1.00  0.00     0.197 C 
BRANCH  26  27
ATOM     27  O   TRP A   1     -44.125  53.914 -51.341  1.00  0.00    -0.399 OA
ATOM     28  H   TRP A   1     -44.013  53.708 -50.388  1.00  0.00     0.209 HD
ENDBRANCH  26  27
ENDBRANCH   1  26
TORSDOF 8
ENDMDL
MODEL 2
REMARK VINA RESULT:      -7.7      1.800      2.224
REMARK  8 active torsions:
REMARK  status: ('A' for Active; 'I' for Inactive)
REMARK    1  A    between atoms: CG_8  and  CB_9 
REMARK    2  A    between atoms: CB_9  and  CA_10 
REMARK    3  A    between atoms: CA_10  and  N_11 
REMARK    4  A    between atoms: CA_10  and  C_14 
REMARK    5  A    between atoms: N_11  and  C_19 
REMARK    6  A    between atoms: C_14  and  O_15 
REMARK    7  A    between atoms: C_19  and  C_20 
REMARK    8  A    between atoms: C_22  and  C_23 
ROOT
ATOM      1  CA  TRP A   1     -42.960  54.853 -53.429  1.00  0.00     0.214 C 
ENDROOT
BRANCH   1   2
ATOM      2  CB  TRP A   1     -41.441  54.782 -53.616  1.00  0.00     0.076 C 
BRANCH   2   3
ATOM      3  CG  TRP A   1     -40.802  53.754 -52.743  1.00  0.00    -0.028 A 
ATOM      4  CD2 TRP A   1     -40.437  52.417 -53.109  1.00  0.00    -0.002 A 
ATOM      5  CE3 TRP A   1     -40.513  51.664 -54.299  1.00  0.00     0.014 A 
ATOM      6  CE2 TRP A   1     -39.905  51.808 -51.972  1.00  0.00     0.042 A 
ATOM      7  CZ3 TRP A   1     -40.072  50.335 -54.303  1.00  0.00     0.001 A 
ATOM      8  CH2 TRP A   1     -39.555  49.754 -53.148  1.00  0.00     0.002 A 
ATOM      9  CZ2 TRP A   1     -39.458  50.483 -51.960  1.00  0.00     0.030 A 
ATOM     10  NE1 TRP A   1     -39.912  52.743 -50.963  1.00  0.00    -0.365 N 
ATOM     11  HE1 TRP A   1     -39.558  52.579 -50.030  1.00  0.00     0.165 HD
ATOM     12  CD1 TRP A   1     -40.459  53.916 -51.414  1.00  0.00     0.096 A 
ENDBRANCH   2   3
ENDBRANCH   1   2
BRANCH   1  13
ATOM     13  N   TRP A   1     -43.677  54.767 -54.760  1.00  0.00    -0.064 N 
ATOM     14  H1  TRP A   1     -44.264  53.912 -54.672  1.00  0.00     0.278 HD
ATOM     15  H2  TRP A   1     -44.359  55.526 -54.869  1.00  0.00     0.278 HD
BRANCH  13  16
HETATM   16  C   UNK A   0     -42.840  54.647 -55.981  1.00  0.00     0.280 C 
BRANCH  16  17
HETATM   17  C   UNK A   0     -42.819  55.918 -56.747  1.00  0.00     0.027 A 
HETATM   18  S   UNK A   0     -43.281  55.971 -58.402  1.00  0.00    -0.076 SA
HETATM   19  C   UNK A   0     -42.940  57.651 -58.433  1.00  0.00     0.079 A 
HETATM   20  N   UNK A   0     -42.521  58.162 -57.297  1.00  0.00    -0.257 NA
HETATM   21  C   UNK A   0     -42.464  57.183 -56.329  1.00  0.00     0.133 A 
BRANCH  19  22
HETATM   22  C   UNK A   0     -43.101  58.488 -59.702  1.00  0.00     0.045 C 
HETATM   23  C   UNK A   0     -42.789  60.005 -59.513  1.00  0.00     0.011 C 
HETATM   24  C   UNK A   0     -42.117  59.969 -60.898  1.00  0.00     0.002 C 
HETATM   25  C   UNK A   0     -41.846  58.478 -60.630  1.00  0.00     0.011 C 
ENDBRANCH  19  22
ENDBRANCH  16  17
ENDBRANCH  13  16
ENDBRANCH   1  13
BRANCH   1  26
ATOM     26  C   TRP A   1     -43.447  56.165 -52.780  1.00  0.00     0.197 C 
BRANCH  26  27
ATOM     27  O   TRP A   1     -44.636  56.564 -53.480  1.00  0.00    -0.399 OA
ATOM     28  H   TRP A   1     -44.736  57.529 -53.334  1.00  0.00     0.209 HD
ENDBRANCH  26  27
ENDBRANCH   1  26
TORSDOF 8
ENDMDL
MODEL 3
REMARK VINA RESULT:      -7.1      3.350      5.876
REMARK  8 active torsions:
REMARK  status: ('A' for Active; 'I' for Inactive)
REMARK    1  A    between atoms: CG_8  and  CB_9 
REMARK    2  A    between atoms: CB_9  and  CA_10 
REMARK    3  A    between atoms: CA_10  and  N_11 
REMARK    4  A    between atoms: CA_10  and  C_14 
REMARK    5  A    between atoms: N_11  and  C_19 
REMARK    6  A    between atoms: C_14  and  O_15 
REMARK    7  A    between atoms: C_19  and  C_20 
REMARK    8  A    between atoms: C_22  and  C_23 
ROOT
ATOM      1  CA  TRP A   1     -42.919  55.933 -55.165  1.00  0.00     0.214 C 
ENDROOT
BRANCH   1   2
ATOM      2  CB  TRP A   1     -43.699  54.922 -54.320  1.00  0.00     0.076 C 
BRANCH   2   3
ATOM      3  CG  TRP A   1     -42.906  54.405 -53.166  1.00  0.00    -0.028 A 
ATOM      4  CD2 TRP A   1     -41.768  53.535 -53.221  1.00  0.00    -0.002 A 
ATOM      5  CE3 TRP A   1     -41.039  52.929 -54.265  1.00  0.00     0.014 A 
ATOM      6  CE2 TRP A   1     -41.372  53.289 -51.906  1.00  0.00     0.042 A 
ATOM      7  CZ3 TRP A   1     -39.959  52.091 -53.957  1.00  0.00     0.001 A 
ATOM      8  CH2 TRP A   1     -39.597  51.859 -52.632  1.00  0.00     0.002 A 
ATOM      9  CZ2 TRP A   1     -40.295  52.457 -51.581  1.00  0.00     0.030 A 
ATOM     10  NE1 TRP A   1     -42.210  54.005 -51.083  1.00  0.00    -0.365 N 
ATOM     11  HE1 TRP A   1     -42.135  54.031 -50.075  1.00  0.00     0.165 HD
ATOM     12  CD1 TRP A   1     -43.143  54.674 -51.831  1.00  0.00     0.096 A 
ENDBRANCH   2   3
ENDBRANCH   1   2
BRANCH   1  13
ATOM     13  N   TRP A   1     -43.723  57.199 -55.378  1.00  0.00    -0.064 N 
ATOM     14  H1  TRP A   1     -43.201  57.702 -56.125  1.00  0.00     0.278 HD
ATOM     15  H2  TRP A   1     -44.634  56.997 -55.804  1.00  0.00     0.278 HD
BRANCH  13  16
HETATM   16  C   UNK A   0     -43.887  58.108 -54.215  1.00  0.00     0.280 C 
BRANCH  16  17
HETATM   17  C   UNK A   0     -42.581  58.407 -53.577  1.00  0.00     0.027 A 
HETATM   18  S   UNK A   0     -42.279  58.008 -51.932  1.00  0.00    -0.076 SA
HETATM   19  C   UNK A   0     -40.709  58.686 -52.067  1.00  0.00     0.079 A 
HETATM   20  N   UNK A   0     -40.405  59.171 -53.250  1.00  0.00    -0.257 NA
HETATM   21  C   UNK A   0     -41.461  59.003 -54.118  1.00  0.00     0.133 A 
BRANCH  19  22
HETATM   22  C   UNK A   0     -39.741  58.732 -50.884  1.00  0.00     0.045 C 
HETATM   23  C   UNK A   0     -38.311  59.237 -51.247  1.00  0.00     0.011 C 
HETATM   24  C   UNK A   0     -38.312  59.992 -49.906  1.00  0.00     0.002 C 
HETATM   25  C   UNK A   0     -39.845  60.035 -50.032  1.00  0.00     0.011 C 
ENDBRANCH  19  22
ENDBRANCH  16  17
ENDBRANCH  13  16
ENDBRANCH   1  13
BRANCH   1  26
ATOM     26  C   TRP A   1     -42.566  55.424 -56.578  1.00  0.00     0.197 C 
BRANCH  26  27
ATOM     27  O   TRP A   1     -43.608  54.514 -56.969  1.00  0.00    -0.399 OA
ATOM     28  H   TRP A   1     -44.015  54.182 -56.140  1.00  0.00     0.209 HD
ENDBRANCH  26  27
ENDBRANCH   1  26
TORSDOF 8
ENDMDL
MODEL 4
REMARK VINA RESULT:      -7.0      1.964      2.365
REMARK  8 active torsions:
REMARK  status: ('A' for Active; 'I' for Inactive)
REMARK    1  A    between atoms: CG_8  and  CB_9 
REMARK    2  A    between atoms: CB_9  and  CA_10 
REMARK    3  A    between atoms: CA_10  and  N_11 
REMARK    4  A    between atoms: CA_10  and  C_14 
REMARK    5  A    between atoms: N_11  and  C_19 
REMARK    6  A    between atoms: C_14  and  O_15 
REMARK    7  A    between atoms: C_19  and  C_20 
REMARK    8  A    between atoms: C_22  and  C_23 
ROOT
ATOM      1  CA  TRP A   1     -43.002  55.829 -51.814  1.00  0.00     0.214 C 
ENDROOT
BRANCH   1   2
ATOM      2  CB  TRP A   1     -41.588  55.850 -51.227  1.00  0.00     0.076 C 
BRANCH   2   3
ATOM      3  CG  TRP A   1     -40.982  54.489 -51.138  1.00  0.00    -0.028 A 
ATOM      4  CD2 TRP A   1     -40.597  53.642 -52.229  1.00  0.00    -0.002 A 
ATOM      5  CE3 TRP A   1     -40.620  53.770 -53.633  1.00  0.00     0.014 A 
ATOM      6  CE2 TRP A   1     -40.111  52.455 -51.680  1.00  0.00     0.042 A 
ATOM      7  CZ3 TRP A   1     -40.175  52.708 -54.431  1.00  0.00     0.001 A 
ATOM      8  CH2 TRP A   1     -39.705  51.533 -53.850  1.00  0.00     0.002 A 
ATOM      9  CZ2 TRP A   1     -39.661  51.386 -52.461  1.00  0.00     0.030 A 
ATOM     10  NE1 TRP A   1     -40.164  52.584 -50.312  1.00  0.00    -0.365 N 
ATOM     11  HE1 TRP A   1     -39.848  51.878 -49.659  1.00  0.00     0.165 HD
ATOM     12  CD1 TRP A   1     -40.695  53.801 -49.974  1.00  0.00     0.096 A 
ENDBRANCH   2   3
ENDBRANCH   1   2
BRANCH   1  13
ATOM     13  N   TRP A   1     -43.038  56.500 -53.171  1.00  0.00    -0.064 N 
ATOM     14  H1  TRP A   1     -43.468  57.428 -52.978  1.00  0.00     0.278 HD
ATOM     15  H2  TRP A   1     -42.093  56.729 -53.501  1.00  0.00     0.278 HD
BRANCH  13  16
HETATM   16  C   UNK A   0     -43.812  55.829 -54.246  1.00  0.00     0.280 C 
BRANCH  16  17
HETATM   17  C   UNK A   0     -43.287  56.182 -55.588  1.00  0.00     0.027 A 
HETATM   18  S   UNK A   0     -42.826  57.794 -55.971  1.00  0.00    -0.076 SA
HETATM   19  C   UNK A   0     -42.429  57.292 -57.562  1.00  0.00     0.079 A 
HETATM   20  N   UNK A   0     -42.608  56.013 -57.810  1.00  0.00    -0.257 NA
HETATM   21  C   UNK A   0     -43.083  55.374 -56.687  1.00  0.00     0.133 A 
BRANCH  19  22
HETATM   22  C   UNK A   0     -41.916  58.272 -58.618  1.00  0.00     0.045 C 
HETATM   23  C   UNK A   0     -41.872  57.690 -60.064  1.00  0.00     0.011 C 
HETATM   24  C   UNK A   0     -42.358  59.064 -60.558  1.00  0.00     0.002 C 
HETATM   25  C   UNK A   0     -43.013  59.231 -59.176  1.00  0.00     0.011 C 
ENDBRANCH  19  22
ENDBRANCH  16  17
ENDBRANCH  13  16
ENDBRANCH   1  13
BRANCH   1  26
ATOM     26  C   TRP A   1     -44.044  56.574 -50.955  1.00  0.00     0.197 C 
BRANCH  26  27
ATOM     27  O   TRP A   1     -43.532  57.897 -50.727  1.00  0.00    -0.399 OA
ATOM     28  H   TRP A   1     -42.686  57.959 -51.220  1.00  0.00     0.209 HD
ENDBRANCH  26  27
ENDBRANCH   1  26
TORSDOF 8
ENDMDL
MODEL 5
REMARK VINA RESULT:      -7.0      2.511      3.479
REMARK  8 active torsions:
REMARK  status: ('A' for Active; 'I' for Inactive)
REMARK    1  A    between atoms: CG_8  and  CB_9 
REMARK    2  A    between atoms: CB_9  and  CA_10 
REMARK    3  A    between atoms: CA_10  and  N_11 
REMARK    4  A    between atoms: CA_10  and  C_14 
REMARK    5  A    between atoms: N_11  and  C_19 
REMARK    6  A    between atoms: C_14  and  O_15 
REMARK    7  A    between atoms: C_19  and  C_20 
REMARK    8  A    between atoms: C_22  and  C_23 
ROOT
ATOM      1  CA  TRP A   1     -41.512  54.148 -49.704  1.00  0.00     0.214 C 
ENDROOT
BRANCH   1   2
ATOM      2  CB  TRP A   1     -40.536  53.902 -50.859  1.00  0.00     0.076 C 
BRANCH   2   3
ATOM      3  CG  TRP A   1     -40.237  52.453 -51.059  1.00  0.00    -0.028 A 
ATOM      4  CD2 TRP A   1     -40.017  51.782 -52.305  1.00  0.00    -0.002 A 
ATOM      5  CE3 TRP A   1     -39.979  52.192 -53.655  1.00  0.00     0.014 A 
ATOM      6  CE2 TRP A   1     -39.807  50.433 -52.018  1.00  0.00     0.042 A 
ATOM      7  CZ3 TRP A   1     -39.753  51.242 -54.659  1.00  0.00     0.001 A 
ATOM      8  CH2 TRP A   1     -39.557  49.902 -54.337  1.00  0.00     0.002 A 
ATOM      9  CZ2 TRP A   1     -39.577  49.472 -53.008  1.00  0.00     0.030 A 
ATOM     10  NE1 TRP A   1     -39.862  50.291 -50.651  1.00  0.00    -0.365 N 
ATOM     11  HE1 TRP A   1     -39.719  49.418 -50.161  1.00  0.00     0.165 HD
ATOM     12  CD1 TRP A   1     -40.130  51.500 -50.064  1.00  0.00     0.096 A 
ENDBRANCH   2   3
ENDBRANCH   1   2
BRANCH   1  13
ATOM     13  N   TRP A   1     -42.586  55.139 -50.101  1.00  0.00    -0.064 N 
ATOM     14  H1  TRP A   1     -43.142  54.629 -50.817  1.00  0.00     0.278 HD
ATOM     15  H2  TRP A   1     -43.252  55.297 -49.336  1.00  0.00     0.278 HD
BRANCH  13  16
HETATM   16  C   UNK A   0     -42.142  56.435 -50.674  1.00  0.00     0.280 C 
BRANCH  16  17
HETATM   17  C   UNK A   0     -42.860  56.739 -51.936  1.00  0.00     0.027 A 
HETATM   18  S   UNK A   0     -42.333  56.095 -53.441  1.00  0.00    -0.076 SA
HETATM   19  C   UNK A   0     -43.608  56.927 -54.232  1.00  0.00     0.079 A 
HETATM   20  N   UNK A   0     -44.391  57.633 -53.447  1.00  0.00    -0.257 NA
HETATM   21  C   UNK A   0     -43.979  57.519 -52.138  1.00  0.00     0.133 A 
BRANCH  19  22
HETATM   22  C   UNK A   0     -43.804  56.859 -55.747  1.00  0.00     0.045 C 
HETATM   23  C   UNK A   0     -43.481  58.188 -56.494  1.00  0.00     0.011 C 
HETATM   24  C   UNK A   0     -42.851  57.331 -57.606  1.00  0.00     0.002 C 
HETATM   25  C   UNK A   0     -42.577  56.279 -56.517  1.00  0.00     0.011 C 
ENDBRANCH  19  22
ENDBRANCH  16  17
ENDBRANCH  13  16
ENDBRANCH   1  13
BRANCH   1  26
ATOM     26  C   TRP A   1     -40.847  54.739 -48.443  1.00  0.00     0.197 C 
BRANCH  26  27
ATOM     27  O   TRP A   1     -40.808  53.692 -47.460  1.00  0.00    -0.399 OA
ATOM     28  H   TRP A   1     -40.170  53.023 -47.788  1.00  0.00     0.209 HD
ENDBRANCH  26  27
ENDBRANCH   1  26
TORSDOF 8
ENDMDL
MODEL 6
REMARK VINA RESULT:      -6.9     13.931     17.249
REMARK  8 active torsions:
REMARK  status: ('A' for Active; 'I' for Inactive)
REMARK    1  A    between atoms: CG_8  and  CB_9 
REMARK    2  A    between atoms: CB_9  and  CA_10 
REMARK    3  A    between atoms: CA_10  and  N_11 
REMARK    4  A    between atoms: CA_10  and  C_14 
REMARK    5  A    between atoms: N_11  and  C_19 
REMARK    6  A    between atoms: C_14  and  O_15 
REMARK    7  A    between atoms: C_19  and  C_20 
REMARK    8  A    between atoms: C_22  and  C_23 
ROOT
ATOM      1  CA  TRP A   1     -36.231  41.590 -56.273  1.00  0.00     0.214 C 
ENDROOT
BRANCH   1   2
ATOM      2  CB  TRP A   1     -37.564  41.836 -56.986  1.00  0.00     0.076 C 
BRANCH   2   3
ATOM      3  CG  TRP A   1     -37.515  41.476 -58.434  1.00  0.00    -0.028 A 
ATOM      4  CD2 TRP A   1     -37.793  40.195 -59.014  1.00  0.00    -0.002 A 
ATOM      5  CE3 TRP A   1     -38.195  38.945 -58.500  1.00  0.00     0.014 A 
ATOM      6  CE2 TRP A   1     -37.591  40.311 -60.390  1.00  0.00     0.042 A 
ATOM      7  CZ3 TRP A   1     -38.361  37.861 -59.371  1.00  0.00     0.001 A 
ATOM      8  CH2 TRP A   1     -38.140  38.009 -60.738  1.00  0.00     0.002 A 
ATOM      9  CZ2 TRP A   1     -37.754  39.240 -61.274  1.00  0.00     0.030 A 
ATOM     10  NE1 TRP A   1     -37.237  41.616 -60.644  1.00  0.00    -0.365 N 
ATOM     11  HE1 TRP A   1     -37.054  41.989 -61.567  1.00  0.00     0.165 HD
ATOM     12  CD1 TRP A   1     -37.180  42.324 -59.472  1.00  0.00     0.096 A 
ENDBRANCH   2   3
ENDBRANCH   1   2
BRANCH   1  13
ATOM     13  N   TRP A   1     -36.187  40.204 -55.664  1.00  0.00    -0.064 N 
ATOM     14  H1  TRP A   1     -36.297  40.377 -54.644  1.00  0.00     0.278 HD
ATOM     15  H2  TRP A   1     -37.020  39.659 -55.914  1.00  0.00     0.278 HD
BRANCH  13  16
HETATM   16  C   UNK A   0     -34.958  39.400 -55.884  1.00  0.00     0.280 C 
BRANCH  16  17
HETATM   17  C   UNK A   0     -33.911  39.735 -54.888  1.00  0.00     0.027 A 
HETATM   18  S   UNK A   0     -34.254  39.755 -53.203  1.00  0.00    -0.076 SA
HETATM   19  C   UNK A   0     -32.635  40.228 -52.890  1.00  0.00     0.079 A 
HETATM   20  N   UNK A   0     -31.870  40.356 -53.951  1.00  0.00    -0.257 NA
HETATM   21  C   UNK A   0     -32.587  40.064 -55.091  1.00  0.00     0.133 A 
BRANCH  19  22
HETATM   22  C   UNK A   0     -32.127  40.493 -51.472  1.00  0.00     0.045 C 
HETATM   23  C   UNK A   0     -33.255  40.744 -50.425  1.00  0.00     0.011 C 
HETATM   24  C   UNK A   0     -32.419  39.922 -49.429  1.00  0.00     0.002 C 
HETATM   25  C   UNK A   0     -31.833  39.198 -50.653  1.00  0.00     0.011 C 
ENDBRANCH  19  22
ENDBRANCH  16  17
ENDBRANCH  13  16
ENDBRANCH   1  13
BRANCH   1  26
ATOM     26  C   TRP A   1     -35.960  42.564 -55.107  1.00  0.00     0.197 C 
BRANCH  26  27
ATOM     27  O   TRP A   1     -36.821  42.174 -54.025  1.00  0.00    -0.399 OA
ATOM     28  H   TRP A   1     -36.385  41.415 -53.581  1.00  0.00     0.209 HD
ENDBRANCH  26  27
ENDBRANCH   1  26
TORSDOF 8
ENDMDL
MODEL 7
REMARK VINA RESULT:      -6.8      2.483      2.986
REMARK  8 active torsions:
REMARK  status: ('A' for Active; 'I' for Inactive)
REMARK    1  A    between atoms: CG_8  and  CB_9 
REMARK    2  A    between atoms: CB_9  and  CA_10 
REMARK    3  A    between atoms: CA_10  and  N_11 
REMARK    4  A    between atoms: CA_10  and  C_14 
REMARK    5  A    between atoms: N_11  and  C_19 
REMARK    6  A    between atoms: C_14  and  O_15 
REMARK    7  A    between atoms: C_19  and  C_20 
REMARK    8  A    between atoms: C_22  and  C_23 
ROOT
ATOM      1  CA  TRP A   1     -43.087  55.763 -54.730  1.00  0.00     0.214 C 
ENDROOT
BRANCH   1   2
ATOM      2  CB  TRP A   1     -43.515  54.660 -53.757  1.00  0.00     0.076 C 
BRANCH   2   3
ATOM      3  CG  TRP A   1     -42.401  54.213 -52.869  1.00  0.00    -0.028 A 
ATOM      4  CD2 TRP A   1     -41.428  53.198 -53.149  1.00  0.00    -0.002 A 
ATOM      5  CE3 TRP A   1     -41.172  52.353 -54.249  1.00  0.00     0.014 A 
ATOM      6  CE2 TRP A   1     -40.605  53.094 -52.028  1.00  0.00     0.042 A 
ATOM      7  CZ3 TRP A   1     -40.120  51.431 -54.180  1.00  0.00     0.001 A 
ATOM      8  CH2 TRP A   1     -39.323  51.346 -53.041  1.00  0.00     0.002 A 
ATOM      9  CZ2 TRP A   1     -39.549  52.180 -51.943  1.00  0.00     0.030 A 
ATOM     10  NE1 TRP A   1     -41.033  54.029 -51.115  1.00  0.00    -0.365 N 
ATOM     11  HE1 TRP A   1     -40.598  54.191 -50.216  1.00  0.00     0.165 HD
ATOM     12  CD1 TRP A   1     -42.120  54.703 -51.608  1.00  0.00     0.096 A 
ENDBRANCH   2   3
ENDBRANCH   1   2
BRANCH   1  13
ATOM     13  N   TRP A   1     -44.245  56.685 -55.050  1.00  0.00    -0.064 N 
ATOM     14  H1  TRP A   1     -44.935  56.063 -55.520  1.00  0.00     0.278 HD
ATOM     15  H2  TRP A   1     -44.727  56.991 -54.197  1.00  0.00     0.278 HD
BRANCH  13  16
HETATM   16  C   UNK A   0     -43.970  57.847 -55.932  1.00  0.00     0.280 C 
BRANCH  16  17
HETATM   17  C   UNK A   0     -44.929  57.904 -57.063  1.00  0.00     0.027 A 
HETATM   18  S   UNK A   0     -44.515  57.293 -58.616  1.00  0.00    -0.076 SA
HETATM   19  C   UNK A   0     -46.054  57.773 -59.203  1.00  0.00     0.079 A 
HETATM   20  N   UNK A   0     -46.842  58.340 -58.317  1.00  0.00    -0.257 NA
HETATM   21  C   UNK A   0     -46.213  58.405 -57.094  1.00  0.00     0.133 A 
BRANCH  19  22
HETATM   22  C   UNK A   0     -46.467  57.565 -60.660  1.00  0.00     0.045 C 
HETATM   23  C   UNK A   0     -47.353  56.304 -60.901  1.00  0.00     0.011 C 
HETATM   24  C   UNK A   0     -48.161  57.147 -61.903  1.00  0.00     0.002 C 
HETATM   25  C   UNK A   0     -47.733  58.375 -61.080  1.00  0.00     0.011 C 
ENDBRANCH  19  22
ENDBRANCH  16  17
ENDBRANCH  13  16
ENDBRANCH   1  13
BRANCH   1  26
ATOM     26  C   TRP A   1     -42.590  55.233 -56.092  1.00  0.00     0.197 C 
BRANCH  26  27
ATOM     27  O   TRP A   1     -43.610  54.358 -56.599  1.00  0.00    -0.399 OA
ATOM     28  H   TRP A   1     -43.170  53.506 -56.809  1.00  0.00     0.209 HD
ENDBRANCH  26  27
ENDBRANCH   1  26
TORSDOF 8
ENDMDL
MODEL 8
REMARK VINA RESULT:      -6.8      4.579      5.814
REMARK  8 active torsions:
REMARK  status: ('A' for Active; 'I' for Inactive)
REMARK    1  A    between atoms: CG_8  and  CB_9 
REMARK    2  A    between atoms: CB_9  and  CA_10 
REMARK    3  A    between atoms: CA_10  and  N_11 
REMARK    4  A    between atoms: CA_10  and  C_14 
REMARK    5  A    between atoms: N_11  and  C_19 
REMARK    6  A    between atoms: C_14  and  O_15 
REMARK    7  A    between atoms: C_19  and  C_20 
REMARK    8  A    between atoms: C_22  and  C_23 
ROOT
ATOM      1  CA  TRP A   1     -41.603  54.210 -49.856  1.00  0.00     0.214 C 
ENDROOT
BRANCH   1   2
ATOM      2  CB  TRP A   1     -40.583  53.948 -50.968  1.00  0.00     0.076 C 
BRANCH   2   3
ATOM      3  CG  TRP A   1     -40.264  52.497 -51.123  1.00  0.00    -0.028 A 
ATOM      4  CD2 TRP A   1     -40.027  51.792 -52.348  1.00  0.00    -0.002 A 
ATOM      5  CE3 TRP A   1     -39.986  52.163 -53.709  1.00  0.00     0.014 A 
ATOM      6  CE2 TRP A   1     -39.802  50.455 -52.019  1.00  0.00     0.042 A 
ATOM      7  CZ3 TRP A   1     -39.741  51.187 -54.683  1.00  0.00     0.001 A 
ATOM      8  CH2 TRP A   1     -39.531  49.859 -54.320  1.00  0.00     0.002 A 
ATOM      9  CZ2 TRP A   1     -39.553  49.469 -52.979  1.00  0.00     0.030 A 
ATOM     10  NE1 TRP A   1     -39.864  50.354 -50.649  1.00  0.00    -0.365 N 
ATOM     11  HE1 TRP A   1     -39.713  49.497 -50.132  1.00  0.00     0.165 HD
ATOM     12  CD1 TRP A   1     -40.151  51.576 -50.100  1.00  0.00     0.096 A 
ENDBRANCH   2   3
ENDBRANCH   1   2
BRANCH   1  13
ATOM     13  N   TRP A   1     -42.791  54.990 -50.381  1.00  0.00    -0.064 N 
ATOM     14  H1  TRP A   1     -43.564  54.294 -50.383  1.00  0.00     0.278 HD
ATOM     15  H2  TRP A   1     -43.100  55.701 -49.708  1.00  0.00     0.278 HD
BRANCH  13  16
HETATM   16  C   UNK A   0     -42.675  55.581 -51.738  1.00  0.00     0.280 C 
BRANCH  16  17
HETATM   17  C   UNK A   0     -43.248  56.949 -51.781  1.00  0.00     0.027 A 
HETATM   18  S   UNK A   0     -42.286  58.331 -51.432  1.00  0.00    -0.076 SA
HETATM   19  C   UNK A   0     -43.658  59.333 -51.672  1.00  0.00     0.079 A 
HETATM   20  N   UNK A   0     -44.764  58.703 -52.001  1.00  0.00    -0.257 NA
HETATM   21  C   UNK A   0     -44.534  57.348 -52.079  1.00  0.00     0.133 A 
BRANCH  19  22
HETATM   22  C   UNK A   0     -43.594  60.851 -51.498  1.00  0.00     0.045 C 
HETATM   23  C   UNK A   0     -44.656  61.428 -50.514  1.00  0.00     0.011 C 
HETATM   24  C   UNK A   0     -43.566  62.391 -50.011  1.00  0.00     0.002 C 
HETATM   25  C   UNK A   0     -42.547  61.322 -50.442  1.00  0.00     0.011 C 
ENDBRANCH  19  22
ENDBRANCH  16  17
ENDBRANCH  13  16
ENDBRANCH   1  13
BRANCH   1  26
ATOM     26  C   TRP A   1     -41.045  55.043 -48.683  1.00  0.00     0.197 C 
BRANCH  26  27
ATOM     27  O   TRP A   1     -40.731  54.122 -47.627  1.00  0.00    -0.399 OA
ATOM     28  H   TRP A   1     -39.969  53.587 -47.938  1.00  0.00     0.209 HD
ENDBRANCH  26  27
ENDBRANCH   1  26
TORSDOF 8
ENDMDL
MODEL 9
REMARK VINA RESULT:      -6.7      2.062      2.916
REMARK  8 active torsions:
REMARK  status: ('A' for Active; 'I' for Inactive)
REMARK    1  A    between atoms: CG_8  and  CB_9 
REMARK    2  A    between atoms: CB_9  and  CA_10 
REMARK    3  A    between atoms: CA_10  and  N_11 
REMARK    4  A    between atoms: CA_10  and  C_14 
REMARK    5  A    between atoms: N_11  and  C_19 
REMARK    6  A    between atoms: C_14  and  O_15 
REMARK    7  A    between atoms: C_19  and  C_20 
REMARK    8  A    between atoms: C_22  and  C_23 
ROOT
ATOM      1  CA  TRP A   1     -42.536  56.780 -51.398  1.00  0.00     0.214 C 
ENDROOT
BRANCH   1   2
ATOM      2  CB  TRP A   1     -43.215  55.409 -51.472  1.00  0.00     0.076 C 
BRANCH   2   3
ATOM      3  CG  TRP A   1     -42.713  54.580 -52.608  1.00  0.00    -0.028 A 
ATOM      4  CD2 TRP A   1     -41.621  53.653 -52.584  1.00  0.00    -0.002 A 
ATOM      5  CE3 TRP A   1     -40.726  53.207 -51.588  1.00  0.00     0.014 A 
ATOM      6  CE2 TRP A   1     -41.489  53.135 -53.873  1.00  0.00     0.042 A 
ATOM      7  CZ3 TRP A   1     -39.730  52.280 -51.921  1.00  0.00     0.001 A 
ATOM      8  CH2 TRP A   1     -39.621  51.790 -53.220  1.00  0.00     0.002 A 
ATOM      9  CZ2 TRP A   1     -40.502  52.207 -54.221  1.00  0.00     0.030 A 
ATOM     10  NE1 TRP A   1     -42.481  53.695 -54.644  1.00  0.00    -0.365 N 
ATOM     11  HE1 TRP A   1     -42.637  53.478 -55.620  1.00  0.00     0.165 HD
ATOM     12  CD1 TRP A   1     -43.219  54.574 -53.894  1.00  0.00     0.096 A 
ENDBRANCH   2   3
ENDBRANCH   1   2
BRANCH   1  13
ATOM     13  N   TRP A   1     -42.127  57.259 -52.775  1.00  0.00    -0.064 N 
ATOM     14  H1  TRP A   1     -41.110  57.457 -52.678  1.00  0.00     0.278 HD
ATOM     15  H2  TRP A   1     -42.167  56.499 -53.464  1.00  0.00     0.278 HD
BRANCH  13  16
HETATM   16  C   UNK A   0     -42.801  58.472 -53.305  1.00  0.00     0.280 C 
BRANCH  16  17
HETATM   17  C   UNK A   0     -43.424  58.207 -54.625  1.00  0.00     0.027 A 
HETATM   18  S   UNK A   0     -42.514  57.546 -55.926  1.00  0.00    -0.076 SA
HETATM   19  C   UNK A   0     -43.906  57.624 -56.926  1.00  0.00     0.079 A 
HETATM   20  N   UNK A   0     -44.989  58.095 -56.348  1.00  0.00    -0.257 NA
HETATM   21  C   UNK A   0     -44.724  58.416 -55.035  1.00  0.00     0.133 A 
BRANCH  19  22
HETATM   22  C   UNK A   0     -43.879  57.186 -58.390  1.00  0.00     0.045 C 
HETATM   23  C   UNK A   0     -42.763  57.867 -59.241  1.00  0.00     0.011 C 
HETATM   24  C   UNK A   0     -42.560  56.510 -59.937  1.00  0.00     0.002 C 
HETATM   25  C   UNK A   0     -43.084  55.867 -58.641  1.00  0.00     0.011 C 
ENDBRANCH  19  22
ENDBRANCH  16  17
ENDBRANCH  13  16
ENDBRANCH   1  13
BRANCH   1  26
ATOM     26  C   TRP A   1     -41.244  56.791 -50.555  1.00  0.00     0.197 C 
BRANCH  26  27
ATOM     27  O   TRP A   1     -41.521  56.052 -49.354  1.00  0.00    -0.399 OA
ATOM     28  H   TRP A   1     -40.656  55.738 -49.012  1.00  0.00     0.209 HD
ENDBRANCH  26  27
ENDBRANCH   1  26
TORSDOF 8
ENDMDL
MODEL 10
REMARK VINA RESULT:      -6.7      1.891      2.164
REMARK  8 active torsions:
REMARK  status: ('A' for Active; 'I' for Inactive)
REMARK    1  A    between atoms: CG_8  and  CB_9 
REMARK    2  A    between atoms: CB_9  and  CA_10 
REMARK    3  A    between atoms: CA_10  and  N_11 
REMARK    4  A    between atoms: CA_10  and  C_14 
REMARK    5  A    between atoms: N_11  and  C_19 
REMARK    6  A    between atoms: C_14  and  O_15 
REMARK    7  A    between atoms: C_19  and  C_20 
REMARK    8  A    between atoms: C_22  and  C_23 
ROOT
ATOM      1  CA  TRP A   1     -42.538  56.727 -51.622  1.00  0.00     0.214 C 
ENDROOT
BRANCH   1   2
ATOM      2  CB  TRP A   1     -42.939  55.286 -51.954  1.00  0.00     0.076 C 
BRANCH   2   3
ATOM      3  CG  TRP A   1     -41.898  54.293 -51.553  1.00  0.00    -0.028 A 
ATOM      4  CD2 TRP A   1     -41.169  53.412 -52.416  1.00  0.00    -0.002 A 
ATOM      5  CE3 TRP A   1     -41.144  53.191 -53.809  1.00  0.00     0.014 A 
ATOM      6  CE2 TRP A   1     -40.331  52.642 -51.609  1.00  0.00     0.042 A 
ATOM      7  CZ3 TRP A   1     -40.301  52.205 -54.337  1.00  0.00     0.001 A 
ATOM      8  CH2 TRP A   1     -39.485  51.447 -53.501  1.00  0.00     0.002 A 
ATOM      9  CZ2 TRP A   1     -39.482  51.655 -52.119  1.00  0.00     0.030 A 
ATOM     10  NE1 TRP A   1     -40.515  53.059 -50.311  1.00  0.00    -0.365 N 
ATOM     11  HE1 TRP A   1     -40.013  52.687 -49.515  1.00  0.00     0.165 HD
ATOM     12  CD1 TRP A   1     -41.463  54.047 -50.265  1.00  0.00     0.096 A 
ENDBRANCH   2   3
ENDBRANCH   1   2
BRANCH   1  13
ATOM     13  N   TRP A   1     -43.302  57.715 -52.478  1.00  0.00    -0.064 N 
ATOM     14  H1  TRP A   1     -43.592  58.454 -51.805  1.00  0.00     0.278 HD
ATOM     15  H2  TRP A   1     -42.679  58.205 -53.131  1.00  0.00     0.278 HD
BRANCH  13  16
HETATM   16  C   UNK A   0     -44.506  57.216 -53.189  1.00  0.00     0.280 C 
BRANCH  16  17
HETATM   17  C   UNK A   0     -44.366  57.370 -54.658  1.00  0.00     0.027 A 
HETATM   18  S   UNK A   0     -43.379  56.305 -55.579  1.00  0.00    -0.076 SA
HETATM   19  C   UNK A   0     -43.768  57.186 -56.998  1.00  0.00     0.079 A 
HETATM   20  N   UNK A   0     -44.585  58.202 -56.823  1.00  0.00    -0.257 NA
HETATM   21  C   UNK A   0     -44.939  58.303 -55.497  1.00  0.00     0.133 A 
BRANCH  19  22
HETATM   22  C   UNK A   0     -43.190  56.819 -58.365  1.00  0.00     0.045 C 
HETATM   23  C   UNK A   0     -43.609  55.408 -58.879  1.00  0.00     0.011 C 
HETATM   24  C   UNK A   0     -43.730  56.031 -60.282  1.00  0.00     0.002 C 
HETATM   25  C   UNK A   0     -44.020  57.363 -59.569  1.00  0.00     0.011 C 
ENDBRANCH  19  22
ENDBRANCH  16  17
ENDBRANCH  13  16
ENDBRANCH   1  13
BRANCH   1  26
ATOM     26  C   TRP A   1     -41.046  57.030 -51.868  1.00  0.00     0.197 C 
BRANCH  26  27
ATOM     27  O   TRP A   1     -40.889  57.247 -53.280  1.00  0.00    -0.399 OA
ATOM     28  H   TRP A   1     -41.453  56.582 -53.730  1.00  0.00     0.209 HD
ENDBRANCH  26  27
ENDBRANCH   1  26
TORSDOF 8
ENDMDL
