MODEL 1
REMARK VINA RESULT:      -8.1      0.000      0.000
REMARK  9 active torsions:
REMARK  status: ('A' for Active; 'I' for Inactive)
REMARK    1  A    between atoms: C_2  and  C_3 
REMARK    2  A    between atoms: C_7  and  C_8 
REMARK    3  A    between atoms: C_8  and  C_9 
REMARK       I    between atoms: C_9  and  N_10 
REMARK    4  A    between atoms: N_10  and  C_11 
REMARK    5  A    between atoms: C_11  and  C_12 
REMARK    6  A    between atoms: C_12  and  N_13 
REMARK    7  A    between atoms: C_21  and  C_22 
REMARK    8  A    between atoms: C_32  and  C_33 
REMARK    9  A    between atoms: C_33  and  O_34 
ROOT
HETATM    1  C   UNL     1     -43.054  58.810 -53.524  1.00  0.00     0.037 C 
HETATM    2  N   UNL     1     -43.197  59.440 -54.744  1.00  0.00    -0.232 NA
HETATM    3  C   UNL     1     -42.806  58.811 -55.796  1.00  0.00     0.169 C 
HETATM    4  N   UNL     1     -42.512  57.269 -55.868  1.00  0.00    -0.321 N 
HETATM    5  C   UNL     1     -42.528  56.914 -57.112  1.00  0.00     0.011 C 
HETATM    6  C   UNL     1     -42.701  56.586 -54.572  1.00  0.00     0.151 C 
HETATM    7  S   UNL     1     -42.741  59.565 -57.363  1.00  0.00    -0.086 SA
HETATM    8  C   UNL     1     -42.148  58.010 -58.086  1.00  0.00     0.135 C 
HETATM    9  C   UNL     1     -42.554  57.558 -53.427  1.00  0.00     0.138 C 
ENDROOT
BRANCH   5  10
HETATM   10  C   UNL     1     -43.167  55.632 -57.578  1.00  0.00     0.156 C 
BRANCH  10  11
HETATM   11  C   UNL     1     -43.592  55.810 -59.035  1.00  0.00     0.223 C 
HETATM   12  N   UNL     1     -44.905  56.095 -59.269  1.00  0.00    -0.359 N 
HETATM   13  H   UNL     1     -45.529  56.156 -58.465  1.00  0.00     0.162 HD
HETATM   14  O   UNL     1     -42.776  55.668 -59.946  1.00  0.00    -0.273 OA
BRANCH  12  15
HETATM   15  C   UNL     1     -45.589  55.964 -60.567  1.00  0.00     0.150 C 
BRANCH  15  16
HETATM   16  C   UNL     1     -47.125  56.180 -60.638  1.00  0.00     0.254 C 
BRANCH  16  17
HETATM   17  N   UNL     1     -47.555  57.219 -61.660  1.00  0.00    -0.070 N 
HETATM   18  H   UNL     1     -46.813  57.207 -62.386  1.00  0.00     0.279 HD
HETATM   19  C   UNL     1     -48.873  56.927 -62.341  1.00  0.00     0.235 C 
HETATM   20  C   UNL     1     -49.097  57.931 -63.465  1.00  0.00     0.028 C 
HETATM   21  C   UNL     1     -49.050  59.367 -62.959  1.00  0.00     0.003 C 
HETATM   22  C   UNL     1     -47.762  59.635 -62.189  1.00  0.00     0.028 C 
HETATM   23  C   UNL     1     -47.544  58.618 -61.076  1.00  0.00     0.235 C 
ENDBRANCH  16  17
ENDBRANCH  15  16
ENDBRANCH  12  15
ENDBRANCH  10  11
ENDBRANCH   5  10
BRANCH   6  24
HETATM   24  C   UNL     1     -41.918  55.281 -54.403  1.00  0.00    -0.027 A 
HETATM   25  C   UNL     1     -42.323  54.308 -53.454  1.00  0.00    -0.053 A 
HETATM   26  C   UNL     1     -43.561  54.447 -52.602  1.00  0.00     0.049 C 
HETATM   27  C   UNL     1     -41.556  53.140 -53.282  1.00  0.00     0.014 A 
HETATM   28  C   UNL     1     -40.383  52.922 -54.007  1.00  0.00    -0.061 A 
HETATM   29  C   UNL     1     -39.529  51.716 -53.737  1.00  0.00     0.048 C 
HETATM   30  C   UNL     1     -39.965  53.891 -54.916  1.00  0.00     0.007 A 
HETATM   31  C   UNL     1     -40.719  55.052 -55.112  1.00  0.00     0.010 A 
ENDBRANCH   6  24
BRANCH   9  32
HETATM   32  C   UNL     1     -41.199  57.641 -52.834  1.00  0.00     0.277 C 
HETATM   33  O   UNL     1     -40.316  58.255 -53.424  1.00  0.00    -0.264 OA
BRANCH  32  34
HETATM   34  O   UNL     1     -41.135  57.074 -51.619  1.00  0.00    -0.325 OA
HETATM   35  C   UNL     1     -40.627  57.952 -50.605  1.00  0.00     0.213 C 
ENDBRANCH  32  34
ENDBRANCH   9  32
BRANCH   1  36
HETATM   36  C   UNL     1     -43.320  59.703 -52.321  1.00  0.00     0.052 C 
HETATM   37  C   UNL     1     -44.271  59.064 -51.310  1.00  0.00     0.011 C 
ENDBRANCH   1  36
TORSDOF 9
ENDMDL
MODEL 2
REMARK VINA RESULT:      -7.7      2.728      8.629
REMARK  9 active torsions:
REMARK  status: ('A' for Active; 'I' for Inactive)
REMARK    1  A    between atoms: C_2  and  C_3 
REMARK    2  A    between atoms: C_7  and  C_8 
REMARK    3  A    between atoms: C_8  and  C_9 
REMARK       I    between atoms: C_9  and  N_10 
REMARK    4  A    between atoms: N_10  and  C_11 
REMARK    5  A    between atoms: C_11  and  C_12 
REMARK    6  A    between atoms: C_12  and  N_13 
REMARK    7  A    between atoms: C_21  and  C_22 
REMARK    8  A    between atoms: C_32  and  C_33 
REMARK    9  A    between atoms: C_33  and  O_34 
ROOT
HETATM    1  C   UNL     1     -41.572  60.641 -57.972  1.00  0.00     0.037 C 
HETATM    2  N   UNL     1     -41.587  60.835 -56.606  1.00  0.00    -0.232 NA
HETATM    3  C   UNL     1     -42.509  60.250 -55.924  1.00  0.00     0.169 C 
HETATM    4  N   UNL     1     -43.396  59.062 -56.441  1.00  0.00    -0.321 N 
HETATM    5  C   UNL     1     -43.919  58.474 -55.414  1.00  0.00     0.011 C 
HETATM    6  C   UNL     1     -43.093  58.682 -57.836  1.00  0.00     0.151 C 
HETATM    7  S   UNL     1     -42.763  60.572 -54.233  1.00  0.00    -0.086 SA
HETATM    8  C   UNL     1     -44.121  59.369 -54.209  1.00  0.00     0.135 C 
HETATM    9  C   UNL     1     -42.469  59.835 -58.583  1.00  0.00     0.138 C 
ENDROOT
BRANCH   5  10
HETATM   10  C   UNL     1     -44.027  56.975 -55.310  1.00  0.00     0.156 C 
BRANCH  10  11
HETATM   11  C   UNL     1     -42.690  56.433 -54.806  1.00  0.00     0.223 C 
HETATM   12  N   UNL     1     -42.592  56.161 -53.473  1.00  0.00    -0.359 N 
HETATM   13  H   UNL     1     -43.405  56.351 -52.888  1.00  0.00     0.162 HD
HETATM   14  O   UNL     1     -41.745  56.282 -55.581  1.00  0.00    -0.273 OA
BRANCH  12  15
HETATM   15  C   UNL     1     -41.334  55.971 -52.732  1.00  0.00     0.150 C 
BRANCH  15  16
HETATM   16  C   UNL     1     -41.242  54.833 -51.679  1.00  0.00     0.254 C 
BRANCH  16  17
HETATM   17  N   UNL     1     -40.890  53.476 -52.267  1.00  0.00    -0.070 N 
HETATM   18  H   UNL     1     -41.746  52.901 -52.149  1.00  0.00     0.279 HD
HETATM   19  C   UNL     1     -40.544  53.496 -53.738  1.00  0.00     0.235 C 
HETATM   20  C   UNL     1     -40.396  52.066 -54.244  1.00  0.00     0.028 C 
HETATM   21  C   UNL     1     -39.356  51.289 -53.448  1.00  0.00     0.003 C 
HETATM   22  C   UNL     1     -39.650  51.349 -51.954  1.00  0.00     0.028 C 
HETATM   23  C   UNL     1     -39.807  52.783 -51.463  1.00  0.00     0.235 C 
ENDBRANCH  16  17
ENDBRANCH  15  16
ENDBRANCH  12  15
ENDBRANCH  10  11
ENDBRANCH   5  10
BRANCH   6  24
HETATM   24  C   UNL     1     -44.232  57.981 -58.583  1.00  0.00    -0.027 A 
HETATM   25  C   UNL     1     -43.958  57.004 -59.573  1.00  0.00    -0.053 A 
HETATM   26  C   UNL     1     -42.563  56.541 -59.917  1.00  0.00     0.049 C 
HETATM   27  C   UNL     1     -45.021  56.412 -60.282  1.00  0.00     0.014 A 
HETATM   28  C   UNL     1     -46.348  56.783 -60.053  1.00  0.00    -0.061 A 
HETATM   29  C   UNL     1     -47.457  56.210 -60.889  1.00  0.00     0.048 C 
HETATM   30  C   UNL     1     -46.617  57.767 -59.104  1.00  0.00     0.007 A 
HETATM   31  C   UNL     1     -45.578  58.357 -58.380  1.00  0.00     0.010 A 
ENDBRANCH   6  24
BRANCH   9  32
HETATM   32  C   UNL     1     -43.414  60.683 -59.347  1.00  0.00     0.277 C 
HETATM   33  O   UNL     1     -44.116  61.494 -58.753  1.00  0.00    -0.264 OA
BRANCH  32  34
HETATM   34  O   UNL     1     -43.310  60.500 -60.673  1.00  0.00    -0.325 OA
HETATM   35  C   UNL     1     -44.578  60.401 -61.337  1.00  0.00     0.213 C 
ENDBRANCH  32  34
ENDBRANCH   9  32
BRANCH   1  36
HETATM   36  C   UNL     1     -40.606  61.543 -58.725  1.00  0.00     0.052 C 
HETATM   37  C   UNL     1     -40.799  63.023 -58.393  1.00  0.00     0.011 C 
ENDBRANCH   1  36
TORSDOF 9
ENDMDL
MODEL 3
REMARK VINA RESULT:      -7.7      1.406      1.999
REMARK  9 active torsions:
REMARK  status: ('A' for Active; 'I' for Inactive)
REMARK    1  A    between atoms: C_2  and  C_3 
REMARK    2  A    between atoms: C_7  and  C_8 
REMARK    3  A    between atoms: C_8  and  C_9 
REMARK       I    between atoms: C_9  and  N_10 
REMARK    4  A    between atoms: N_10  and  C_11 
REMARK    5  A    between atoms: C_11  and  C_12 
REMARK    6  A    between atoms: C_12  and  N_13 
REMARK    7  A    between atoms: C_21  and  C_22 
REMARK    8  A    between atoms: C_32  and  C_33 
REMARK    9  A    between atoms: C_33  and  O_34 
ROOT
HETATM    1  C   UNL     1     -43.113  58.798 -53.676  1.00  0.00     0.037 C 
HETATM    2  N   UNL     1     -43.244  59.386 -54.917  1.00  0.00    -0.232 NA
HETATM    3  C   UNL     1     -42.824  58.729 -55.942  1.00  0.00     0.169 C 
HETATM    4  N   UNL     1     -42.505  57.191 -55.958  1.00  0.00    -0.321 N 
HETATM    5  C   UNL     1     -42.493  56.796 -57.190  1.00  0.00     0.011 C 
HETATM    6  C   UNL     1     -42.706  56.548 -54.644  1.00  0.00     0.151 C 
HETATM    7  S   UNL     1     -42.742  59.433 -57.531  1.00  0.00    -0.086 SA
HETATM    8  C   UNL     1     -42.112  57.866 -58.192  1.00  0.00     0.135 C 
HETATM    9  C   UNL     1     -42.595  57.558 -53.529  1.00  0.00     0.138 C 
ENDROOT
BRANCH   5  10
HETATM   10  C   UNL     1     -43.103  55.489 -57.625  1.00  0.00     0.156 C 
BRANCH  10  11
HETATM   11  C   UNL     1     -43.836  55.718 -58.946  1.00  0.00     0.223 C 
HETATM   12  N   UNL     1     -45.103  56.217 -58.876  1.00  0.00    -0.359 N 
HETATM   13  H   UNL     1     -45.494  56.392 -57.951  1.00  0.00     0.162 HD
HETATM   14  O   UNL     1     -43.299  55.430 -60.016  1.00  0.00    -0.273 OA
BRANCH  12  15
HETATM   15  C   UNL     1     -46.093  56.188 -59.965  1.00  0.00     0.150 C 
BRANCH  15  16
HETATM   16  C   UNL     1     -46.680  57.526 -60.489  1.00  0.00     0.254 C 
BRANCH  16  17
HETATM   17  N   UNL     1     -46.223  58.748 -59.709  1.00  0.00    -0.070 N 
HETATM   18  H   UNL     1     -45.327  58.465 -59.267  1.00  0.00     0.279 HD
HETATM   19  C   UNL     1     -45.956  59.973 -60.553  1.00  0.00     0.235 C 
HETATM   20  C   UNL     1     -45.331  61.060 -59.687  1.00  0.00     0.028 C 
HETATM   21  C   UNL     1     -46.204  61.401 -58.488  1.00  0.00     0.003 C 
HETATM   22  C   UNL     1     -46.553  60.151 -57.689  1.00  0.00     0.028 C 
HETATM   23  C   UNL     1     -47.167  59.069 -58.568  1.00  0.00     0.235 C 
ENDBRANCH  16  17
ENDBRANCH  15  16
ENDBRANCH  12  15
ENDBRANCH  10  11
ENDBRANCH   5  10
BRANCH   6  24
HETATM   24  C   UNL     1     -41.906  55.261 -54.419  1.00  0.00    -0.027 A 
HETATM   25  C   UNL     1     -42.320  54.308 -53.454  1.00  0.00    -0.053 A 
HETATM   26  C   UNL     1     -43.583  54.447 -52.640  1.00  0.00     0.049 C 
HETATM   27  C   UNL     1     -41.538  53.158 -53.230  1.00  0.00     0.014 A 
HETATM   28  C   UNL     1     -40.342  52.942 -53.918  1.00  0.00    -0.061 A 
HETATM   29  C   UNL     1     -39.475  51.758 -53.593  1.00  0.00     0.048 C 
HETATM   30  C   UNL     1     -39.917  53.894 -54.842  1.00  0.00     0.007 A 
HETATM   31  C   UNL     1     -40.684  55.035 -55.089  1.00  0.00     0.010 A 
ENDBRANCH   6  24
BRANCH   9  32
HETATM   32  C   UNL     1     -41.252  57.683 -52.915  1.00  0.00     0.277 C 
HETATM   33  O   UNL     1     -40.371  58.300 -53.505  1.00  0.00    -0.264 OA
BRANCH  32  34
HETATM   34  O   UNL     1     -41.198  57.147 -51.685  1.00  0.00    -0.325 OA
HETATM   35  C   UNL     1     -40.607  58.015 -50.709  1.00  0.00     0.213 C 
ENDBRANCH  32  34
ENDBRANCH   9  32
BRANCH   1  36
HETATM   36  C   UNL     1     -43.415  59.725 -52.507  1.00  0.00     0.052 C 
HETATM   37  C   UNL     1     -42.995  61.170 -52.776  1.00  0.00     0.011 C 
ENDBRANCH   1  36
TORSDOF 9
ENDMDL
MODEL 4
REMARK VINA RESULT:      -7.6      2.275      5.139
REMARK  9 active torsions:
REMARK  status: ('A' for Active; 'I' for Inactive)
REMARK    1  A    between atoms: C_2  and  C_3 
REMARK    2  A    between atoms: C_7  and  C_8 
REMARK    3  A    between atoms: C_8  and  C_9 
REMARK       I    between atoms: C_9  and  N_10 
REMARK    4  A    between atoms: N_10  and  C_11 
REMARK    5  A    between atoms: C_11  and  C_12 
REMARK    6  A    between atoms: C_12  and  N_13 
REMARK    7  A    between atoms: C_21  and  C_22 
REMARK    8  A    between atoms: C_32  and  C_33 
REMARK    9  A    between atoms: C_33  and  O_34 
ROOT
HETATM    1  C   UNL     1     -41.038  54.840 -53.183  1.00  0.00     0.037 C 
HETATM    2  N   UNL     1     -41.412  54.656 -54.498  1.00  0.00    -0.232 NA
HETATM    3  C   UNL     1     -42.131  55.569 -55.053  1.00  0.00     0.169 C 
HETATM    4  N   UNL     1     -42.324  57.026 -54.497  1.00  0.00    -0.321 N 
HETATM    5  C   UNL     1     -42.759  57.769 -55.463  1.00  0.00     0.011 C 
HETATM    6  C   UNL     1     -41.611  57.256 -53.225  1.00  0.00     0.151 C 
HETATM    7  S   UNL     1     -42.838  55.368 -56.630  1.00  0.00    -0.086 SA
HETATM    8  C   UNL     1     -43.555  57.031 -56.520  1.00  0.00     0.135 C 
HETATM    9  C   UNL     1     -41.377  55.955 -52.497  1.00  0.00     0.138 C 
ENDROOT
BRANCH   5  10
HETATM   10  C   UNL     1     -42.260  59.172 -55.688  1.00  0.00     0.156 C 
BRANCH  10  11
HETATM   11  C   UNL     1     -42.376  59.489 -57.179  1.00  0.00     0.223 C 
HETATM   12  N   UNL     1     -43.443  60.242 -57.573  1.00  0.00    -0.359 N 
HETATM   13  H   UNL     1     -44.108  60.534 -56.859  1.00  0.00     0.162 HD
HETATM   14  O   UNL     1     -41.548  59.049 -57.978  1.00  0.00    -0.273 OA
BRANCH  12  15
HETATM   15  C   UNL     1     -43.932  60.369 -58.957  1.00  0.00     0.150 C 
BRANCH  15  16
HETATM   16  C   UNL     1     -45.272  59.688 -59.350  1.00  0.00     0.254 C 
BRANCH  16  17
HETATM   17  N   UNL     1     -45.166  58.184 -59.540  1.00  0.00    -0.070 N 
HETATM   18  H   UNL     1     -45.063  57.797 -58.582  1.00  0.00     0.279 HD
HETATM   19  C   UNL     1     -46.380  57.541 -60.171  1.00  0.00     0.235 C 
HETATM   20  C   UNL     1     -46.228  56.025 -60.135  1.00  0.00     0.028 C 
HETATM   21  C   UNL     1     -44.948  55.568 -60.821  1.00  0.00     0.003 C 
HETATM   22  C   UNL     1     -43.731  56.288 -60.251  1.00  0.00     0.028 C 
HETATM   23  C   UNL     1     -43.901  57.801 -60.283  1.00  0.00     0.235 C 
ENDBRANCH  16  17
ENDBRANCH  15  16
ENDBRANCH  12  15
ENDBRANCH  10  11
ENDBRANCH   5  10
BRANCH   6  24
HETATM   24  C   UNL     1     -42.181  58.379 -52.353  1.00  0.00    -0.027 A 
HETATM   25  C   UNL     1     -41.326  59.190 -51.564  1.00  0.00    -0.053 A 
HETATM   26  C   UNL     1     -39.823  59.060 -51.569  1.00  0.00     0.049 C 
HETATM   27  C   UNL     1     -41.880  60.182 -50.731  1.00  0.00     0.014 A 
HETATM   28  C   UNL     1     -43.260  60.372 -50.639  1.00  0.00    -0.061 A 
HETATM   29  C   UNL     1     -43.831  61.370 -49.671  1.00  0.00     0.048 C 
HETATM   30  C   UNL     1     -44.102  59.554 -51.388  1.00  0.00     0.007 A 
HETATM   31  C   UNL     1     -43.574  58.574 -52.231  1.00  0.00     0.010 A 
ENDBRANCH   6  24
BRANCH   9  32
HETATM   32  C   UNL     1     -42.407  55.592 -51.496  1.00  0.00     0.277 C 
HETATM   33  O   UNL     1     -43.424  55.008 -51.857  1.00  0.00    -0.264 OA
BRANCH  32  34
HETATM   34  O   UNL     1     -42.031  55.890 -50.242  1.00  0.00    -0.325 OA
HETATM   35  C   UNL     1     -41.666  54.741 -49.466  1.00  0.00     0.213 C 
ENDBRANCH  32  34
ENDBRANCH   9  32
BRANCH   1  36
HETATM   36  C   UNL     1     -40.395  53.621 -52.536  1.00  0.00     0.052 C 
HETATM   37  C   UNL     1     -40.221  52.457 -53.512  1.00  0.00     0.011 C 
ENDBRANCH   1  36
TORSDOF 9
ENDMDL
MODEL 5
REMARK VINA RESULT:      -7.5      3.150      7.651
REMARK  9 active torsions:
REMARK  status: ('A' for Active; 'I' for Inactive)
REMARK    1  A    between atoms: C_2  and  C_3 
REMARK    2  A    between atoms: C_7  and  C_8 
REMARK    3  A    between atoms: C_8  and  C_9 
REMARK       I    between atoms: C_9  and  N_10 
REMARK    4  A    between atoms: N_10  and  C_11 
REMARK    5  A    between atoms: C_11  and  C_12 
REMARK    6  A    between atoms: C_12  and  N_13 
REMARK    7  A    between atoms: C_21  and  C_22 
REMARK    8  A    between atoms: C_32  and  C_33 
REMARK    9  A    between atoms: C_33  and  O_34 
ROOT
HETATM    1  C   UNL     1     -45.288  59.609 -56.440  1.00  0.00     0.037 C 
HETATM    2  N   UNL     1     -45.226  58.655 -57.435  1.00  0.00    -0.232 NA
HETATM    3  C   UNL     1     -44.344  57.724 -57.322  1.00  0.00     0.169 C 
HETATM    4  N   UNL     1     -43.575  57.366 -56.000  1.00  0.00    -0.321 N 
HETATM    5  C   UNL     1     -43.082  56.176 -56.131  1.00  0.00     0.011 C 
HETATM    6  C   UNL     1     -43.941  58.239 -54.867  1.00  0.00     0.151 C 
HETATM    7  S   UNL     1     -44.024  56.583 -58.597  1.00  0.00    -0.086 SA
HETATM    8  C   UNL     1     -42.776  55.774 -57.559  1.00  0.00     0.135 C 
HETATM    9  C   UNL     1     -44.479  59.560 -55.358  1.00  0.00     0.138 C 
ENDROOT
BRANCH   5  10
HETATM   10  C   UNL     1     -43.104  55.166 -55.014  1.00  0.00     0.156 C 
BRANCH  10  11
HETATM   11  C   UNL     1     -41.674  54.678 -54.781  1.00  0.00     0.223 C 
HETATM   12  N   UNL     1     -41.478  53.329 -54.735  1.00  0.00    -0.359 N 
HETATM   13  H   UNL     1     -42.293  52.727 -54.840  1.00  0.00     0.162 HD
HETATM   14  O   UNL     1     -40.758  55.484 -54.616  1.00  0.00    -0.273 OA
BRANCH  12  15
HETATM   15  C   UNL     1     -40.285  52.659 -54.190  1.00  0.00     0.150 C 
BRANCH  15  16
HETATM   16  C   UNL     1     -40.193  52.405 -52.661  1.00  0.00     0.254 C 
BRANCH  16  17
HETATM   17  N   UNL     1     -40.647  53.582 -51.812  1.00  0.00    -0.070 N 
HETATM   18  H   UNL     1     -40.474  54.421 -52.400  1.00  0.00     0.279 HD
HETATM   19  C   UNL     1     -42.113  53.568 -51.445  1.00  0.00     0.235 C 
HETATM   20  C   UNL     1     -42.478  54.881 -50.762  1.00  0.00     0.028 C 
HETATM   21  C   UNL     1     -41.610  55.143 -49.539  1.00  0.00     0.003 C 
HETATM   22  C   UNL     1     -40.128  55.063 -49.888  1.00  0.00     0.028 C 
HETATM   23  C   UNL     1     -39.779  53.751 -50.580  1.00  0.00     0.235 C 
ENDBRANCH  16  17
ENDBRANCH  15  16
ENDBRANCH  12  15
ENDBRANCH  10  11
ENDBRANCH   5  10
BRANCH   6  24
HETATM   24  C   UNL     1     -42.885  58.353 -53.763  1.00  0.00    -0.027 A 
HETATM   25  C   UNL     1     -43.254  58.290 -52.395  1.00  0.00    -0.053 A 
HETATM   26  C   UNL     1     -44.668  58.047 -51.929  1.00  0.00     0.049 C 
HETATM   27  C   UNL     1     -42.270  58.449 -51.400  1.00  0.00     0.014 A 
HETATM   28  C   UNL     1     -40.935  58.696 -51.725  1.00  0.00    -0.061 A 
HETATM   29  C   UNL     1     -39.922  58.960 -50.648  1.00  0.00     0.048 C 
HETATM   30  C   UNL     1     -40.577  58.791 -53.068  1.00  0.00     0.007 A 
HETATM   31  C   UNL     1     -41.534  58.623 -54.071  1.00  0.00     0.010 A 
ENDBRANCH   6  24
BRANCH   9  32
HETATM   32  C   UNL     1     -43.482  60.650 -55.472  1.00  0.00     0.277 C 
HETATM   33  O   UNL     1     -43.419  61.508 -54.597  1.00  0.00    -0.264 OA
BRANCH  32  34
HETATM   34  O   UNL     1     -42.675  60.499 -56.534  1.00  0.00    -0.325 OA
HETATM   35  C   UNL     1     -42.454  61.715 -57.262  1.00  0.00     0.213 C 
ENDBRANCH  32  34
ENDBRANCH   9  32
BRANCH   1  36
HETATM   36  C   UNL     1     -46.189  60.793 -56.761  1.00  0.00     0.052 C 
HETATM   37  C   UNL     1     -46.063  61.255 -58.213  1.00  0.00     0.011 C 
ENDBRANCH   1  36
TORSDOF 9
ENDMDL
MODEL 6
REMARK VINA RESULT:      -7.2      4.942      8.589
REMARK  9 active torsions:
REMARK  status: ('A' for Active; 'I' for Inactive)
REMARK    1  A    between atoms: C_2  and  C_3 
REMARK    2  A    between atoms: C_7  and  C_8 
REMARK    3  A    between atoms: C_8  and  C_9 
REMARK       I    between atoms: C_9  and  N_10 
REMARK    4  A    between atoms: N_10  and  C_11 
REMARK    5  A    between atoms: C_11  and  C_12 
REMARK    6  A    between atoms: C_12  and  N_13 
REMARK    7  A    between atoms: C_21  and  C_22 
REMARK    8  A    between atoms: C_32  and  C_33 
REMARK    9  A    between atoms: C_33  and  O_34 
ROOT
HETATM    1  C   UNL     1     -40.720  59.274 -50.850  1.00  0.00     0.037 C 
HETATM    2  N   UNL     1     -40.766  57.937 -50.515  1.00  0.00    -0.232 NA
HETATM    3  C   UNL     1     -41.810  57.265 -50.859  1.00  0.00     0.169 C 
HETATM    4  N   UNL     1     -42.868  57.727 -51.925  1.00  0.00    -0.321 N 
HETATM    5  C   UNL     1     -43.536  56.686 -52.304  1.00  0.00     0.011 C 
HETATM    6  C   UNL     1     -42.568  59.056 -52.494  1.00  0.00     0.151 C 
HETATM    7  S   UNL     1     -42.086  55.632 -50.324  1.00  0.00    -0.086 SA
HETATM    8  C   UNL     1     -43.635  55.587 -51.267  1.00  0.00     0.135 C 
HETATM    9  C   UNL     1     -41.714  59.865 -51.550  1.00  0.00     0.138 C 
ENDROOT
BRANCH   5  10
HETATM   10  C   UNL     1     -43.913  56.449 -53.743  1.00  0.00     0.156 C 
BRANCH  10  11
HETATM   11  C   UNL     1     -42.669  55.974 -54.492  1.00  0.00     0.223 C 
HETATM   12  N   UNL     1     -41.947  54.966 -53.922  1.00  0.00    -0.359 N 
HETATM   13  H   UNL     1     -42.267  54.602 -53.026  1.00  0.00     0.162 HD
HETATM   14  O   UNL     1     -42.332  56.509 -55.549  1.00  0.00    -0.273 OA
BRANCH  12  15
HETATM   15  C   UNL     1     -40.565  54.600 -54.277  1.00  0.00     0.150 C 
BRANCH  15  16
HETATM   16  C   UNL     1     -40.256  53.140 -54.705  1.00  0.00     0.254 C 
BRANCH  16  17
HETATM   17  N   UNL     1     -40.294  52.141 -53.560  1.00  0.00    -0.070 N 
HETATM   18  H   UNL     1     -41.298  51.905 -53.441  1.00  0.00     0.279 HD
HETATM   19  C   UNL     1     -39.543  50.855 -53.819  1.00  0.00     0.235 C 
HETATM   20  C   UNL     1     -39.812  49.873 -52.685  1.00  0.00     0.028 C 
HETATM   21  C   UNL     1     -39.441  50.459 -51.329  1.00  0.00     0.003 C 
HETATM   22  C   UNL     1     -40.123  51.803 -51.107  1.00  0.00     0.028 C 
HETATM   23  C   UNL     1     -39.856  52.772 -52.252  1.00  0.00     0.235 C 
ENDBRANCH  16  17
ENDBRANCH  15  16
ENDBRANCH  12  15
ENDBRANCH  10  11
ENDBRANCH   5  10
BRANCH   6  24
HETATM   24  C   UNL     1     -43.775  59.808 -53.063  1.00  0.00    -0.027 A 
HETATM   25  C   UNL     1     -43.682  60.506 -54.294  1.00  0.00    -0.053 A 
HETATM   26  C   UNL     1     -42.441  60.510 -55.152  1.00  0.00     0.049 C 
HETATM   27  C   UNL     1     -44.791  61.233 -54.769  1.00  0.00     0.014 A 
HETATM   28  C   UNL     1     -45.981  61.308 -54.043  1.00  0.00    -0.061 A 
HETATM   29  C   UNL     1     -47.117  62.168 -54.522  1.00  0.00     0.048 C 
HETATM   30  C   UNL     1     -46.064  60.650 -52.818  1.00  0.00     0.007 A 
HETATM   31  C   UNL     1     -44.980  59.912 -52.334  1.00  0.00     0.010 A 
ENDBRANCH   6  24
BRANCH   9  32
HETATM   32  C   UNL     1     -42.455  60.767 -50.636  1.00  0.00     0.277 C 
HETATM   33  O   UNL     1     -42.996  60.305 -49.637  1.00  0.00    -0.264 OA
BRANCH  32  34
HETATM   34  O   UNL     1     -42.359  62.056 -50.998  1.00  0.00    -0.325 OA
HETATM   35  C   UNL     1     -43.529  62.825 -50.687  1.00  0.00     0.213 C 
ENDBRANCH  32  34
ENDBRANCH   9  32
BRANCH   1  36
HETATM   36  C   UNL     1     -39.572  60.042 -50.210  1.00  0.00     0.052 C 
HETATM   37  C   UNL     1     -38.211  59.398 -50.472  1.00  0.00     0.011 C 
ENDBRANCH   1  36
TORSDOF 9
ENDMDL
MODEL 7
REMARK VINA RESULT:      -7.1      3.394      8.064
REMARK  9 active torsions:
REMARK  status: ('A' for Active; 'I' for Inactive)
REMARK    1  A    between atoms: C_2  and  C_3 
REMARK    2  A    between atoms: C_7  and  C_8 
REMARK    3  A    between atoms: C_8  and  C_9 
REMARK       I    between atoms: C_9  and  N_10 
REMARK    4  A    between atoms: N_10  and  C_11 
REMARK    5  A    between atoms: C_11  and  C_12 
REMARK    6  A    between atoms: C_12  and  N_13 
REMARK    7  A    between atoms: C_21  and  C_22 
REMARK    8  A    between atoms: C_32  and  C_33 
REMARK    9  A    between atoms: C_33  and  O_34 
ROOT
HETATM    1  C   UNL     1     -44.792  60.512 -57.407  1.00  0.00     0.037 C 
HETATM    2  N   UNL     1     -44.700  59.386 -58.198  1.00  0.00    -0.232 NA
HETATM    3  C   UNL     1     -44.092  58.358 -57.715  1.00  0.00     0.169 C 
HETATM    4  N   UNL     1     -43.760  58.140 -56.195  1.00  0.00    -0.321 N 
HETATM    5  C   UNL     1     -43.518  56.881 -56.014  1.00  0.00     0.011 C 
HETATM    6  C   UNL     1     -44.191  59.267 -55.344  1.00  0.00     0.151 C 
HETATM    7  S   UNL     1     -43.729  56.953 -58.675  1.00  0.00    -0.086 SA
HETATM    8  C   UNL     1     -42.972  56.162 -57.229  1.00  0.00     0.135 C 
HETATM    9  C   UNL     1     -44.297  60.538 -56.149  1.00  0.00     0.138 C 
ENDROOT
BRANCH   5  10
HETATM   10  C   UNL     1     -44.025  56.128 -54.812  1.00  0.00     0.156 C 
BRANCH  10  11
HETATM   11  C   UNL     1     -42.989  55.069 -54.438  1.00  0.00     0.223 C 
HETATM   12  N   UNL     1     -41.879  55.494 -53.769  1.00  0.00    -0.359 N 
HETATM   13  H   UNL     1     -41.795  56.490 -53.572  1.00  0.00     0.162 HD
HETATM   14  O   UNL     1     -43.153  53.892 -54.762  1.00  0.00    -0.273 OA
BRANCH  12  15
HETATM   15  C   UNL     1     -40.627  54.732 -53.623  1.00  0.00     0.150 C 
BRANCH  15  16
HETATM   16  C   UNL     1     -40.443  53.810 -52.387  1.00  0.00     0.254 C 
BRANCH  16  17
HETATM   17  N   UNL     1     -40.425  52.327 -52.721  1.00  0.00    -0.070 N 
HETATM   18  H   UNL     1     -41.364  51.978 -52.448  1.00  0.00     0.279 HD
HETATM   19  C   UNL     1     -40.222  52.012 -54.185  1.00  0.00     0.235 C 
HETATM   20  C   UNL     1     -40.410  50.517 -54.413  1.00  0.00     0.028 C 
HETATM   21  C   UNL     1     -39.477  49.689 -53.540  1.00  0.00     0.003 C 
HETATM   22  C   UNL     1     -39.612  50.074 -52.072  1.00  0.00     0.028 C 
HETATM   23  C   UNL     1     -39.433  51.572 -51.859  1.00  0.00     0.235 C 
ENDBRANCH  16  17
ENDBRANCH  15  16
ENDBRANCH  12  15
ENDBRANCH  10  11
ENDBRANCH   5  10
BRANCH   6  24
HETATM   24  C   UNL     1     -43.432  59.412 -54.021  1.00  0.00    -0.027 A 
HETATM   25  C   UNL     1     -44.094  59.862 -52.850  1.00  0.00    -0.053 A 
HETATM   26  C   UNL     1     -45.571  60.164 -52.797  1.00  0.00     0.049 C 
HETATM   27  C   UNL     1     -43.361  60.037 -51.660  1.00  0.00     0.014 A 
HETATM   28  C   UNL     1     -41.986  59.803 -51.607  1.00  0.00    -0.061 A 
HETATM   29  C   UNL     1     -41.209  60.089 -50.353  1.00  0.00     0.048 C 
HETATM   30  C   UNL     1     -41.329  59.393 -52.764  1.00  0.00     0.007 A 
HETATM   31  C   UNL     1     -42.038  59.200 -53.952  1.00  0.00     0.010 A 
ENDBRANCH   6  24
BRANCH   9  32
HETATM   32  C   UNL     1     -43.091  61.399 -56.140  1.00  0.00     0.277 C 
HETATM   33  O   UNL     1     -42.131  61.103 -56.845  1.00  0.00    -0.264 OA
BRANCH  32  34
HETATM   34  O   UNL     1     -43.248  62.496 -55.383  1.00  0.00    -0.325 OA
HETATM   35  C   UNL     1     -43.060  63.720 -56.107  1.00  0.00     0.213 C 
ENDBRANCH  32  34
ENDBRANCH   9  32
BRANCH   1  36
HETATM   36  C   UNL     1     -45.312  61.747 -58.129  1.00  0.00     0.052 C 
HETATM   37  C   UNL     1     -44.504  62.081 -59.383  1.00  0.00     0.011 C 
ENDBRANCH   1  36
TORSDOF 9
ENDMDL
MODEL 8
REMARK VINA RESULT:      -7.0      2.903      8.472
REMARK  9 active torsions:
REMARK  status: ('A' for Active; 'I' for Inactive)
REMARK    1  A    between atoms: C_2  and  C_3 
REMARK    2  A    between atoms: C_7  and  C_8 
REMARK    3  A    between atoms: C_8  and  C_9 
REMARK       I    between atoms: C_9  and  N_10 
REMARK    4  A    between atoms: N_10  and  C_11 
REMARK    5  A    between atoms: C_11  and  C_12 
REMARK    6  A    between atoms: C_12  and  N_13 
REMARK    7  A    between atoms: C_21  and  C_22 
REMARK    8  A    between atoms: C_32  and  C_33 
REMARK    9  A    between atoms: C_33  and  O_34 
ROOT
HETATM    1  C   UNL     1     -41.667  60.661 -58.002  1.00  0.00     0.037 C 
HETATM    2  N   UNL     1     -41.800  60.935 -56.656  1.00  0.00    -0.232 NA
HETATM    3  C   UNL     1     -42.823  60.453 -56.041  1.00  0.00     0.169 C 
HETATM    4  N   UNL     1     -43.740  59.298 -56.585  1.00  0.00    -0.321 N 
HETATM    5  C   UNL     1     -44.401  58.807 -55.587  1.00  0.00     0.011 C 
HETATM    6  C   UNL     1     -43.331  58.819 -57.920  1.00  0.00     0.151 C 
HETATM    7  S   UNL     1     -43.217  60.888 -54.403  1.00  0.00    -0.086 SA
HETATM    8  C   UNL     1     -44.654  59.781 -54.456  1.00  0.00     0.135 C 
HETATM    9  C   UNL     1     -42.556  59.882 -58.659  1.00  0.00     0.138 C 
ENDROOT
BRANCH   5  10
HETATM   10  C   UNL     1     -44.625  57.327 -55.418  1.00  0.00     0.156 C 
BRANCH  10  11
HETATM   11  C   UNL     1     -43.577  56.791 -54.444  1.00  0.00     0.223 C 
HETATM   12  N   UNL     1     -43.997  55.885 -53.515  1.00  0.00    -0.359 N 
HETATM   13  H   UNL     1     -44.985  55.631 -53.512  1.00  0.00     0.162 HD
HETATM   14  O   UNL     1     -42.415  57.195 -54.492  1.00  0.00    -0.273 OA
BRANCH  12  15
HETATM   15  C   UNL     1     -43.264  55.513 -52.293  1.00  0.00     0.150 C 
BRANCH  15  16
HETATM   16  C   UNL     1     -43.584  56.251 -50.965  1.00  0.00     0.254 C 
BRANCH  16  17
HETATM   17  N   UNL     1     -42.677  57.439 -50.687  1.00  0.00    -0.070 N 
HETATM   18  H   UNL     1     -42.688  57.551 -49.655  1.00  0.00     0.279 HD
HETATM   19  C   UNL     1     -41.240  57.252 -51.116  1.00  0.00     0.235 C 
HETATM   20  C   UNL     1     -40.404  58.424 -50.618  1.00  0.00     0.028 C 
HETATM   21  C   UNL     1     -40.951  59.758 -51.106  1.00  0.00     0.003 C 
HETATM   22  C   UNL     1     -42.427  59.908 -50.757  1.00  0.00     0.028 C 
HETATM   23  C   UNL     1     -43.250  58.725 -51.252  1.00  0.00     0.235 C 
ENDBRANCH  16  17
ENDBRANCH  15  16
ENDBRANCH  12  15
ENDBRANCH  10  11
ENDBRANCH   5  10
BRANCH   6  24
HETATM   24  C   UNL     1     -44.439  58.153 -58.742  1.00  0.00    -0.027 A 
HETATM   25  C   UNL     1     -44.158  57.039 -59.574  1.00  0.00    -0.053 A 
HETATM   26  C   UNL     1     -42.795  56.397 -59.665  1.00  0.00     0.049 C 
HETATM   27  C   UNL     1     -45.184  56.479 -60.358  1.00  0.00     0.014 A 
HETATM   28  C   UNL     1     -46.475  57.009 -60.360  1.00  0.00    -0.061 A 
HETATM   29  C   UNL     1     -47.528  56.456 -61.278  1.00  0.00     0.048 C 
HETATM   30  C   UNL     1     -46.745  58.123 -59.569  1.00  0.00     0.007 A 
HETATM   31  C   UNL     1     -45.746  58.687 -58.772  1.00  0.00     0.010 A 
ENDBRANCH   6  24
BRANCH   9  32
HETATM   32  C   UNL     1     -43.358  60.745 -59.556  1.00  0.00     0.277 C 
HETATM   33  O   UNL     1     -43.929  61.730 -59.099  1.00  0.00    -0.264 OA
BRANCH  32  34
HETATM   34  O   UNL     1     -43.282  60.362 -60.841  1.00  0.00    -0.325 OA
HETATM   35  C   UNL     1     -42.037  59.736 -61.177  1.00  0.00     0.213 C 
ENDBRANCH  32  34
ENDBRANCH   9  32
BRANCH   1  36
HETATM   36  C   UNL     1     -40.570  61.452 -58.699  1.00  0.00     0.052 C 
HETATM   37  C   UNL     1     -40.662  62.954 -58.428  1.00  0.00     0.011 C 
ENDBRANCH   1  36
TORSDOF 9
ENDMDL
MODEL 9
REMARK VINA RESULT:      -7.0      2.787      3.245
REMARK  9 active torsions:
REMARK  status: ('A' for Active; 'I' for Inactive)
REMARK    1  A    between atoms: C_2  and  C_3 
REMARK    2  A    between atoms: C_7  and  C_8 
REMARK    3  A    between atoms: C_8  and  C_9 
REMARK       I    between atoms: C_9  and  N_10 
REMARK    4  A    between atoms: N_10  and  C_11 
REMARK    5  A    between atoms: C_11  and  C_12 
REMARK    6  A    between atoms: C_12  and  N_13 
REMARK    7  A    between atoms: C_21  and  C_22 
REMARK    8  A    between atoms: C_32  and  C_33 
REMARK    9  A    between atoms: C_33  and  O_34 
ROOT
HETATM    1  C   UNL     1     -42.389  59.754 -53.276  1.00  0.00     0.037 C 
HETATM    2  N   UNL     1     -42.504  60.446 -54.464  1.00  0.00    -0.232 NA
HETATM    3  C   UNL     1     -42.291  59.804 -55.559  1.00  0.00     0.169 C 
HETATM    4  N   UNL     1     -42.264  58.239 -55.695  1.00  0.00    -0.321 N 
HETATM    5  C   UNL     1     -42.419  57.941 -56.945  1.00  0.00     0.011 C 
HETATM    6  C   UNL     1     -42.479  57.546 -54.409  1.00  0.00     0.151 C 
HETATM    7  S   UNL     1     -42.204  60.599 -57.105  1.00  0.00    -0.086 SA
HETATM    8  C   UNL     1     -41.926  58.998 -57.912  1.00  0.00     0.135 C 
HETATM    9  C   UNL     1     -42.099  58.434 -53.250  1.00  0.00     0.138 C 
ENDROOT
BRANCH   5  10
HETATM   10  C   UNL     1     -43.292  56.801 -57.401  1.00  0.00     0.156 C 
BRANCH  10  11
HETATM   11  C   UNL     1     -44.528  57.385 -58.082  1.00  0.00     0.223 C 
HETATM   12  N   UNL     1     -45.241  58.316 -57.385  1.00  0.00    -0.359 N 
HETATM   13  H   UNL     1     -44.920  58.555 -56.447  1.00  0.00     0.162 HD
HETATM   14  O   UNL     1     -44.867  56.998 -59.201  1.00  0.00    -0.273 OA
BRANCH  12  15
HETATM   15  C   UNL     1     -46.617  58.741 -57.690  1.00  0.00     0.150 C 
BRANCH  15  16
HETATM   16  C   UNL     1     -46.924  60.256 -57.842  1.00  0.00     0.254 C 
BRANCH  16  17
HETATM   17  N   UNL     1     -48.157  60.714 -57.080  1.00  0.00    -0.070 N 
HETATM   18  H   UNL     1     -48.223  60.075 -56.265  1.00  0.00     0.279 HD
HETATM   19  C   UNL     1     -48.084  62.130 -56.555  1.00  0.00     0.235 C 
HETATM   20  C   UNL     1     -49.287  62.401 -55.659  1.00  0.00     0.028 C 
HETATM   21  C   UNL     1     -50.601  62.155 -56.387  1.00  0.00     0.003 C 
HETATM   22  C   UNL     1     -50.638  60.760 -57.000  1.00  0.00     0.028 C 
HETATM   23  C   UNL     1     -49.424  60.498 -57.884  1.00  0.00     0.235 C 
ENDBRANCH  16  17
ENDBRANCH  15  16
ENDBRANCH  12  15
ENDBRANCH  10  11
ENDBRANCH   5  10
BRANCH   6  24
HETATM   24  C   UNL     1     -41.915  56.124 -54.333  1.00  0.00    -0.027 A 
HETATM   25  C   UNL     1     -42.543  55.135 -53.533  1.00  0.00    -0.053 A 
HETATM   26  C   UNL     1     -43.819  55.378 -52.765  1.00  0.00     0.049 C 
HETATM   27  C   UNL     1     -41.975  53.850 -53.440  1.00  0.00     0.014 A 
HETATM   28  C   UNL     1     -40.786  53.527 -54.097  1.00  0.00    -0.061 A 
HETATM   29  C   UNL     1     -40.147  52.181 -53.904  1.00  0.00     0.048 C 
HETATM   30  C   UNL     1     -40.150  54.506 -54.856  1.00  0.00     0.007 A 
HETATM   31  C   UNL     1     -40.704  55.784 -54.973  1.00  0.00     0.010 A 
ENDBRANCH   6  24
BRANCH   9  32
HETATM   32  C   UNL     1     -40.713  58.270 -52.752  1.00  0.00     0.277 C 
HETATM   33  O   UNL     1     -39.827  59.004 -53.175  1.00  0.00    -0.264 OA
BRANCH  32  34
HETATM   34  O   UNL     1     -40.621  57.343 -51.785  1.00  0.00    -0.325 OA
HETATM   35  C   UNL     1     -41.589  57.511 -50.739  1.00  0.00     0.213 C 
ENDBRANCH  32  34
ENDBRANCH   9  32
BRANCH   1  36
HETATM   36  C   UNL     1     -42.424  60.630 -52.033  1.00  0.00     0.052 C 
HETATM   37  C   UNL     1     -43.751  60.534 -51.280  1.00  0.00     0.011 C 
ENDBRANCH   1  36
TORSDOF 9
ENDMDL
MODEL 10
REMARK VINA RESULT:      -6.8      2.929      8.081
REMARK  9 active torsions:
REMARK  status: ('A' for Active; 'I' for Inactive)
REMARK    1  A    between atoms: C_2  and  C_3 
REMARK    2  A    between atoms: C_7  and  C_8 
REMARK    3  A    between atoms: C_8  and  C_9 
REMARK       I    between atoms: C_9  and  N_10 
REMARK    4  A    between atoms: N_10  and  C_11 
REMARK    5  A    between atoms: C_11  and  C_12 
REMARK    6  A    between atoms: C_12  and  N_13 
REMARK    7  A    between atoms: C_21  and  C_22 
REMARK    8  A    between atoms: C_32  and  C_33 
REMARK    9  A    between atoms: C_33  and  O_34 
ROOT
HETATM    1  C   UNL     1     -41.697  61.302 -58.050  1.00  0.00     0.037 C 
HETATM    2  N   UNL     1     -42.478  62.050 -57.194  1.00  0.00    -0.232 NA
HETATM    3  C   UNL     1     -43.663  61.621 -56.929  1.00  0.00     0.169 C 
HETATM    4  N   UNL     1     -44.174  60.160 -57.198  1.00  0.00    -0.321 N 
HETATM    5  C   UNL     1     -45.231  59.965 -56.478  1.00  0.00     0.011 C 
HETATM    6  C   UNL     1     -43.153  59.301 -57.833  1.00  0.00     0.151 C 
HETATM    7  S   UNL     1     -44.818  62.565 -56.033  1.00  0.00    -0.086 SA
HETATM    8  C   UNL     1     -46.024  61.217 -56.168  1.00  0.00     0.135 C 
HETATM    9  C   UNL     1     -42.135  60.134 -58.572  1.00  0.00     0.138 C 
ENDROOT
BRANCH   5  10
HETATM   10  C   UNL     1     -45.483  58.670 -55.750  1.00  0.00     0.156 C 
BRANCH  10  11
HETATM   11  C   UNL     1     -44.704  58.701 -54.435  1.00  0.00     0.223 C 
HETATM   12  N   UNL     1     -43.432  58.209 -54.455  1.00  0.00    -0.359 N 
HETATM   13  H   UNL     1     -43.080  57.836 -55.336  1.00  0.00     0.162 HD
HETATM   14  O   UNL     1     -45.230  59.127 -53.407  1.00  0.00    -0.273 OA
BRANCH  12  15
HETATM   15  C   UNL     1     -42.646  57.827 -53.269  1.00  0.00     0.150 C 
BRANCH  15  16
HETATM   16  C   UNL     1     -41.237  57.206 -53.464  1.00  0.00     0.254 C 
BRANCH  16  17
HETATM   17  N   UNL     1     -41.251  55.703 -53.690  1.00  0.00    -0.070 N 
HETATM   18  H   UNL     1     -42.183  55.501 -54.100  1.00  0.00     0.279 HD
HETATM   19  C   UNL     1     -40.202  55.200 -54.655  1.00  0.00     0.235 C 
HETATM   20  C   UNL     1     -40.439  53.721 -54.937  1.00  0.00     0.028 C 
HETATM   21  C   UNL     1     -40.448  52.895 -53.658  1.00  0.00     0.003 C 
HETATM   22  C   UNL     1     -41.437  53.459 -52.645  1.00  0.00     0.028 C 
HETATM   23  C   UNL     1     -41.196  54.940 -52.381  1.00  0.00     0.235 C 
ENDBRANCH  16  17
ENDBRANCH  15  16
ENDBRANCH  12  15
ENDBRANCH  10  11
ENDBRANCH   5  10
BRANCH   6  24
HETATM   24  C   UNL     1     -43.703  58.114 -58.629  1.00  0.00    -0.027 A 
HETATM   25  C   UNL     1     -43.222  56.800 -58.399  1.00  0.00    -0.053 A 
HETATM   26  C   UNL     1     -42.205  56.464 -57.336  1.00  0.00     0.049 C 
HETATM   27  C   UNL     1     -43.707  55.733 -59.181  1.00  0.00     0.014 A 
HETATM   28  C   UNL     1     -44.637  55.940 -60.202  1.00  0.00    -0.061 A 
HETATM   29  C   UNL     1     -45.066  54.803 -61.086  1.00  0.00     0.048 C 
HETATM   30  C   UNL     1     -45.085  57.234 -60.451  1.00  0.00     0.007 A 
HETATM   31  C   UNL     1     -44.628  58.305 -59.678  1.00  0.00     0.010 A 
ENDBRANCH   6  24
BRANCH   9  32
HETATM   32  C   UNL     1     -42.408  60.341 -60.013  1.00  0.00     0.277 C 
HETATM   33  O   UNL     1     -41.815  59.663 -60.846  1.00  0.00    -0.264 OA
BRANCH  32  34
HETATM   34  O   UNL     1     -43.387  61.234 -60.227  1.00  0.00    -0.325 OA
HETATM   35  C   UNL     1     -43.224  61.981 -61.441  1.00  0.00     0.213 C 
ENDBRANCH  32  34
ENDBRANCH   9  32
BRANCH   1  36
HETATM   36  C   UNL     1     -40.413  61.989 -58.492  1.00  0.00     0.052 C 
HETATM   37  C   UNL     1     -40.626  63.457 -58.861  1.00  0.00     0.011 C 
ENDBRANCH   1  36
TORSDOF 9
ENDMDL
