MODEL 1
REMARK VINA RESULT:      -7.7      0.000      0.000
REMARK  5 active torsions:
REMARK  status: ('A' for Active; 'I' for Inactive)
REMARK    1  A    between atoms: C_2  and  O_3 
REMARK    2  A    between atoms: C_4  and  C_5 
REMARK    3  A    between atoms: C_5  and  O_6 
REMARK    4  A    between atoms: C_9  and  C_10 
REMARK    5  A    between atoms: C_22  and  O_23 
ROOT
HETATM    1  C   UNL     1     -42.324  57.205 -55.287  1.00  0.00     0.047 C 
HETATM    2  C   UNL     1     -41.967  58.087 -54.079  1.00  0.00     0.073 C 
HETATM    3  C   UNL     1     -40.860  57.421 -53.195  1.00  0.00     0.133 C 
HETATM    4  C   UNL     1     -41.306  56.275 -52.238  1.00  0.00     0.074 C 
HETATM    5  C   UNL     1     -42.729  56.420 -51.822  1.00  0.00     0.030 A 
HETATM    6  C   UNL     1     -43.582  57.387 -52.310  1.00  0.00     0.042 A 
HETATM    7  N   UNL     1     -44.773  57.232 -51.659  1.00  0.00    -0.279 N 
HETATM    8  H   UNL     1     -45.626  57.776 -51.757  1.00  0.00     0.189 HD
HETATM    9  N   UNL     1     -44.749  56.228 -50.757  1.00  0.00    -0.149 NA
HETATM   10  C   UNL     1     -43.505  55.775 -50.858  1.00  0.00     0.190 A 
HETATM   11  C   UNL     1     -43.258  58.447 -53.292  1.00  0.00     0.097 C 
ENDROOT
BRANCH   4  12
HETATM   12  C   UNL     1     -41.092  54.884 -52.833  1.00  0.00    -0.048 A 
HETATM   13  C   UNL     1     -40.430  53.929 -52.034  1.00  0.00     0.009 A 
HETATM   14  C   UNL     1     -40.185  52.636 -52.502  1.00  0.00     0.024 A 
HETATM   15  C   UNL     1     -40.591  52.276 -53.782  1.00  0.00     0.034 A 
HETATM   16 CL   UNL     1     -40.291  50.685 -54.362  1.00  0.00    -0.084 Cl
HETATM   17  C   UNL     1     -41.241  53.199 -54.594  1.00  0.00     0.024 A 
HETATM   18  C   UNL     1     -41.490  54.493 -54.122  1.00  0.00     0.009 A 
ENDBRANCH   4  12
BRANCH   3  19
HETATM   19  C   UNL     1     -40.121  58.480 -52.397  1.00  0.00     0.266 C 
HETATM   20  O   UNL     1     -39.321  59.255 -52.910  1.00  0.00    -0.265 OA
BRANCH  19  21
HETATM   21  O   UNL     1     -40.451  58.471 -51.080  1.00  0.00    -0.326 OA
HETATM   22  C   UNL     1     -40.963  59.710 -50.589  1.00  0.00     0.213 C 
ENDBRANCH  19  21
ENDBRANCH   3  19
BRANCH   2  23
HETATM   23  O   UNL     1     -41.470  59.311 -54.653  1.00  0.00    -0.389 OA
HETATM   24  H   UNL     1     -41.276  59.161 -55.597  1.00  0.00     0.210 HD
ENDBRANCH   2  23
BRANCH  10  25
HETATM   25  O   UNL     1     -43.188  54.789 -50.026  1.00  0.00    -0.343 OA
HETATM   26  H   UNL     1     -43.789  54.905 -49.271  1.00  0.00     0.219 HD
ENDBRANCH  10  25
TORSDOF 5
ENDMDL
MODEL 2
REMARK VINA RESULT:      -7.0      2.760      4.032
REMARK  5 active torsions:
REMARK  status: ('A' for Active; 'I' for Inactive)
REMARK    1  A    between atoms: C_2  and  O_3 
REMARK    2  A    between atoms: C_4  and  C_5 
REMARK    3  A    between atoms: C_5  and  O_6 
REMARK    4  A    between atoms: C_9  and  C_10 
REMARK    5  A    between atoms: C_22  and  O_23 
ROOT
HETATM    1  C   UNL     1     -40.520  58.299 -53.397  1.00  0.00     0.047 C 
HETATM    2  C   UNL     1     -42.000  58.673 -53.581  1.00  0.00     0.073 C 
HETATM    3  C   UNL     1     -42.931  57.431 -53.379  1.00  0.00     0.133 C 
HETATM    4  C   UNL     1     -43.031  56.417 -54.558  1.00  0.00     0.074 C 
HETATM    5  C   UNL     1     -42.785  57.068 -55.875  1.00  0.00     0.030 A 
HETATM    6  C   UNL     1     -42.406  58.386 -56.026  1.00  0.00     0.042 A 
HETATM    7  N   UNL     1     -42.331  58.626 -57.369  1.00  0.00    -0.279 N 
HETATM    8  H   UNL     1     -42.091  59.490 -57.847  1.00  0.00     0.189 HD
HETATM    9  N   UNL     1     -42.654  57.546 -58.112  1.00  0.00    -0.149 NA
HETATM   10  C   UNL     1     -42.946  56.636 -57.192  1.00  0.00     0.190 A 
HETATM   11  C   UNL     1     -42.196  59.382 -54.950  1.00  0.00     0.097 C 
ENDROOT
BRANCH   4  12
HETATM   12  C   UNL     1     -42.089  55.224 -54.400  1.00  0.00    -0.048 A 
HETATM   13  C   UNL     1     -42.409  54.270 -53.412  1.00  0.00     0.009 A 
HETATM   14  C   UNL     1     -41.598  53.153 -53.194  1.00  0.00     0.024 A 
HETATM   15  C   UNL     1     -40.449  52.974 -53.955  1.00  0.00     0.034 A 
HETATM   16 CL   UNL     1     -39.448  51.600 -53.689  1.00  0.00    -0.084 Cl
HETATM   17  C   UNL     1     -40.107  53.902 -54.932  1.00  0.00     0.024 A 
HETATM   18  C   UNL     1     -40.921  55.018 -55.154  1.00  0.00     0.009 A 
ENDBRANCH   4  12
BRANCH   3  19
HETATM   19  C   UNL     1     -44.327  57.881 -52.987  1.00  0.00     0.266 C 
HETATM   20  O   UNL     1     -45.167  58.222 -53.813  1.00  0.00    -0.265 OA
BRANCH  19  21
HETATM   21  O   UNL     1     -44.531  57.849 -51.645  1.00  0.00    -0.326 OA
HETATM   22  C   UNL     1     -44.034  56.678 -50.997  1.00  0.00     0.213 C 
ENDBRANCH  19  21
ENDBRANCH   3  19
BRANCH   2  23
HETATM   23  O   UNL     1     -42.260  59.655 -52.559  1.00  0.00    -0.389 OA
HETATM   24  H   UNL     1     -42.722  60.414 -52.961  1.00  0.00     0.210 HD
ENDBRANCH   2  23
BRANCH  10  25
HETATM   25  O   UNL     1     -43.352  55.461 -57.661  1.00  0.00    -0.343 OA
HETATM   26  H   UNL     1     -44.323  55.516 -57.650  1.00  0.00     0.219 HD
ENDBRANCH  10  25
TORSDOF 5
ENDMDL
MODEL 3
REMARK VINA RESULT:      -7.0      2.423      4.286
REMARK  5 active torsions:
REMARK  status: ('A' for Active; 'I' for Inactive)
REMARK    1  A    between atoms: C_2  and  O_3 
REMARK    2  A    between atoms: C_4  and  C_5 
REMARK    3  A    between atoms: C_5  and  O_6 
REMARK    4  A    between atoms: C_9  and  C_10 
REMARK    5  A    between atoms: C_22  and  O_23 
ROOT
HETATM    1  C   UNL     1     -44.808  56.445 -54.148  1.00  0.00     0.047 C 
HETATM    2  C   UNL     1     -44.340  57.484 -55.180  1.00  0.00     0.073 C 
HETATM    3  C   UNL     1     -43.002  57.044 -55.863  1.00  0.00     0.133 C 
HETATM    4  C   UNL     1     -41.687  57.245 -55.051  1.00  0.00     0.074 C 
HETATM    5  C   UNL     1     -41.797  58.373 -54.084  1.00  0.00     0.030 A 
HETATM    6  C   UNL     1     -42.957  59.084 -53.856  1.00  0.00     0.042 A 
HETATM    7  N   UNL     1     -42.651  60.062 -52.952  1.00  0.00    -0.279 N 
HETATM    8  H   UNL     1     -43.258  60.777 -52.562  1.00  0.00     0.189 HD
HETATM    9  N   UNL     1     -41.353  60.046 -52.584  1.00  0.00    -0.149 NA
HETATM   10  C   UNL     1     -40.859  59.041 -53.296  1.00  0.00     0.190 A 
HETATM   11  C   UNL     1     -44.267  58.888 -54.517  1.00  0.00     0.097 C 
ENDROOT
BRANCH   4  12
HETATM   12  C   UNL     1     -41.247  55.984 -54.309  1.00  0.00    -0.048 A 
HETATM   13  C   UNL     1     -40.662  54.951 -55.071  1.00  0.00     0.009 A 
HETATM   14  C   UNL     1     -40.239  53.760 -54.475  1.00  0.00     0.024 A 
HETATM   15  C   UNL     1     -40.399  53.578 -53.106  1.00  0.00     0.034 A 
HETATM   16 CL   UNL     1     -39.879  52.113 -52.369  1.00  0.00    -0.084 Cl
HETATM   17  C   UNL     1     -40.978  54.577 -52.331  1.00  0.00     0.024 A 
HETATM   18  C   UNL     1     -41.397  55.771 -52.928  1.00  0.00     0.009 A 
ENDBRANCH   4  12
BRANCH   3  19
HETATM   19  C   UNL     1     -42.860  57.715 -57.218  1.00  0.00     0.266 C 
HETATM   20  O   UNL     1     -42.173  58.717 -57.389  1.00  0.00    -0.265 OA
BRANCH  19  21
HETATM   21  O   UNL     1     -43.559  57.082 -58.194  1.00  0.00    -0.326 OA
HETATM   22  C   UNL     1     -43.252  55.694 -58.338  1.00  0.00     0.213 C 
ENDBRANCH  19  21
ENDBRANCH   3  19
BRANCH   2  23
HETATM   23  O   UNL     1     -45.399  57.534 -56.157  1.00  0.00    -0.389 OA
HETATM   24  H   UNL     1     -46.131  56.966 -55.856  1.00  0.00     0.210 HD
ENDBRANCH   2  23
BRANCH  10  25
HETATM   25  O   UNL     1     -39.556  58.829 -53.157  1.00  0.00    -0.343 OA
HETATM   26  H   UNL     1     -39.148  59.695 -53.328  1.00  0.00     0.219 HD
ENDBRANCH  10  25
TORSDOF 5
ENDMDL
MODEL 4
REMARK VINA RESULT:      -6.6     16.884     19.086
REMARK  5 active torsions:
REMARK  status: ('A' for Active; 'I' for Inactive)
REMARK    1  A    between atoms: C_2  and  O_3 
REMARK    2  A    between atoms: C_4  and  C_5 
REMARK    3  A    between atoms: C_5  and  O_6 
REMARK    4  A    between atoms: C_9  and  C_10 
REMARK    5  A    between atoms: C_22  and  O_23 
ROOT
HETATM    1  C   UNL     1     -34.869  37.861 -53.708  1.00  0.00     0.047 C 
HETATM    2  C   UNL     1     -33.736  38.507 -52.892  1.00  0.00     0.073 C 
HETATM    3  C   UNL     1     -33.621  40.038 -53.193  1.00  0.00     0.133 C 
HETATM    4  C   UNL     1     -32.915  40.453 -54.519  1.00  0.00     0.074 C 
HETATM    5  C   UNL     1     -31.914  39.440 -54.957  1.00  0.00     0.030 A 
HETATM    6  C   UNL     1     -31.714  38.230 -54.327  1.00  0.00     0.042 A 
HETATM    7  N   UNL     1     -30.689  37.607 -54.981  1.00  0.00    -0.279 N 
HETATM    8  H   UNL     1     -30.266  36.704 -54.784  1.00  0.00     0.189 HD
HETATM    9  N   UNL     1     -30.191  38.344 -55.996  1.00  0.00    -0.149 NA
HETATM   10  C   UNL     1     -30.927  39.448 -55.943  1.00  0.00     0.190 A 
HETATM   11  C   UNL     1     -32.413  37.726 -53.123  1.00  0.00     0.097 C 
ENDROOT
BRANCH   4  12
HETATM   12  C   UNL     1     -33.897  40.720 -55.659  1.00  0.00    -0.048 A 
HETATM   13  C   UNL     1     -34.533  41.978 -55.688  1.00  0.00     0.009 A 
HETATM   14  C   UNL     1     -35.452  42.303 -56.689  1.00  0.00     0.024 A 
HETATM   15  C   UNL     1     -35.757  41.372 -57.676  1.00  0.00     0.034 A 
HETATM   16 CL   UNL     1     -36.887  41.768 -58.910  1.00  0.00    -0.084 Cl
HETATM   17  C   UNL     1     -35.149  40.122 -57.668  1.00  0.00     0.024 A 
HETATM   18  C   UNL     1     -34.225  39.799 -56.668  1.00  0.00     0.009 A 
ENDBRANCH   4  12
BRANCH   3  19
HETATM   19  C   UNL     1     -32.956  40.752 -52.029  1.00  0.00     0.266 C 
HETATM   20  O   UNL     1     -31.738  40.857 -51.928  1.00  0.00    -0.265 OA
BRANCH  19  21
HETATM   21  O   UNL     1     -33.851  41.256 -51.141  1.00  0.00    -0.326 OA
HETATM   22  C   UNL     1     -34.985  41.887 -51.737  1.00  0.00     0.213 C 
ENDBRANCH  19  21
ENDBRANCH   3  19
BRANCH   2  23
HETATM   23  O   UNL     1     -34.112  38.302 -51.516  1.00  0.00    -0.389 OA
HETATM   24  H   UNL     1     -33.877  39.097 -51.004  1.00  0.00     0.210 HD
ENDBRANCH   2  23
BRANCH  10  25
HETATM   25  O   UNL     1     -30.609  40.387 -56.826  1.00  0.00    -0.343 OA
HETATM   26  H   UNL     1     -31.087  41.178 -56.523  1.00  0.00     0.219 HD
ENDBRANCH  10  25
TORSDOF 5
ENDMDL
MODEL 5
REMARK VINA RESULT:      -6.6      3.154      4.587
REMARK  5 active torsions:
REMARK  status: ('A' for Active; 'I' for Inactive)
REMARK    1  A    between atoms: C_2  and  O_3 
REMARK    2  A    between atoms: C_4  and  C_5 
REMARK    3  A    between atoms: C_5  and  O_6 
REMARK    4  A    between atoms: C_9  and  C_10 
REMARK    5  A    between atoms: C_22  and  O_23 
ROOT
HETATM    1  C   UNL     1     -44.637  57.258 -53.639  1.00  0.00     0.047 C 
HETATM    2  C   UNL     1     -43.330  57.854 -53.090  1.00  0.00     0.073 C 
HETATM    3  C   UNL     1     -42.389  58.324 -54.248  1.00  0.00     0.133 C 
HETATM    4  C   UNL     1     -41.581  57.223 -55.000  1.00  0.00     0.074 C 
HETATM    5  C   UNL     1     -41.311  56.041 -54.135  1.00  0.00     0.030 A 
HETATM    6  C   UNL     1     -41.810  55.890 -52.858  1.00  0.00     0.042 A 
HETATM    7  N   UNL     1     -41.306  54.716 -52.372  1.00  0.00    -0.279 N 
HETATM    8  H   UNL     1     -41.452  54.292 -51.460  1.00  0.00     0.189 HD
HETATM    9  N   UNL     1     -40.491  54.094 -53.250  1.00  0.00    -0.149 NA
HETATM   10  C   UNL     1     -40.493  54.922 -54.287  1.00  0.00     0.190 A 
HETATM   11  C   UNL     1     -42.662  56.845 -52.114  1.00  0.00     0.097 C 
ENDROOT
BRANCH   4  12
HETATM   12  C   UNL     1     -42.260  56.763 -56.289  1.00  0.00    -0.048 A 
HETATM   13  C   UNL     1     -42.352  57.694 -57.345  1.00  0.00     0.009 A 
HETATM   14  C   UNL     1     -42.964  57.360 -58.555  1.00  0.00     0.024 A 
HETATM   15  C   UNL     1     -43.503  56.090 -58.729  1.00  0.00     0.034 A 
HETATM   16 CL   UNL     1     -44.258  55.674 -60.218  1.00  0.00    -0.084 Cl
HETATM   17  C   UNL     1     -43.432  55.154 -57.703  1.00  0.00     0.024 A 
HETATM   18  C   UNL     1     -42.814  55.488 -56.493  1.00  0.00     0.009 A 
ENDBRANCH   4  12
BRANCH   3  19
HETATM   19  C   UNL     1     -41.431  59.390 -53.745  1.00  0.00     0.266 C 
HETATM   20  O   UNL     1     -40.302  59.127 -53.346  1.00  0.00    -0.265 OA
BRANCH  19  21
HETATM   21  O   UNL     1     -41.960  60.639 -53.800  1.00  0.00    -0.326 OA
HETATM   22  C   UNL     1     -42.690  60.921 -54.995  1.00  0.00     0.213 C 
ENDBRANCH  19  21
ENDBRANCH   3  19
BRANCH   2  23
HETATM   23  O   UNL     1     -43.747  58.987 -52.302  1.00  0.00    -0.389 OA
HETATM   24  H   UNL     1     -43.149  59.075 -51.537  1.00  0.00     0.210 HD
ENDBRANCH   2  23
BRANCH  10  25
HETATM   25  O   UNL     1     -39.714  54.565 -55.302  1.00  0.00    -0.343 OA
HETATM   26  H   UNL     1     -39.057  53.967 -54.907  1.00  0.00     0.219 HD
ENDBRANCH  10  25
TORSDOF 5
ENDMDL
MODEL 6
REMARK VINA RESULT:      -6.4     15.553     18.097
REMARK  5 active torsions:
REMARK  status: ('A' for Active; 'I' for Inactive)
REMARK    1  A    between atoms: C_2  and  O_3 
REMARK    2  A    between atoms: C_4  and  C_5 
REMARK    3  A    between atoms: C_5  and  O_6 
REMARK    4  A    between atoms: C_9  and  C_10 
REMARK    5  A    between atoms: C_22  and  O_23 
ROOT
HETATM    1  C   UNL     1     -32.665  39.689 -55.612  1.00  0.00     0.047 C 
HETATM    2  C   UNL     1     -33.305  38.963 -54.417  1.00  0.00     0.073 C 
HETATM    3  C   UNL     1     -34.817  38.658 -54.680  1.00  0.00     0.133 C 
HETATM    4  C   UNL     1     -35.822  39.838 -54.512  1.00  0.00     0.074 C 
HETATM    5  C   UNL     1     -35.334  40.850 -53.533  1.00  0.00     0.030 A 
HETATM    6  C   UNL     1     -34.094  40.805 -52.931  1.00  0.00     0.042 A 
HETATM    7  N   UNL     1     -34.034  41.862 -52.067  1.00  0.00    -0.279 N 
HETATM    8  H   UNL     1     -33.275  42.135 -51.449  1.00  0.00     0.189 HD
HETATM    9  N   UNL     1     -35.170  42.592 -52.055  1.00  0.00    -0.149 NA
HETATM   10  C   UNL     1     -35.940  41.948 -52.923  1.00  0.00     0.190 A 
HETATM   11  C   UNL     1     -33.050  39.771 -53.114  1.00  0.00     0.097 C 
ENDROOT
BRANCH   4  12
HETATM   12  C   UNL     1     -36.153  40.531 -55.833  1.00  0.00    -0.048 A 
HETATM   13  C   UNL     1     -37.267  40.055 -56.555  1.00  0.00     0.009 A 
HETATM   14  C   UNL     1     -37.636  40.624 -57.777  1.00  0.00     0.024 A 
HETATM   15  C   UNL     1     -36.894  41.676 -58.301  1.00  0.00     0.034 A 
HETATM   16 CL   UNL     1     -37.346  42.380 -59.804  1.00  0.00    -0.084 Cl
HETATM   17  C   UNL     1     -35.788  42.162 -57.613  1.00  0.00     0.024 A 
HETATM   18  C   UNL     1     -35.421  41.594 -56.387  1.00  0.00     0.009 A 
ENDBRANCH   4  12
BRANCH   3  19
HETATM   19  C   UNL     1     -35.273  37.489 -53.824  1.00  0.00     0.266 C 
HETATM   20  O   UNL     1     -36.083  36.658 -54.220  1.00  0.00    -0.265 OA
BRANCH  19  21
HETATM   21  O   UNL     1     -34.680  37.470 -52.602  1.00  0.00    -0.326 OA
HETATM   22  C   UNL     1     -35.588  37.558 -51.503  1.00  0.00     0.213 C 
ENDBRANCH  19  21
ENDBRANCH   3  19
BRANCH   2  23
HETATM   23  O   UNL     1     -32.567  37.731 -54.299  1.00  0.00    -0.389 OA
HETATM   24  H   UNL     1     -33.122  36.999 -54.626  1.00  0.00     0.210 HD
ENDBRANCH   2  23
BRANCH  10  25
HETATM   25  O   UNL     1     -37.164  42.440 -53.073  1.00  0.00    -0.343 OA
HETATM   26  H   UNL     1     -37.432  42.160 -53.965  1.00  0.00     0.219 HD
ENDBRANCH  10  25
TORSDOF 5
ENDMDL
MODEL 7
REMARK VINA RESULT:      -6.3      2.277      3.904
REMARK  5 active torsions:
REMARK  status: ('A' for Active; 'I' for Inactive)
REMARK    1  A    between atoms: C_2  and  O_3 
REMARK    2  A    between atoms: C_4  and  C_5 
REMARK    3  A    between atoms: C_5  and  O_6 
REMARK    4  A    between atoms: C_9  and  C_10 
REMARK    5  A    between atoms: C_22  and  O_23 
ROOT
HETATM    1  C   UNL     1     -43.976  56.337 -51.016  1.00  0.00     0.047 C 
HETATM    2  C   UNL     1     -44.155  57.613 -51.856  1.00  0.00     0.073 C 
HETATM    3  C   UNL     1     -43.638  57.408 -53.319  1.00  0.00     0.133 C 
HETATM    4  C   UNL     1     -42.096  57.465 -53.545  1.00  0.00     0.074 C 
HETATM    5  C   UNL     1     -41.417  58.322 -52.534  1.00  0.00     0.030 A 
HETATM    6  C   UNL     1     -42.058  58.907 -51.461  1.00  0.00     0.042 A 
HETATM    7  N   UNL     1     -41.124  59.651 -50.798  1.00  0.00    -0.279 N 
HETATM    8  H   UNL     1     -41.242  60.225 -49.968  1.00  0.00     0.189 HD
HETATM    9  N   UNL     1     -39.907  59.604 -51.381  1.00  0.00    -0.149 NA
HETATM   10  C   UNL     1     -40.118  58.821 -52.433  1.00  0.00     0.190 A 
HETATM   11  C   UNL     1     -43.498  58.818 -51.127  1.00  0.00     0.097 C 
ENDROOT
BRANCH   4  12
HETATM   12  C   UNL     1     -41.445  56.083 -53.556  1.00  0.00    -0.048 A 
HETATM   13  C   UNL     1     -41.029  55.570 -54.803  1.00  0.00     0.009 A 
HETATM   14  C   UNL     1     -40.431  54.312 -54.906  1.00  0.00     0.024 A 
HETATM   15  C   UNL     1     -40.246  53.539 -53.765  1.00  0.00     0.034 A 
HETATM   16 CL   UNL     1     -39.510  51.989 -53.889  1.00  0.00    -0.084 Cl
HETATM   17  C   UNL     1     -40.652  54.017 -52.524  1.00  0.00     0.024 A 
HETATM   18  C   UNL     1     -41.245  55.280 -52.421  1.00  0.00     0.009 A 
ENDBRANCH   4  12
BRANCH   3  19
HETATM   19  C   UNL     1     -44.316  58.390 -54.257  1.00  0.00     0.266 C 
HETATM   20  O   UNL     1     -45.476  58.252 -54.631  1.00  0.00    -0.265 OA
BRANCH  19  21
HETATM   21  O   UNL     1     -43.507  59.421 -54.614  1.00  0.00    -0.326 OA
HETATM   22  C   UNL     1     -44.011  60.714 -54.276  1.00  0.00     0.213 C 
ENDBRANCH  19  21
ENDBRANCH   3  19
BRANCH   2  23
HETATM   23  O   UNL     1     -45.576  57.850 -51.864  1.00  0.00    -0.389 OA
HETATM   24  H   UNL     1     -45.747  58.752 -51.535  1.00  0.00     0.210 HD
ENDBRANCH   2  23
BRANCH  10  25
HETATM   25  O   UNL     1     -39.070  58.639 -53.227  1.00  0.00    -0.343 OA
HETATM   26  H   UNL     1     -38.656  57.822 -52.900  1.00  0.00     0.219 HD
ENDBRANCH  10  25
TORSDOF 5
ENDMDL
MODEL 8
REMARK VINA RESULT:      -6.3     15.579     17.327
REMARK  5 active torsions:
REMARK  status: ('A' for Active; 'I' for Inactive)
REMARK    1  A    between atoms: C_2  and  O_3 
REMARK    2  A    between atoms: C_4  and  C_5 
REMARK    3  A    between atoms: C_5  and  O_6 
REMARK    4  A    between atoms: C_9  and  C_10 
REMARK    5  A    between atoms: C_22  and  O_23 
ROOT
HETATM    1  C   UNL     1     -36.916  38.399 -56.492  1.00  0.00     0.047 C 
HETATM    2  C   UNL     1     -37.440  39.790 -56.889  1.00  0.00     0.073 C 
HETATM    3  C   UNL     1     -36.266  40.755 -57.260  1.00  0.00     0.133 C 
HETATM    4  C   UNL     1     -35.461  41.385 -56.083  1.00  0.00     0.074 C 
HETATM    5  C   UNL     1     -36.286  41.513 -54.850  1.00  0.00     0.030 A 
HETATM    6  C   UNL     1     -37.574  41.033 -54.730  1.00  0.00     0.042 A 
HETATM    7  N   UNL     1     -38.013  41.385 -53.485  1.00  0.00    -0.279 N 
HETATM    8  H   UNL     1     -38.917  41.207 -53.057  1.00  0.00     0.189 HD
HETATM    9  N   UNL     1     -37.095  42.083 -52.784  1.00  0.00    -0.149 NA
HETATM   10  C   UNL     1     -36.080  42.167 -53.635  1.00  0.00     0.190 A 
HETATM   11  C   UNL     1     -38.367  40.340 -55.770  1.00  0.00     0.097 C 
ENDROOT
BRANCH   4  12
HETATM   12  C   UNL     1     -34.182  40.614 -55.758  1.00  0.00    -0.048 A 
HETATM   13  C   UNL     1     -33.110  40.719 -56.669  1.00  0.00     0.009 A 
HETATM   14  C   UNL     1     -31.907  40.041 -56.454  1.00  0.00     0.024 A 
HETATM   15  C   UNL     1     -31.757  39.242 -55.327  1.00  0.00     0.034 A 
HETATM   16 CL   UNL     1     -30.277  38.406 -55.059  1.00  0.00    -0.084 Cl
HETATM   17  C   UNL     1     -32.799  39.116 -54.415  1.00  0.00     0.024 A 
HETATM   18  C   UNL     1     -34.002  39.798 -54.629  1.00  0.00     0.009 A 
ENDBRANCH   4  12
BRANCH   3  19
HETATM   19  C   UNL     1     -36.766  41.862 -58.171  1.00  0.00     0.266 C 
HETATM   20  O   UNL     1     -37.149  42.946 -57.744  1.00  0.00    -0.265 OA
BRANCH  19  21
HETATM   21  O   UNL     1     -36.730  41.519 -59.484  1.00  0.00    -0.326 OA
HETATM   22  C   UNL     1     -37.411  42.426 -60.352  1.00  0.00     0.213 C 
ENDBRANCH  19  21
ENDBRANCH   3  19
BRANCH   2  23
HETATM   23  O   UNL     1     -38.269  39.553 -58.044  1.00  0.00    -0.389 OA
HETATM   24  H   UNL     1     -38.018  38.699 -58.441  1.00  0.00     0.210 HD
ENDBRANCH   2  23
BRANCH  10  25
HETATM   25  O   UNL     1     -35.032  42.862 -53.207  1.00  0.00    -0.343 OA
HETATM   26  H   UNL     1     -35.153  43.747 -53.592  1.00  0.00     0.219 HD
ENDBRANCH  10  25
TORSDOF 5
ENDMDL
MODEL 9
REMARK VINA RESULT:      -6.3     16.153     18.761
REMARK  5 active torsions:
REMARK  status: ('A' for Active; 'I' for Inactive)
REMARK    1  A    between atoms: C_2  and  O_3 
REMARK    2  A    between atoms: C_4  and  C_5 
REMARK    3  A    between atoms: C_5  and  O_6 
REMARK    4  A    between atoms: C_9  and  C_10 
REMARK    5  A    between atoms: C_22  and  O_23 
ROOT
HETATM    1  C   UNL     1     -35.795  38.205 -52.597  1.00  0.00     0.047 C 
HETATM    2  C   UNL     1     -35.858  39.556 -51.865  1.00  0.00     0.073 C 
HETATM    3  C   UNL     1     -34.751  40.535 -52.382  1.00  0.00     0.133 C 
HETATM    4  C   UNL     1     -33.300  40.309 -51.860  1.00  0.00     0.074 C 
HETATM    5  C   UNL     1     -33.285  39.671 -50.514  1.00  0.00     0.030 A 
HETATM    6  C   UNL     1     -34.415  39.232 -49.856  1.00  0.00     0.042 A 
HETATM    7  N   UNL     1     -34.007  38.759 -48.641  1.00  0.00    -0.279 N 
HETATM    8  H   UNL     1     -34.569  38.368 -47.890  1.00  0.00     0.189 HD
HETATM    9  N   UNL     1     -32.675  38.876 -48.454  1.00  0.00    -0.149 NA
HETATM   10  C   UNL     1     -32.272  39.449 -49.582  1.00  0.00     0.190 A 
HETATM   11  C   UNL     1     -35.815  39.323 -50.329  1.00  0.00     0.097 C 
ENDROOT
BRANCH   4  12
HETATM   12  C   UNL     1     -32.444  39.485 -52.821  1.00  0.00    -0.048 A 
HETATM   13  C   UNL     1     -32.069  40.088 -54.039  1.00  0.00     0.009 A 
HETATM   14  C   UNL     1     -31.293  39.404 -54.979  1.00  0.00     0.024 A 
HETATM   15  C   UNL     1     -30.885  38.100 -54.720  1.00  0.00     0.034 A 
HETATM   16 CL   UNL     1     -29.931  37.254 -55.874  1.00  0.00    -0.084 Cl
HETATM   17  C   UNL     1     -31.245  37.479 -53.529  1.00  0.00     0.024 A 
HETATM   18  C   UNL     1     -32.018  38.167 -52.586  1.00  0.00     0.009 A 
ENDBRANCH   4  12
BRANCH   3  19
HETATM   19  C   UNL     1     -35.159  41.973 -52.117  1.00  0.00     0.266 C 
HETATM   20  O   UNL     1     -34.681  42.637 -51.203  1.00  0.00    -0.265 OA
BRANCH  19  21
HETATM   21  O   UNL     1     -36.086  42.428 -52.999  1.00  0.00    -0.326 OA
HETATM   22  C   UNL     1     -35.689  42.347 -54.369  1.00  0.00     0.213 C 
ENDBRANCH  19  21
ENDBRANCH   3  19
BRANCH   2  23
HETATM   23  O   UNL     1     -37.164  40.081 -52.175  1.00  0.00    -0.389 OA
HETATM   24  H   UNL     1     -37.143  40.471 -53.068  1.00  0.00     0.210 HD
ENDBRANCH   2  23
BRANCH  10  25
HETATM   25  O   UNL     1     -30.975  39.727 -49.648  1.00  0.00    -0.343 OA
HETATM   26  H   UNL     1     -30.602  39.344 -48.835  1.00  0.00     0.219 HD
ENDBRANCH  10  25
TORSDOF 5
ENDMDL
MODEL 10
REMARK VINA RESULT:      -6.2     15.989     18.853
REMARK  5 active torsions:
REMARK  status: ('A' for Active; 'I' for Inactive)
REMARK    1  A    between atoms: C_2  and  O_3 
REMARK    2  A    between atoms: C_4  and  C_5 
REMARK    3  A    between atoms: C_5  and  O_6 
REMARK    4  A    between atoms: C_9  and  C_10 
REMARK    5  A    between atoms: C_22  and  O_23 
ROOT
HETATM    1  C   UNL     1     -34.617  37.330 -53.436  1.00  0.00     0.047 C 
HETATM    2  C   UNL     1     -34.039  38.358 -54.424  1.00  0.00     0.073 C 
HETATM    3  C   UNL     1     -32.825  39.124 -53.802  1.00  0.00     0.133 C 
HETATM    4  C   UNL     1     -33.145  40.265 -52.789  1.00  0.00     0.074 C 
HETATM    5  C   UNL     1     -34.476  40.882 -53.049  1.00  0.00     0.030 A 
HETATM    6  C   UNL     1     -35.365  40.428 -54.001  1.00  0.00     0.042 A 
HETATM    7  N   UNL     1     -36.437  41.274 -53.977  1.00  0.00    -0.279 N 
HETATM    8  H   UNL     1     -37.277  41.251 -54.549  1.00  0.00     0.189 HD
HETATM    9  N   UNL     1     -36.300  42.269 -53.075  1.00  0.00    -0.149 NA
HETATM   10  C   UNL     1     -35.104  42.024 -52.552  1.00  0.00     0.190 A 
HETATM   11  C   UNL     1     -35.171  39.293 -54.931  1.00  0.00     0.097 C 
ENDROOT
BRANCH   4  12
HETATM   12  C   UNL     1     -33.077  39.805 -51.333  1.00  0.00    -0.048 A 
HETATM   13  C   UNL     1     -31.848  39.963 -50.659  1.00  0.00     0.009 A 
HETATM   14  C   UNL     1     -31.694  39.562 -49.329  1.00  0.00     0.024 A 
HETATM   15  C   UNL     1     -32.765  38.990 -48.652  1.00  0.00     0.034 A 
HETATM   16 CL   UNL     1     -32.580  38.495 -47.014  1.00  0.00    -0.084 Cl
HETATM   17  C   UNL     1     -33.986  38.817 -49.294  1.00  0.00     0.024 A 
HETATM   18  C   UNL     1     -34.141  39.223 -50.624  1.00  0.00     0.009 A 
ENDBRANCH   4  12
BRANCH   3  19
HETATM   19  C   UNL     1     -31.930  39.669 -54.901  1.00  0.00     0.266 C 
HETATM   20  O   UNL     1     -32.108  40.770 -55.411  1.00  0.00    -0.265 OA
BRANCH  19  21
HETATM   21  O   UNL     1     -30.927  38.817 -55.234  1.00  0.00    -0.326 OA
HETATM   22  C   UNL     1     -30.211  39.178 -56.415  1.00  0.00     0.213 C 
ENDBRANCH  19  21
ENDBRANCH   3  19
BRANCH   2  23
HETATM   23  O   UNL     1     -33.602  37.576 -55.553  1.00  0.00    -0.389 OA
HETATM   24  H   UNL     1     -34.327  36.985 -55.826  1.00  0.00     0.210 HD
ENDBRANCH   2  23
BRANCH  10  25
HETATM   25  O   UNL     1     -34.689  42.902 -51.646  1.00  0.00    -0.343 OA
HETATM   26  H   UNL     1     -33.993  42.433 -51.154  1.00  0.00     0.219 HD
ENDBRANCH  10  25
TORSDOF 5
ENDMDL
