MODEL 1
REMARK VINA RESULT:      -8.6      0.000      0.000
REMARK  6 active torsions:
REMARK  status: ('A' for Active; 'I' for Inactive)
REMARK    1  A    between atoms: C_2  and  N_3 
REMARK    2  A    between atoms: N_7  and  C_8 
REMARK    3  A    between atoms: C_11  and  N_12 
REMARK    4  A    between atoms: C_13  and  N_14 
REMARK       I    between atoms: N_14  and  C_15 
REMARK    5  A    between atoms: C_15  and  C_16 
REMARK    6  A    between atoms: C_18  and  C_19 
ROOT
HETATM    1  N   UNL     1     -40.292  52.476 -54.540  1.00  0.00    -0.338 N 
HETATM    2  C   UNL     1     -39.935  51.670 -53.521  1.00  0.00     0.157 C 
HETATM    3  S   UNL     1     -39.972  50.013 -53.775  1.00  0.00    -0.047 SA
HETATM    4  H   UNL     1     -40.289  51.999 -55.438  1.00  0.00     0.168 HD
ENDROOT
BRANCH   2   5
HETATM    5  N   UNL     1     -39.438  52.109 -52.335  1.00  0.00    -0.199 NA
HETATM    6  C   UNL     1     -39.977  51.855 -51.076  1.00  0.00     0.261 C 
HETATM    7  O   UNL     1     -40.011  50.755 -50.536  1.00  0.00    -0.271 OA
HETATM    8  H   UNL     1     -39.220  53.095 -52.446  1.00  0.00     0.139 HD
BRANCH   6   9
HETATM    9  C   UNL     1     -40.357  53.061 -50.364  1.00  0.00     0.138 A 
HETATM   10  O   UNL     1     -41.078  54.029 -51.012  1.00  0.00    -0.305 OA
HETATM   11  C   UNL     1     -41.377  55.005 -50.097  1.00  0.00     0.088 A 
HETATM   12  C   UNL     1     -40.776  54.697 -48.893  1.00  0.00     0.041 A 
HETATM   13  C   UNL     1     -40.144  53.444 -49.056  1.00  0.00     0.045 A 
BRANCH  11  14
HETATM   14  C   UNL     1     -42.233  56.091 -50.577  1.00  0.00     0.020 A 
HETATM   15  C   UNL     1     -43.623  55.955 -50.770  1.00  0.00     0.048 A 
HETATM   16 CL   UNL     1     -44.468  54.463 -50.522  1.00  0.00    -0.083 Cl
HETATM   17  C   UNL     1     -44.394  57.032 -51.224  1.00  0.00     0.048 A 
HETATM   18  C   UNL     1     -43.789  58.253 -51.499  1.00  0.00     0.035 A 
HETATM   19 CL   UNL     1     -44.739  59.571 -52.061  1.00  0.00    -0.084 Cl
HETATM   20  C   UNL     1     -42.418  58.410 -51.327  1.00  0.00     0.025 A 
HETATM   21  C   UNL     1     -41.647  57.336 -50.870  1.00  0.00     0.017 A 
ENDBRANCH  11  14
ENDBRANCH   6   9
ENDBRANCH   2   5
BRANCH   1  22
HETATM   22  C   UNL     1     -40.890  53.746 -54.563  1.00  0.00     0.034 A 
HETATM   23  C   UNL     1     -40.179  54.942 -54.576  1.00  0.00     0.032 A 
HETATM   24  C   UNL     1     -40.855  56.173 -54.593  1.00  0.00     0.031 A 
HETATM   25  C   UNL     1     -42.253  56.244 -54.602  1.00  0.00     0.030 A 
HETATM   26  C   UNL     1     -42.947  55.026 -54.515  1.00  0.00     0.031 A 
HETATM   27  C   UNL     1     -42.280  53.797 -54.483  1.00  0.00     0.032 A 
BRANCH  25  28
HETATM   28  N   UNL     1     -42.974  57.436 -54.670  1.00  0.00    -0.378 N 
HETATM   29  C   UNL     1     -44.341  57.334 -55.222  1.00  0.00     0.150 C 
HETATM   30  C   UNL     1     -44.359  57.691 -56.724  1.00  0.00     0.254 C 
HETATM   31  N   UNL     1     -43.760  59.087 -56.941  1.00  0.00    -0.068 N 
HETATM   32  H   UNL     1     -44.304  59.743 -56.364  1.00  0.00     0.280 HD
HETATM   33  C   UNL     1     -42.324  59.119 -56.401  1.00  0.00     0.254 C 
HETATM   34  C   UNL     1     -42.292  58.716 -54.912  1.00  0.00     0.150 C 
BRANCH  31  35
HETATM   35  C   UNL     1     -43.820  59.560 -58.372  1.00  0.00     0.230 C 
HETATM   36  C   UNL     1     -42.472  59.400 -59.051  1.00  0.00     0.034 C 
ENDBRANCH  31  35
ENDBRANCH  25  28
ENDBRANCH   1  22
TORSDOF 6
ENDMDL
MODEL 2
REMARK VINA RESULT:      -7.9      3.740      5.979
REMARK  6 active torsions:
REMARK  status: ('A' for Active; 'I' for Inactive)
REMARK    1  A    between atoms: C_2  and  N_3 
REMARK    2  A    between atoms: N_7  and  C_8 
REMARK    3  A    between atoms: C_11  and  N_12 
REMARK    4  A    between atoms: C_13  and  N_14 
REMARK       I    between atoms: N_14  and  C_15 
REMARK    5  A    between atoms: C_15  and  C_16 
REMARK    6  A    between atoms: C_18  and  C_19 
ROOT
HETATM    1  N   UNL     1     -43.823  60.160 -52.423  1.00  0.00    -0.338 N 
HETATM    2  C   UNL     1     -43.284  60.124 -51.189  1.00  0.00     0.157 C 
HETATM    3  S   UNL     1     -43.328  61.523 -50.268  1.00  0.00    -0.047 SA
HETATM    4  H   UNL     1     -44.438  60.957 -52.560  1.00  0.00     0.168 HD
ENDROOT
BRANCH   2   5
HETATM    5  N   UNL     1     -42.805  58.999 -50.594  1.00  0.00    -0.199 NA
HETATM    6  C   UNL     1     -41.819  58.158 -51.104  1.00  0.00     0.261 C 
HETATM    7  O   UNL     1     -40.639  58.463 -51.241  1.00  0.00    -0.271 OA
HETATM    8  H   UNL     1     -43.606  58.466 -50.268  1.00  0.00     0.139 HD
BRANCH   6   9
HETATM    9  C   UNL     1     -42.281  56.798 -51.311  1.00  0.00     0.138 A 
HETATM   10  O   UNL     1     -41.465  55.896 -51.941  1.00  0.00    -0.305 OA
HETATM   11  C   UNL     1     -42.100  54.681 -51.924  1.00  0.00     0.088 A 
HETATM   12  C   UNL     1     -43.352  54.831 -51.360  1.00  0.00     0.041 A 
HETATM   13  C   UNL     1     -43.458  56.179 -50.946  1.00  0.00     0.045 A 
BRANCH  11  14
HETATM   14  C   UNL     1     -41.342  53.556 -52.470  1.00  0.00     0.020 A 
HETATM   15  C   UNL     1     -40.375  52.842 -51.733  1.00  0.00     0.048 A 
HETATM   16 CL   UNL     1     -39.929  53.259 -50.112  1.00  0.00    -0.083 Cl
HETATM   17  C   UNL     1     -39.685  51.765 -52.305  1.00  0.00     0.048 A 
HETATM   18  C   UNL     1     -39.943  51.395 -53.620  1.00  0.00     0.035 A 
HETATM   19 CL   UNL     1     -39.089  50.077 -54.320  1.00  0.00    -0.084 Cl
HETATM   20  C   UNL     1     -40.883  52.090 -54.372  1.00  0.00     0.025 A 
HETATM   21  C   UNL     1     -41.576  53.162 -53.801  1.00  0.00     0.017 A 
ENDBRANCH  11  14
ENDBRANCH   6   9
ENDBRANCH   2   5
BRANCH   1  22
HETATM   22  C   UNL     1     -43.512  59.460 -53.601  1.00  0.00     0.034 A 
HETATM   23  C   UNL     1     -44.187  58.324 -54.034  1.00  0.00     0.032 A 
HETATM   24  C   UNL     1     -43.808  57.680 -55.223  1.00  0.00     0.031 A 
HETATM   25  C   UNL     1     -42.753  58.154 -56.012  1.00  0.00     0.030 A 
HETATM   26  C   UNL     1     -42.041  59.258 -55.515  1.00  0.00     0.031 A 
HETATM   27  C   UNL     1     -42.404  59.895 -54.325  1.00  0.00     0.032 A 
BRANCH  25  28
HETATM   28  N   UNL     1     -42.368  57.583 -57.225  1.00  0.00    -0.378 N 
HETATM   29  C   UNL     1     -42.409  58.478 -58.401  1.00  0.00     0.150 C 
HETATM   30  C   UNL     1     -43.730  58.304 -59.183  1.00  0.00     0.254 C 
HETATM   31  N   UNL     1     -43.917  56.833 -59.579  1.00  0.00    -0.068 N 
HETATM   32  H   UNL     1     -43.088  56.558 -60.122  1.00  0.00     0.280 HD
HETATM   33  C   UNL     1     -43.923  55.958 -58.317  1.00  0.00     0.254 C 
HETATM   34  C   UNL     1     -42.626  56.164 -57.506  1.00  0.00     0.150 C 
BRANCH  31  35
HETATM   35  C   UNL     1     -45.138  56.582 -60.427  1.00  0.00     0.230 C 
HETATM   36  C   UNL     1     -45.070  55.214 -61.082  1.00  0.00     0.034 C 
ENDBRANCH  31  35
ENDBRANCH  25  28
ENDBRANCH   1  22
TORSDOF 6
ENDMDL
MODEL 3
REMARK VINA RESULT:      -7.9      3.812      6.178
REMARK  6 active torsions:
REMARK  status: ('A' for Active; 'I' for Inactive)
REMARK    1  A    between atoms: C_2  and  N_3 
REMARK    2  A    between atoms: N_7  and  C_8 
REMARK    3  A    between atoms: C_11  and  N_12 
REMARK    4  A    between atoms: C_13  and  N_14 
REMARK       I    between atoms: N_14  and  C_15 
REMARK    5  A    between atoms: C_15  and  C_16 
REMARK    6  A    between atoms: C_18  and  C_19 
ROOT
HETATM    1  N   UNL     1     -45.282  59.169 -52.628  1.00  0.00    -0.338 N 
HETATM    2  C   UNL     1     -44.628  59.128 -51.451  1.00  0.00     0.157 C 
HETATM    3  S   UNL     1     -45.128  60.165 -50.233  1.00  0.00    -0.047 SA
HETATM    4  H   UNL     1     -46.182  59.638 -52.561  1.00  0.00     0.168 HD
ENDROOT
BRANCH   2   5
HETATM    5  N   UNL     1     -43.661  58.223 -51.143  1.00  0.00    -0.199 NA
HETATM    6  C   UNL     1     -42.299  58.361 -51.397  1.00  0.00     0.261 C 
HETATM    7  O   UNL     1     -41.563  59.177 -50.853  1.00  0.00    -0.271 OA
HETATM    8  H   UNL     1     -43.997  57.311 -51.439  1.00  0.00     0.139 HD
BRANCH   6   9
HETATM    9  C   UNL     1     -41.771  57.321 -52.260  1.00  0.00     0.138 A 
HETATM   10  O   UNL     1     -41.352  56.137 -51.714  1.00  0.00    -0.305 OA
HETATM   11  C   UNL     1     -40.992  55.309 -52.745  1.00  0.00     0.088 A 
HETATM   12  C   UNL     1     -41.101  55.996 -53.938  1.00  0.00     0.041 A 
HETATM   13  C   UNL     1     -41.622  57.274 -53.631  1.00  0.00     0.045 A 
BRANCH  11  14
HETATM   14  C   UNL     1     -40.603  53.950 -52.368  1.00  0.00     0.020 A 
HETATM   15  C   UNL     1     -40.231  52.962 -53.303  1.00  0.00     0.048 A 
HETATM   16 CL   UNL     1     -40.256  53.228 -55.015  1.00  0.00    -0.083 Cl
HETATM   17  C   UNL     1     -39.859  51.678 -52.884  1.00  0.00     0.048 A 
HETATM   18  C   UNL     1     -39.861  51.362 -51.530  1.00  0.00     0.035 A 
HETATM   19 CL   UNL     1     -39.409  49.784 -51.021  1.00  0.00    -0.084 Cl
HETATM   20  C   UNL     1     -40.235  52.314 -50.588  1.00  0.00     0.025 A 
HETATM   21  C   UNL     1     -40.603  53.598 -51.005  1.00  0.00     0.017 A 
ENDBRANCH  11  14
ENDBRANCH   6   9
ENDBRANCH   2   5
BRANCH   1  22
HETATM   22  C   UNL     1     -44.860  58.915 -53.943  1.00  0.00     0.034 A 
HETATM   23  C   UNL     1     -45.072  57.713 -54.611  1.00  0.00     0.032 A 
HETATM   24  C   UNL     1     -44.611  57.537 -55.926  1.00  0.00     0.031 A 
HETATM   25  C   UNL     1     -43.934  58.555 -56.609  1.00  0.00     0.030 A 
HETATM   26  C   UNL     1     -43.668  59.730 -55.888  1.00  0.00     0.031 A 
HETATM   27  C   UNL     1     -44.111  59.906 -54.574  1.00  0.00     0.032 A 
BRANCH  25  28
HETATM   28  N   UNL     1     -43.500  58.451 -57.931  1.00  0.00    -0.378 N 
HETATM   29  C   UNL     1     -44.511  58.748 -58.967  1.00  0.00     0.150 C 
HETATM   30  C   UNL     1     -45.166  57.450 -59.489  1.00  0.00     0.254 C 
HETATM   31  N   UNL     1     -44.088  56.487 -60.004  1.00  0.00    -0.068 N 
HETATM   32  H   UNL     1     -43.554  56.988 -60.727  1.00  0.00     0.280 HD
HETATM   33  C   UNL     1     -43.099  56.170 -58.873  1.00  0.00     0.254 C 
HETATM   34  C   UNL     1     -42.477  57.467 -58.314  1.00  0.00     0.150 C 
BRANCH  31  35
HETATM   35  C   UNL     1     -44.641  55.227 -60.619  1.00  0.00     0.230 C 
HETATM   36  C   UNL     1     -44.734  54.117 -59.588  1.00  0.00     0.034 C 
ENDBRANCH  31  35
ENDBRANCH  25  28
ENDBRANCH   1  22
TORSDOF 6
ENDMDL
MODEL 4
REMARK VINA RESULT:      -7.8      3.676      5.893
REMARK  6 active torsions:
REMARK  status: ('A' for Active; 'I' for Inactive)
REMARK    1  A    between atoms: C_2  and  N_3 
REMARK    2  A    between atoms: N_7  and  C_8 
REMARK    3  A    between atoms: C_11  and  N_12 
REMARK    4  A    between atoms: C_13  and  N_14 
REMARK       I    between atoms: N_14  and  C_15 
REMARK    5  A    between atoms: C_15  and  C_16 
REMARK    6  A    between atoms: C_18  and  C_19 
ROOT
HETATM    1  N   UNL     1     -44.002  60.023 -52.095  1.00  0.00    -0.338 N 
HETATM    2  C   UNL     1     -43.075  60.066 -51.119  1.00  0.00     0.157 C 
HETATM    3  S   UNL     1     -42.900  61.494 -50.259  1.00  0.00    -0.047 SA
HETATM    4  H   UNL     1     -44.682  60.776 -52.025  1.00  0.00     0.168 HD
ENDROOT
BRANCH   2   5
HETATM    5  N   UNL     1     -42.344  58.996 -50.708  1.00  0.00    -0.199 NA
HETATM    6  C   UNL     1     -41.575  58.167 -51.520  1.00  0.00     0.261 C 
HETATM    7  O   UNL     1     -40.552  58.509 -52.104  1.00  0.00    -0.271 OA
HETATM    8  H   UNL     1     -42.933  58.451 -50.084  1.00  0.00     0.139 HD
BRANCH   6   9
HETATM    9  C   UNL     1     -42.002  56.780 -51.488  1.00  0.00     0.138 A 
HETATM   10  O   UNL     1     -41.323  55.846 -52.225  1.00  0.00    -0.305 OA
HETATM   11  C   UNL     1     -41.870  54.621 -51.945  1.00  0.00     0.088 A 
HETATM   12  C   UNL     1     -42.948  54.788 -51.098  1.00  0.00     0.041 A 
HETATM   13  C   UNL     1     -43.018  56.165 -50.786  1.00  0.00     0.045 A 
BRANCH  11  14
HETATM   14  C   UNL     1     -41.214  53.471 -52.567  1.00  0.00     0.020 A 
HETATM   15  C   UNL     1     -41.441  53.078 -53.902  1.00  0.00     0.048 A 
HETATM   16 CL   UNL     1     -42.574  53.877 -54.941  1.00  0.00    -0.083 Cl
HETATM   17  C   UNL     1     -40.777  51.972 -54.449  1.00  0.00     0.048 A 
HETATM   18  C   UNL     1     -39.888  51.241 -53.670  1.00  0.00     0.035 A 
HETATM   19 CL   UNL     1     -39.080  49.881 -54.343  1.00  0.00    -0.084 Cl
HETATM   20  C   UNL     1     -39.655  51.600 -52.347  1.00  0.00     0.025 A 
HETATM   21  C   UNL     1     -40.315  52.707 -51.801  1.00  0.00     0.017 A 
ENDBRANCH  11  14
ENDBRANCH   6   9
ENDBRANCH   2   5
BRANCH   1  22
HETATM   22  C   UNL     1     -44.062  59.301 -53.298  1.00  0.00     0.034 A 
HETATM   23  C   UNL     1     -44.766  58.112 -53.459  1.00  0.00     0.032 A 
HETATM   24  C   UNL     1     -44.770  57.447 -54.696  1.00  0.00     0.031 A 
HETATM   25  C   UNL     1     -44.079  57.953 -55.804  1.00  0.00     0.030 A 
HETATM   26  C   UNL     1     -43.318  59.115 -55.596  1.00  0.00     0.031 A 
HETATM   27  C   UNL     1     -43.298  59.773 -54.362  1.00  0.00     0.032 A 
BRANCH  25  28
HETATM   28  N   UNL     1     -44.091  57.362 -57.067  1.00  0.00    -0.378 N 
HETATM   29  C   UNL     1     -42.793  56.847 -57.551  1.00  0.00     0.150 C 
HETATM   30  C   UNL     1     -42.095  57.876 -58.466  1.00  0.00     0.254 C 
HETATM   31  N   UNL     1     -43.023  58.262 -59.627  1.00  0.00    -0.068 N 
HETATM   32  H   UNL     1     -43.274  57.393 -60.116  1.00  0.00     0.280 HD
HETATM   33  C   UNL     1     -44.330  58.842 -59.068  1.00  0.00     0.254 C 
HETATM   34  C   UNL     1     -45.008  57.837 -58.114  1.00  0.00     0.150 C 
BRANCH  31  35
HETATM   35  C   UNL     1     -42.391  59.197 -60.627  1.00  0.00     0.230 C 
HETATM   36  C   UNL     1     -41.942  60.483 -59.957  1.00  0.00     0.034 C 
ENDBRANCH  31  35
ENDBRANCH  25  28
ENDBRANCH   1  22
TORSDOF 6
ENDMDL
MODEL 5
REMARK VINA RESULT:      -7.7      3.394      6.104
REMARK  6 active torsions:
REMARK  status: ('A' for Active; 'I' for Inactive)
REMARK    1  A    between atoms: C_2  and  N_3 
REMARK    2  A    between atoms: N_7  and  C_8 
REMARK    3  A    between atoms: C_11  and  N_12 
REMARK    4  A    between atoms: C_13  and  N_14 
REMARK       I    between atoms: N_14  and  C_15 
REMARK    5  A    between atoms: C_15  and  C_16 
REMARK    6  A    between atoms: C_18  and  C_19 
ROOT
HETATM    1  N   UNL     1     -43.414  60.037 -53.713  1.00  0.00    -0.338 N 
HETATM    2  C   UNL     1     -42.898  59.309 -52.704  1.00  0.00     0.157 C 
HETATM    3  S   UNL     1     -42.159  60.125 -51.439  1.00  0.00    -0.047 SA
HETATM    4  H   UNL     1     -43.536  61.016 -53.469  1.00  0.00     0.168 HD
ENDROOT
BRANCH   2   5
HETATM    5  N   UNL     1     -43.033  57.962 -52.583  1.00  0.00    -0.199 NA
HETATM    6  C   UNL     1     -43.308  57.268 -51.407  1.00  0.00     0.261 C 
HETATM    7  O   UNL     1     -44.365  57.325 -50.789  1.00  0.00    -0.271 OA
HETATM    8  H   UNL     1     -42.261  57.535 -53.087  1.00  0.00     0.139 HD
BRANCH   6   9
HETATM    9  C   UNL     1     -42.271  56.316 -51.052  1.00  0.00     0.138 A 
HETATM   10  O   UNL     1     -42.066  55.215 -51.841  1.00  0.00    -0.305 OA
HETATM   11  C   UNL     1     -40.985  54.540 -51.337  1.00  0.00     0.088 A 
HETATM   12  C   UNL     1     -40.557  55.166 -50.183  1.00  0.00     0.041 A 
HETATM   13  C   UNL     1     -41.364  56.314 -50.013  1.00  0.00     0.045 A 
BRANCH  11  14
HETATM   14  C   UNL     1     -40.543  53.375 -52.105  1.00  0.00     0.020 A 
HETATM   15  C   UNL     1     -40.621  53.299 -53.510  1.00  0.00     0.048 A 
HETATM   16 CL   UNL     1     -41.309  54.554 -54.486  1.00  0.00    -0.083 Cl
HETATM   17  C   UNL     1     -40.175  52.160 -54.194  1.00  0.00     0.048 A 
HETATM   18  C   UNL     1     -39.656  51.083 -53.485  1.00  0.00     0.035 A 
HETATM   19 CL   UNL     1     -39.115  49.686 -54.328  1.00  0.00    -0.084 Cl
HETATM   20  C   UNL     1     -39.579  51.128 -52.098  1.00  0.00     0.025 A 
HETATM   21  C   UNL     1     -40.021  52.266 -51.413  1.00  0.00     0.017 A 
ENDBRANCH  11  14
ENDBRANCH   6   9
ENDBRANCH   2   5
BRANCH   1  22
HETATM   22  C   UNL     1     -43.578  59.758 -55.079  1.00  0.00     0.034 A 
HETATM   23  C   UNL     1     -44.808  59.519 -55.684  1.00  0.00     0.032 A 
HETATM   24  C   UNL     1     -44.885  59.241 -57.059  1.00  0.00     0.031 A 
HETATM   25  C   UNL     1     -43.741  59.199 -57.865  1.00  0.00     0.030 A 
HETATM   26  C   UNL     1     -42.507  59.370 -57.217  1.00  0.00     0.031 A 
HETATM   27  C   UNL     1     -42.422  59.633 -55.847  1.00  0.00     0.032 A 
BRANCH  25  28
HETATM   28  N   UNL     1     -43.765  58.977 -59.242  1.00  0.00    -0.378 N 
HETATM   29  C   UNL     1     -45.104  58.935 -59.865  1.00  0.00     0.150 C 
HETATM   30  C   UNL     1     -45.600  57.480 -60.014  1.00  0.00     0.254 C 
HETATM   31  N   UNL     1     -44.577  56.654 -60.806  1.00  0.00    -0.068 N 
HETATM   32  H   UNL     1     -44.439  57.127 -61.709  1.00  0.00     0.280 HD
HETATM   33  C   UNL     1     -43.222  56.686 -60.084  1.00  0.00     0.254 C 
HETATM   34  C   UNL     1     -42.744  58.140 -59.889  1.00  0.00     0.150 C 
BRANCH  31  35
HETATM   35  C   UNL     1     -45.019  55.239 -61.081  1.00  0.00     0.230 C 
HETATM   36  C   UNL     1     -44.779  54.353 -59.872  1.00  0.00     0.034 C 
ENDBRANCH  31  35
ENDBRANCH  25  28
ENDBRANCH   1  22
TORSDOF 6
ENDMDL
MODEL 6
REMARK VINA RESULT:      -7.3      3.590      6.758
REMARK  6 active torsions:
REMARK  status: ('A' for Active; 'I' for Inactive)
REMARK    1  A    between atoms: C_2  and  N_3 
REMARK    2  A    between atoms: N_7  and  C_8 
REMARK    3  A    between atoms: C_11  and  N_12 
REMARK    4  A    between atoms: C_13  and  N_14 
REMARK       I    between atoms: N_14  and  C_15 
REMARK    5  A    between atoms: C_15  and  C_16 
REMARK    6  A    between atoms: C_18  and  C_19 
ROOT
HETATM    1  N   UNL     1     -44.593  58.474 -57.945  1.00  0.00    -0.338 N 
HETATM    2  C   UNL     1     -44.275  57.331 -58.581  1.00  0.00     0.157 C 
HETATM    3  S   UNL     1     -45.170  56.904 -59.932  1.00  0.00    -0.047 SA
HETATM    4  H   UNL     1     -45.170  59.092 -58.510  1.00  0.00     0.168 HD
ENDROOT
BRANCH   2   5
HETATM    5  N   UNL     1     -43.204  56.553 -58.271  1.00  0.00    -0.199 NA
HETATM    6  C   UNL     1     -43.226  55.402 -57.487  1.00  0.00     0.261 C 
HETATM    7  O   UNL     1     -43.768  54.349 -57.803  1.00  0.00    -0.271 OA
HETATM    8  H   UNL     1     -42.453  57.175 -57.985  1.00  0.00     0.139 HD
BRANCH   6   9
HETATM    9  C   UNL     1     -42.390  55.501 -56.305  1.00  0.00     0.138 A 
HETATM   10  O   UNL     1     -42.107  54.373 -55.582  1.00  0.00    -0.305 OA
HETATM   11  C   UNL     1     -41.237  54.728 -54.584  1.00  0.00     0.088 A 
HETATM   12  C   UNL     1     -41.035  56.094 -54.623  1.00  0.00     0.041 A 
HETATM   13  C   UNL     1     -41.753  56.584 -55.737  1.00  0.00     0.045 A 
BRANCH  11  14
HETATM   14  C   UNL     1     -40.735  53.633 -53.753  1.00  0.00     0.020 A 
HETATM   15  C   UNL     1     -40.615  53.717 -52.351  1.00  0.00     0.048 A 
HETATM   16 CL   UNL     1     -40.988  55.153 -51.457  1.00  0.00    -0.083 Cl
HETATM   17  C   UNL     1     -40.136  52.633 -51.604  1.00  0.00     0.048 A 
HETATM   18  C   UNL     1     -39.763  51.458 -52.246  1.00  0.00     0.035 A 
HETATM   19 CL   UNL     1     -39.171  50.132 -51.326  1.00  0.00    -0.084 Cl
HETATM   20  C   UNL     1     -39.861  51.353 -53.629  1.00  0.00     0.025 A 
HETATM   21  C   UNL     1     -40.343  52.434 -54.376  1.00  0.00     0.017 A 
ENDBRANCH  11  14
ENDBRANCH   6   9
ENDBRANCH   2   5
BRANCH   1  22
HETATM   22  C   UNL     1     -44.488  58.855 -56.597  1.00  0.00     0.034 A 
HETATM   23  C   UNL     1     -43.710  59.915 -56.144  1.00  0.00     0.032 A 
HETATM   24  C   UNL     1     -43.655  60.227 -54.776  1.00  0.00     0.031 A 
HETATM   25  C   UNL     1     -44.379  59.495 -53.826  1.00  0.00     0.030 A 
HETATM   26  C   UNL     1     -45.099  58.386 -54.300  1.00  0.00     0.031 A 
HETATM   27  C   UNL     1     -45.145  58.061 -55.658  1.00  0.00     0.032 A 
BRANCH  25  28
HETATM   28  N   UNL     1     -44.401  59.793 -52.464  1.00  0.00    -0.378 N 
HETATM   29  C   UNL     1     -43.666  61.009 -52.057  1.00  0.00     0.150 C 
HETATM   30  C   UNL     1     -42.246  60.658 -51.562  1.00  0.00     0.254 C 
HETATM   31  N   UNL     1     -42.324  59.632 -50.423  1.00  0.00    -0.068 N 
HETATM   32  H   UNL     1     -42.918  60.040 -49.688  1.00  0.00     0.280 HD
HETATM   33  C   UNL     1     -43.046  58.371 -50.917  1.00  0.00     0.254 C 
HETATM   34  C   UNL     1     -44.447  58.721 -51.458  1.00  0.00     0.150 C 
BRANCH  31  35
HETATM   35  C   UNL     1     -40.987  59.297 -49.812  1.00  0.00     0.230 C 
HETATM   36  C   UNL     1     -39.921  59.165 -50.884  1.00  0.00     0.034 C 
ENDBRANCH  31  35
ENDBRANCH  25  28
ENDBRANCH   1  22
TORSDOF 6
ENDMDL
MODEL 7
REMARK VINA RESULT:      -7.3      3.644      6.426
REMARK  6 active torsions:
REMARK  status: ('A' for Active; 'I' for Inactive)
REMARK    1  A    between atoms: C_2  and  N_3 
REMARK    2  A    between atoms: N_7  and  C_8 
REMARK    3  A    between atoms: C_11  and  N_12 
REMARK    4  A    between atoms: C_13  and  N_14 
REMARK       I    between atoms: N_14  and  C_15 
REMARK    5  A    between atoms: C_15  and  C_16 
REMARK    6  A    between atoms: C_18  and  C_19 
ROOT
HETATM    1  N   UNL     1     -44.319  59.569 -53.414  1.00  0.00    -0.338 N 
HETATM    2  C   UNL     1     -43.358  59.588 -52.470  1.00  0.00     0.157 C 
HETATM    3  S   UNL     1     -43.505  60.692 -51.217  1.00  0.00    -0.047 SA
HETATM    4  H   UNL     1     -45.168  60.045 -53.121  1.00  0.00     0.168 HD
ENDROOT
BRANCH   2   5
HETATM    5  N   UNL     1     -42.334  58.697 -52.400  1.00  0.00    -0.199 NA
HETATM    6  C   UNL     1     -41.343  58.511 -53.361  1.00  0.00     0.261 C 
HETATM    7  O   UNL     1     -40.475  59.329 -53.642  1.00  0.00    -0.271 OA
HETATM    8  H   UNL     1     -42.727  57.808 -52.105  1.00  0.00     0.139 HD
BRANCH   6   9
HETATM    9  C   UNL     1     -41.320  57.164 -53.903  1.00  0.00     0.138 A 
HETATM   10  O   UNL     1     -40.791  56.145 -53.157  1.00  0.00    -0.305 OA
HETATM   11  C   UNL     1     -40.976  54.981 -53.857  1.00  0.00     0.088 A 
HETATM   12  C   UNL     1     -41.544  55.273 -55.081  1.00  0.00     0.041 A 
HETATM   13  C   UNL     1     -41.787  56.665 -55.101  1.00  0.00     0.045 A 
BRANCH  11  14
HETATM   14  C   UNL     1     -40.560  53.754 -53.177  1.00  0.00     0.020 A 
HETATM   15  C   UNL     1     -40.504  53.625 -51.775  1.00  0.00     0.048 A 
HETATM   16 CL   UNL     1     -40.862  54.930 -50.693  1.00  0.00    -0.083 Cl
HETATM   17  C   UNL     1     -40.106  52.422 -51.178  1.00  0.00     0.048 A 
HETATM   18  C   UNL     1     -39.750  51.337 -51.972  1.00  0.00     0.035 A 
HETATM   19 CL   UNL     1     -39.257  49.864 -51.235  1.00  0.00    -0.084 Cl
HETATM   20  C   UNL     1     -39.785  51.441 -53.357  1.00  0.00     0.025 A 
HETATM   21  C   UNL     1     -40.186  52.641 -53.955  1.00  0.00     0.017 A 
ENDBRANCH  11  14
ENDBRANCH   6   9
ENDBRANCH   2   5
BRANCH   1  22
HETATM   22  C   UNL     1     -44.282  59.242 -54.779  1.00  0.00     0.034 A 
HETATM   23  C   UNL     1     -43.607  59.986 -55.741  1.00  0.00     0.032 A 
HETATM   24  C   UNL     1     -43.625  59.592 -57.090  1.00  0.00     0.031 A 
HETATM   25  C   UNL     1     -44.311  58.446 -57.511  1.00  0.00     0.030 A 
HETATM   26  C   UNL     1     -45.045  57.755 -56.533  1.00  0.00     0.031 A 
HETATM   27  C   UNL     1     -45.043  58.150 -55.193  1.00  0.00     0.032 A 
BRANCH  25  28
HETATM   28  N   UNL     1     -44.320  57.983 -58.827  1.00  0.00    -0.378 N 
HETATM   29  C   UNL     1     -44.358  59.022 -59.877  1.00  0.00     0.150 C 
HETATM   30  C   UNL     1     -45.803  59.266 -60.363  1.00  0.00     0.254 C 
HETATM   31  N   UNL     1     -46.426  57.948 -60.843  1.00  0.00    -0.068 N 
HETATM   32  H   UNL     1     -45.812  57.572 -61.578  1.00  0.00     0.280 HD
HETATM   33  C   UNL     1     -46.412  56.926 -59.698  1.00  0.00     0.254 C 
HETATM   34  C   UNL     1     -44.976  56.714 -59.175  1.00  0.00     0.150 C 
BRANCH  31  35
HETATM   35  C   UNL     1     -47.809  58.104 -61.423  1.00  0.00     0.230 C 
HETATM   36  C   UNL     1     -48.270  56.815 -62.079  1.00  0.00     0.034 C 
ENDBRANCH  31  35
ENDBRANCH  25  28
ENDBRANCH   1  22
TORSDOF 6
ENDMDL
MODEL 8
REMARK VINA RESULT:      -7.1      3.599      6.898
REMARK  6 active torsions:
REMARK  status: ('A' for Active; 'I' for Inactive)
REMARK    1  A    between atoms: C_2  and  N_3 
REMARK    2  A    between atoms: N_7  and  C_8 
REMARK    3  A    between atoms: C_11  and  N_12 
REMARK    4  A    between atoms: C_13  and  N_14 
REMARK       I    between atoms: N_14  and  C_15 
REMARK    5  A    between atoms: C_15  and  C_16 
REMARK    6  A    between atoms: C_18  and  C_19 
ROOT
HETATM    1  N   UNL     1     -44.300  57.504 -56.824  1.00  0.00    -0.338 N 
HETATM    2  C   UNL     1     -43.866  58.724 -57.195  1.00  0.00     0.157 C 
HETATM    3  S   UNL     1     -43.908  59.114 -58.825  1.00  0.00    -0.047 SA
HETATM    4  H   UNL     1     -44.858  57.050 -57.542  1.00  0.00     0.168 HD
ENDROOT
BRANCH   2   5
HETATM    5  N   UNL     1     -43.499  59.704 -56.328  1.00  0.00    -0.199 NA
HETATM    6  C   UNL     1     -42.198  59.998 -55.925  1.00  0.00     0.261 C 
HETATM    7  O   UNL     1     -41.326  60.459 -56.653  1.00  0.00    -0.271 OA
HETATM    8  H   UNL     1     -44.124  59.649 -55.529  1.00  0.00     0.139 HD
BRANCH   6   9
HETATM    9  C   UNL     1     -42.001  59.866 -54.493  1.00  0.00     0.138 A 
HETATM   10  O   UNL     1     -42.771  60.604 -53.634  1.00  0.00    -0.305 OA
HETATM   11  C   UNL     1     -42.446  60.225 -52.358  1.00  0.00     0.088 A 
HETATM   12  C   UNL     1     -41.413  59.311 -52.405  1.00  0.00     0.041 A 
HETATM   13  C   UNL     1     -41.144  59.063 -53.770  1.00  0.00     0.045 A 
BRANCH  11  14
HETATM   14  C   UNL     1     -43.236  60.837 -51.289  1.00  0.00     0.020 A 
HETATM   15  C   UNL     1     -44.310  60.186 -50.649  1.00  0.00     0.048 A 
HETATM   16 CL   UNL     1     -44.858  58.606 -51.100  1.00  0.00    -0.083 Cl
HETATM   17  C   UNL     1     -45.027  60.817 -49.624  1.00  0.00     0.048 A 
HETATM   18  C   UNL     1     -44.687  62.108 -49.233  1.00  0.00     0.035 A 
HETATM   19 CL   UNL     1     -45.573  62.881 -47.979  1.00  0.00    -0.084 Cl
HETATM   20  C   UNL     1     -43.640  62.777 -49.856  1.00  0.00     0.025 A 
HETATM   21  C   UNL     1     -42.921  62.146 -50.877  1.00  0.00     0.017 A 
ENDBRANCH  11  14
ENDBRANCH   6   9
ENDBRANCH   2   5
BRANCH   1  22
HETATM   22  C   UNL     1     -43.933  56.664 -55.760  1.00  0.00     0.034 A 
HETATM   23  C   UNL     1     -44.261  56.903 -54.429  1.00  0.00     0.032 A 
HETATM   24  C   UNL     1     -43.849  56.013 -53.423  1.00  0.00     0.031 A 
HETATM   25  C   UNL     1     -43.106  54.863 -53.717  1.00  0.00     0.030 A 
HETATM   26  C   UNL     1     -42.726  54.684 -55.058  1.00  0.00     0.031 A 
HETATM   27  C   UNL     1     -43.120  55.573 -56.062  1.00  0.00     0.032 A 
BRANCH  25  28
HETATM   28  N   UNL     1     -42.715  53.922 -52.765  1.00  0.00    -0.378 N 
HETATM   29  C   UNL     1     -43.519  53.887 -51.525  1.00  0.00     0.150 C 
HETATM   30  C   UNL     1     -42.853  54.720 -50.409  1.00  0.00     0.254 C 
HETATM   31  N   UNL     1     -41.418  54.230 -50.172  1.00  0.00    -0.068 N 
HETATM   32  H   UNL     1     -41.473  53.227 -49.948  1.00  0.00     0.280 HD
HETATM   33  C   UNL     1     -40.615  54.342 -51.475  1.00  0.00     0.254 C 
HETATM   34  C   UNL     1     -41.302  53.551 -52.608  1.00  0.00     0.150 C 
BRANCH  31  35
HETATM   35  C   UNL     1     -40.717  54.927 -49.033  1.00  0.00     0.230 C 
HETATM   36  C   UNL     1     -40.337  53.938 -47.945  1.00  0.00     0.034 C 
ENDBRANCH  31  35
ENDBRANCH  25  28
ENDBRANCH   1  22
TORSDOF 6
ENDMDL
MODEL 9
REMARK VINA RESULT:      -7.1      3.792      6.075
REMARK  6 active torsions:
REMARK  status: ('A' for Active; 'I' for Inactive)
REMARK    1  A    between atoms: C_2  and  N_3 
REMARK    2  A    between atoms: N_7  and  C_8 
REMARK    3  A    between atoms: C_11  and  N_12 
REMARK    4  A    between atoms: C_13  and  N_14 
REMARK       I    between atoms: N_14  and  C_15 
REMARK    5  A    between atoms: C_15  and  C_16 
REMARK    6  A    between atoms: C_18  and  C_19 
ROOT
HETATM    1  N   UNL     1     -44.491  59.935 -52.581  1.00  0.00    -0.338 N 
HETATM    2  C   UNL     1     -43.908  59.710 -51.387  1.00  0.00     0.157 C 
HETATM    3  S   UNL     1     -44.065  60.883 -50.199  1.00  0.00    -0.047 SA
HETATM    4  H   UNL     1     -45.190  60.672 -52.544  1.00  0.00     0.168 HD
ENDROOT
BRANCH   2   5
HETATM    5  N   UNL     1     -43.295  58.548 -51.040  1.00  0.00    -0.199 NA
HETATM    6  C   UNL     1     -41.927  58.293 -51.099  1.00  0.00     0.261 C 
HETATM    7  O   UNL     1     -41.082  58.829 -50.390  1.00  0.00    -0.271 OA
HETATM    8  H   UNL     1     -43.825  57.790 -51.461  1.00  0.00     0.139 HD
BRANCH   6   9
HETATM    9  C   UNL     1     -41.590  57.189 -51.978  1.00  0.00     0.138 A 
HETATM   10  O   UNL     1     -41.140  56.012 -51.443  1.00  0.00    -0.305 OA
HETATM   11  C   UNL     1     -40.984  55.121 -52.472  1.00  0.00     0.088 A 
HETATM   12  C   UNL     1     -41.254  55.758 -53.668  1.00  0.00     0.041 A 
HETATM   13  C   UNL     1     -41.664  57.072 -53.351  1.00  0.00     0.045 A 
BRANCH  11  14
HETATM   14  C   UNL     1     -40.598  53.762 -52.090  1.00  0.00     0.020 A 
HETATM   15  C   UNL     1     -40.165  52.790 -53.015  1.00  0.00     0.048 A 
HETATM   16 CL   UNL     1     -40.103  53.075 -54.723  1.00  0.00    -0.083 Cl
HETATM   17  C   UNL     1     -39.799  51.506 -52.591  1.00  0.00     0.048 A 
HETATM   18  C   UNL     1     -39.869  51.175 -51.242  1.00  0.00     0.035 A 
HETATM   19 CL   UNL     1     -39.424  49.596 -50.727  1.00  0.00    -0.084 Cl
HETATM   20  C   UNL     1     -40.303  52.111 -50.311  1.00  0.00     0.025 A 
HETATM   21  C   UNL     1     -40.666  53.395 -50.733  1.00  0.00     0.017 A 
ENDBRANCH  11  14
ENDBRANCH   6   9
ENDBRANCH   2   5
BRANCH   1  22
HETATM   22  C   UNL     1     -44.150  59.526 -53.880  1.00  0.00     0.034 A 
HETATM   23  C   UNL     1     -43.105  60.068 -54.619  1.00  0.00     0.032 A 
HETATM   24  C   UNL     1     -42.833  59.605 -55.918  1.00  0.00     0.031 A 
HETATM   25  C   UNL     1     -43.593  58.587 -56.508  1.00  0.00     0.030 A 
HETATM   26  C   UNL     1     -44.687  58.108 -55.770  1.00  0.00     0.031 A 
HETATM   27  C   UNL     1     -44.971  58.575 -54.484  1.00  0.00     0.032 A 
BRANCH  25  28
HETATM   28  N   UNL     1     -43.335  58.055 -57.772  1.00  0.00    -0.378 N 
HETATM   29  C   UNL     1     -42.138  58.580 -58.461  1.00  0.00     0.150 C 
HETATM   30  C   UNL     1     -42.514  59.712 -59.441  1.00  0.00     0.254 C 
HETATM   31  N   UNL     1     -43.573  59.217 -60.436  1.00  0.00    -0.068 N 
HETATM   32  H   UNL     1     -43.183  58.390 -60.906  1.00  0.00     0.280 HD
HETATM   33  C   UNL     1     -44.814  58.738 -59.669  1.00  0.00     0.254 C 
HETATM   34  C   UNL     1     -44.436  57.640 -58.653  1.00  0.00     0.150 C 
BRANCH  31  35
HETATM   35  C   UNL     1     -43.937  60.230 -61.492  1.00  0.00     0.230 C 
HETATM   36  C   UNL     1     -42.942  61.376 -61.508  1.00  0.00     0.034 C 
ENDBRANCH  31  35
ENDBRANCH  25  28
ENDBRANCH   1  22
TORSDOF 6
ENDMDL
MODEL 10
REMARK VINA RESULT:      -7.0      4.681      8.667
REMARK  6 active torsions:
REMARK  status: ('A' for Active; 'I' for Inactive)
REMARK    1  A    between atoms: C_2  and  N_3 
REMARK    2  A    between atoms: N_7  and  C_8 
REMARK    3  A    between atoms: C_11  and  N_12 
REMARK    4  A    between atoms: C_13  and  N_14 
REMARK       I    between atoms: N_14  and  C_15 
REMARK    5  A    between atoms: C_15  and  C_16 
REMARK    6  A    between atoms: C_18  and  C_19 
ROOT
HETATM    1  N   UNL     1     -42.704  60.999 -52.807  1.00  0.00    -0.338 N 
HETATM    2  C   UNL     1     -43.056  62.129 -53.450  1.00  0.00     0.157 C 
HETATM    3  S   UNL     1     -43.828  63.329 -52.570  1.00  0.00    -0.047 SA
HETATM    4  H   UNL     1     -42.705  61.104 -51.796  1.00  0.00     0.168 HD
ENDROOT
BRANCH   2   5
HETATM    5  N   UNL     1     -42.728  62.412 -54.738  1.00  0.00    -0.199 NA
HETATM    6  C   UNL     1     -43.513  62.154 -55.859  1.00  0.00     0.261 C 
HETATM    7  O   UNL     1     -44.575  62.710 -56.116  1.00  0.00    -0.271 OA
HETATM    8  H   UNL     1     -41.773  62.099 -54.882  1.00  0.00     0.139 HD
BRANCH   6   9
HETATM    9  C   UNL     1     -42.873  61.265 -56.812  1.00  0.00     0.138 A 
HETATM   10  O   UNL     1     -43.445  60.054 -57.096  1.00  0.00    -0.305 OA
HETATM   11  C   UNL     1     -42.695  59.462 -58.080  1.00  0.00     0.088 A 
HETATM   12  C   UNL     1     -41.602  60.259 -58.358  1.00  0.00     0.041 A 
HETATM   13  C   UNL     1     -41.728  61.422 -57.565  1.00  0.00     0.045 A 
BRANCH  11  14
HETATM   14  C   UNL     1     -43.204  58.190 -58.594  1.00  0.00     0.020 A 
HETATM   15  C   UNL     1     -43.947  58.078 -59.787  1.00  0.00     0.048 A 
HETATM   16 CL   UNL     1     -44.397  59.446 -60.750  1.00  0.00    -0.083 Cl
HETATM   17  C   UNL     1     -44.402  56.831 -60.236  1.00  0.00     0.048 A 
HETATM   18  C   UNL     1     -44.130  55.685 -59.497  1.00  0.00     0.035 A 
HETATM   19 CL   UNL     1     -44.695  54.159 -60.049  1.00  0.00    -0.084 Cl
HETATM   20  C   UNL     1     -43.410  55.770 -58.311  1.00  0.00     0.025 A 
HETATM   21  C   UNL     1     -42.951  57.014 -57.863  1.00  0.00     0.017 A 
ENDBRANCH  11  14
ENDBRANCH   6   9
ENDBRANCH   2   5
BRANCH   1  22
HETATM   22  C   UNL     1     -42.580  59.671 -53.249  1.00  0.00     0.034 A 
HETATM   23  C   UNL     1     -41.366  59.053 -53.530  1.00  0.00     0.032 A 
HETATM   24  C   UNL     1     -41.330  57.721 -53.974  1.00  0.00     0.031 A 
HETATM   25  C   UNL     1     -42.500  56.971 -54.143  1.00  0.00     0.030 A 
HETATM   26  C   UNL     1     -43.715  57.639 -53.922  1.00  0.00     0.031 A 
HETATM   27  C   UNL     1     -43.758  58.970 -53.495  1.00  0.00     0.032 A 
BRANCH  25  28
HETATM   28  N   UNL     1     -42.518  55.631 -54.531  1.00  0.00    -0.378 N 
HETATM   29  C   UNL     1     -43.239  54.708 -53.631  1.00  0.00     0.150 C 
HETATM   30  C   UNL     1     -42.264  54.009 -52.658  1.00  0.00     0.254 C 
HETATM   31  N   UNL     1     -41.160  53.291 -53.446  1.00  0.00    -0.068 N 
HETATM   32  H   UNL     1     -41.624  52.637 -54.090  1.00  0.00     0.280 HD
HETATM   33  C   UNL     1     -40.409  54.306 -54.319  1.00  0.00     0.254 C 
HETATM   34  C   UNL     1     -41.385  55.042 -55.260  1.00  0.00     0.150 C 
BRANCH  31  35
HETATM   35  C   UNL     1     -40.210  52.502 -52.580  1.00  0.00     0.230 C 
HETATM   36  C   UNL     1     -39.555  51.386 -53.373  1.00  0.00     0.034 C 
ENDBRANCH  31  35
ENDBRANCH  25  28
ENDBRANCH   1  22
TORSDOF 6
ENDMDL
