MODEL 1
REMARK VINA RESULT:      -8.4      0.000      0.000
REMARK  4 active torsions:
REMARK  status: ('A' for Active; 'I' for Inactive)
REMARK    1  A    between atoms: C_2  and  O_3 
REMARK    2  A    between atoms: O_3  and  C_4 
REMARK    3  A    between atoms: C_11  and  C_12 
REMARK    4  A    between atoms: C_16  and  N_17 
ROOT
HETATM    1  C   UNL     1     -43.507  58.060 -57.281  1.00  0.00     0.108 C 
HETATM    2  C   UNL     1     -42.883  59.430 -57.009  1.00  0.00     0.067 C 
HETATM    3  C   UNL     1     -43.660  60.369 -56.100  1.00  0.00     0.020 C 
HETATM    4  N   UNL     1     -44.303  61.148 -55.346  1.00  0.00    -0.096 N 
HETATM    5  C   UNL     1     -41.788  59.901 -57.667  1.00  0.00     0.139 C 
HETATM    6  O   UNL     1     -41.143  59.147 -58.667  1.00  0.00    -0.279 OA
HETATM    7  C   UNL     1     -41.767  58.039 -59.051  1.00  0.00     0.175 A 
HETATM    8  C   UNL     1     -42.874  57.455 -58.490  1.00  0.00     0.034 A 
HETATM    9  N   UNL     1     -41.416  57.277 -60.118  1.00  0.00    -0.256 N 
HETATM   10  H   UNL     1     -40.649  57.414 -60.767  1.00  0.00     0.191 HD
HETATM   11  N   UNL     1     -42.246  56.230 -60.302  1.00  0.00    -0.177 NA
HETATM   12  C   UNL     1     -43.151  56.341 -59.316  1.00  0.00     0.062 A 
HETATM   13  C   UNL     1     -44.255  55.357 -59.198  1.00  0.00     0.073 C 
ENDROOT
BRANCH   1  14
HETATM   14  C   UNL     1     -43.260  57.061 -56.167  1.00  0.00    -0.003 A 
HETATM   15  C   UNL     1     -44.129  56.896 -55.093  1.00  0.00     0.134 A 
HETATM   16  N   UNL     1     -43.979  55.982 -54.108  1.00  0.00    -0.235 NA
HETATM   17 CL   UNL     1     -45.554  57.838 -54.883  1.00  0.00    -0.062 Cl
HETATM   18  C   UNL     1     -42.920  55.160 -54.158  1.00  0.00     0.069 A 
HETATM   19  C   UNL     1     -41.960  55.239 -55.182  1.00  0.00    -0.004 A 
HETATM   20  C   UNL     1     -42.751  54.188 -53.182  1.00  0.00     0.035 A 
HETATM   21  C   UNL     1     -40.874  54.349 -55.206  1.00  0.00     0.050 A 
HETATM   22  C   UNL     1     -42.138  56.211 -56.175  1.00  0.00     0.025 A 
HETATM   23  C   UNL     1     -40.730  53.367 -54.225  1.00  0.00     0.069 A 
HETATM   24  C   UNL     1     -41.672  53.293 -53.205  1.00  0.00     0.039 A 
BRANCH  23  25
HETATM   25  O   UNL     1     -39.641  52.559 -54.383  1.00  0.00    -0.351 OA
BRANCH  25  26
HETATM   26  C   UNL     1     -39.558  51.408 -53.543  1.00  0.00     0.171 C 
HETATM   27  C   UNL     1     -39.851  50.187 -54.394  1.00  0.00     0.034 C 
ENDBRANCH  25  26
ENDBRANCH  23  25
ENDBRANCH   1  14
BRANCH   5  28
HETATM   28  N   UNL     1     -41.212  61.134 -57.477  1.00  0.00    -0.282 NA
HETATM   29  H   UNL     1     -40.400  61.344 -58.055  1.00  0.00     0.126 HD
HETATM   30  H   UNL     1     -41.896  61.886 -57.457  1.00  0.00     0.126 HD
ENDBRANCH   5  28
TORSDOF 4
ENDMDL
MODEL 2
REMARK VINA RESULT:      -7.8      2.014      2.726
REMARK  4 active torsions:
REMARK  status: ('A' for Active; 'I' for Inactive)
REMARK    1  A    between atoms: C_2  and  O_3 
REMARK    2  A    between atoms: O_3  and  C_4 
REMARK    3  A    between atoms: C_11  and  C_12 
REMARK    4  A    between atoms: C_16  and  N_17 
ROOT
HETATM    1  C   UNL     1     -44.082  58.621 -58.163  1.00  0.00     0.108 C 
HETATM    2  C   UNL     1     -42.793  58.792 -58.970  1.00  0.00     0.067 C 
HETATM    3  C   UNL     1     -41.871  59.927 -58.556  1.00  0.00     0.020 C 
HETATM    4  N   UNL     1     -41.105  60.868 -58.212  1.00  0.00    -0.096 N 
HETATM    5  C   UNL     1     -42.530  58.111 -60.119  1.00  0.00     0.139 C 
HETATM    6  O   UNL     1     -43.446  57.186 -60.659  1.00  0.00    -0.279 OA
HETATM    7  C   UNL     1     -44.643  57.152 -60.085  1.00  0.00     0.175 A 
HETATM    8  C   UNL     1     -45.048  57.787 -58.938  1.00  0.00     0.034 A 
HETATM    9  N   UNL     1     -45.718  56.475 -60.563  1.00  0.00    -0.256 N 
HETATM   10  H   UNL     1     -45.783  55.901 -61.396  1.00  0.00     0.191 HD
HETATM   11  N   UNL     1     -46.818  56.646 -59.801  1.00  0.00    -0.177 NA
HETATM   12  C   UNL     1     -46.418  57.460 -58.811  1.00  0.00     0.062 A 
HETATM   13  C   UNL     1     -47.376  57.892 -57.764  1.00  0.00     0.073 C 
ENDROOT
BRANCH   1  14
HETATM   14  C   UNL     1     -43.873  57.872 -56.860  1.00  0.00    -0.003 A 
HETATM   15  C   UNL     1     -44.365  58.327 -55.641  1.00  0.00     0.134 A 
HETATM   16  N   UNL     1     -44.252  57.668 -54.466  1.00  0.00    -0.235 NA
HETATM   17 CL   UNL     1     -45.218  59.811 -55.466  1.00  0.00    -0.062 Cl
HETATM   18  C   UNL     1     -43.627  56.481 -54.459  1.00  0.00     0.069 A 
HETATM   19  C   UNL     1     -43.071  55.922 -55.623  1.00  0.00    -0.004 A 
HETATM   20  C   UNL     1     -43.521  55.761 -53.278  1.00  0.00     0.035 A 
HETATM   21  C   UNL     1     -42.439  54.668 -55.575  1.00  0.00     0.050 A 
HETATM   22  C   UNL     1     -43.191  56.642 -56.818  1.00  0.00     0.025 A 
HETATM   23  C   UNL     1     -42.358  53.951 -54.381  1.00  0.00     0.069 A 
HETATM   24  C   UNL     1     -42.897  54.507 -53.226  1.00  0.00     0.039 A 
BRANCH  23  25
HETATM   25  O   UNL     1     -41.735  52.741 -54.485  1.00  0.00    -0.351 OA
BRANCH  25  26
HETATM   26  C   UNL     1     -40.312  52.730 -54.387  1.00  0.00     0.171 C 
HETATM   27  C   UNL     1     -39.879  51.320 -54.031  1.00  0.00     0.034 C 
ENDBRANCH  25  26
ENDBRANCH  23  25
ENDBRANCH   1  14
BRANCH   5  28
HETATM   28  N   UNL     1     -41.402  58.254 -60.892  1.00  0.00    -0.282 NA
HETATM   29  H   UNL     1     -40.699  58.901 -60.543  1.00  0.00     0.126 HD
HETATM   30  H   UNL     1     -41.015  57.361 -61.187  1.00  0.00     0.126 HD
ENDBRANCH   5  28
TORSDOF 4
ENDMDL
MODEL 3
REMARK VINA RESULT:      -7.7      3.756      5.489
REMARK  4 active torsions:
REMARK  status: ('A' for Active; 'I' for Inactive)
REMARK    1  A    between atoms: C_2  and  O_3 
REMARK    2  A    between atoms: O_3  and  C_4 
REMARK    3  A    between atoms: C_11  and  C_12 
REMARK    4  A    between atoms: C_16  and  N_17 
ROOT
HETATM    1  C   UNL     1     -42.326  58.669 -53.340  1.00  0.00     0.108 C 
HETATM    2  C   UNL     1     -43.831  58.849 -53.133  1.00  0.00     0.067 C 
HETATM    3  C   UNL     1     -44.681  59.011 -54.383  1.00  0.00     0.020 C 
HETATM    4  N   UNL     1     -45.386  59.145 -55.419  1.00  0.00    -0.096 N 
HETATM    5  C   UNL     1     -44.403  59.045 -51.913  1.00  0.00     0.139 C 
HETATM    6  O   UNL     1     -43.634  59.103 -50.734  1.00  0.00    -0.279 OA
HETATM    7  C   UNL     1     -42.317  59.134 -50.901  1.00  0.00     0.175 A 
HETATM    8  C   UNL     1     -41.609  58.959 -52.063  1.00  0.00     0.034 A 
HETATM    9  N   UNL     1     -41.412  59.376 -49.919  1.00  0.00    -0.256 N 
HETATM   10  H   UNL     1     -41.581  59.556 -48.936  1.00  0.00     0.191 HD
HETATM   11  N   UNL     1     -40.143  59.388 -50.375  1.00  0.00    -0.177 NA
HETATM   12  C   UNL     1     -40.257  59.147 -51.691  1.00  0.00     0.062 A 
HETATM   13  C   UNL     1     -39.049  59.098 -52.552  1.00  0.00     0.073 C 
ENDROOT
BRANCH   1  14
HETATM   14  C   UNL     1     -41.939  57.246 -53.693  1.00  0.00    -0.003 A 
HETATM   15  C   UNL     1     -41.865  56.787 -55.005  1.00  0.00     0.134 A 
HETATM   16  N   UNL     1     -41.472  55.546 -55.370  1.00  0.00    -0.235 NA
HETATM   17 CL   UNL     1     -42.252  57.765 -56.367  1.00  0.00    -0.062 Cl
HETATM   18  C   UNL     1     -41.117  54.681 -54.407  1.00  0.00     0.069 A 
HETATM   19  C   UNL     1     -41.166  55.019 -53.044  1.00  0.00    -0.004 A 
HETATM   20  C   UNL     1     -40.676  53.410 -54.747  1.00  0.00     0.035 A 
HETATM   21  C   UNL     1     -40.769  54.089 -52.068  1.00  0.00     0.050 A 
HETATM   22  C   UNL     1     -41.596  56.308 -52.702  1.00  0.00     0.025 A 
HETATM   23  C   UNL     1     -40.313  52.821 -52.430  1.00  0.00     0.069 A 
HETATM   24  C   UNL     1     -40.274  52.481 -53.777  1.00  0.00     0.039 A 
BRANCH  23  25
HETATM   25  O   UNL     1     -39.943  52.029 -51.382  1.00  0.00    -0.351 OA
BRANCH  25  26
HETATM   26  C   UNL     1     -39.416  50.740 -51.695  1.00  0.00     0.171 C 
HETATM   27  C   UNL     1     -39.823  49.787 -50.587  1.00  0.00     0.034 C 
ENDBRANCH  25  26
ENDBRANCH  23  25
ENDBRANCH   1  14
BRANCH   5  28
HETATM   28  N   UNL     1     -45.744  59.240 -51.682  1.00  0.00    -0.282 NA
HETATM   29  H   UNL     1     -45.997  59.565 -50.751  1.00  0.00     0.126 HD
HETATM   30  H   UNL     1     -46.196  59.765 -52.427  1.00  0.00     0.126 HD
ENDBRANCH   5  28
TORSDOF 4
ENDMDL
MODEL 4
REMARK VINA RESULT:      -7.1      3.712      7.097
REMARK  4 active torsions:
REMARK  status: ('A' for Active; 'I' for Inactive)
REMARK    1  A    between atoms: C_2  and  O_3 
REMARK    2  A    between atoms: O_3  and  C_4 
REMARK    3  A    between atoms: C_11  and  C_12 
REMARK    4  A    between atoms: C_16  and  N_17 
ROOT
HETATM    1  C   UNL     1     -42.721  58.011 -51.767  1.00  0.00     0.108 C 
HETATM    2  C   UNL     1     -43.759  58.892 -51.069  1.00  0.00     0.067 C 
HETATM    3  C   UNL     1     -43.363  60.334 -50.797  1.00  0.00     0.020 C 
HETATM    4  N   UNL     1     -43.035  61.531 -50.570  1.00  0.00    -0.096 N 
HETATM    5  C   UNL     1     -44.916  58.411 -50.536  1.00  0.00     0.139 C 
HETATM    6  O   UNL     1     -45.242  57.042 -50.586  1.00  0.00    -0.279 OA
HETATM    7  C   UNL     1     -44.283  56.232 -51.019  1.00  0.00     0.175 A 
HETATM    8  C   UNL     1     -43.074  56.574 -51.571  1.00  0.00     0.034 A 
HETATM    9  N   UNL     1     -44.325  54.877 -50.969  1.00  0.00    -0.256 N 
HETATM   10  H   UNL     1     -45.066  54.281 -50.616  1.00  0.00     0.191 HD
HETATM   11  N   UNL     1     -43.198  54.305 -51.442  1.00  0.00    -0.177 NA
HETATM   12  C   UNL     1     -42.421  55.341 -51.800  1.00  0.00     0.062 A 
HETATM   13  C   UNL     1     -41.069  55.103 -52.361  1.00  0.00     0.073 C 
ENDROOT
BRANCH   1  14
HETATM   14  C   UNL     1     -42.690  58.206 -53.272  1.00  0.00    -0.003 A 
HETATM   15  C   UNL     1     -41.528  58.524 -53.968  1.00  0.00     0.134 A 
HETATM   16  N   UNL     1     -41.440  58.652 -55.311  1.00  0.00    -0.235 NA
HETATM   17 CL   UNL     1     -40.011  58.782 -53.198  1.00  0.00    -0.062 Cl
HETATM   18  C   UNL     1     -42.547  58.454 -56.043  1.00  0.00     0.069 A 
HETATM   19  C   UNL     1     -43.786  58.146 -55.456  1.00  0.00    -0.004 A 
HETATM   20  C   UNL     1     -42.488  58.545 -57.426  1.00  0.00     0.035 A 
HETATM   21  C   UNL     1     -44.918  57.930 -56.260  1.00  0.00     0.050 A 
HETATM   22  C   UNL     1     -43.843  58.040 -54.061  1.00  0.00     0.025 A 
HETATM   23  C   UNL     1     -44.835  58.009 -57.651  1.00  0.00     0.069 A 
HETATM   24  C   UNL     1     -43.613  58.325 -58.233  1.00  0.00     0.039 A 
BRANCH  23  25
HETATM   25  O   UNL     1     -46.005  57.758 -58.307  1.00  0.00    -0.351 OA
BRANCH  25  26
HETATM   26  C   UNL     1     -45.937  57.605 -59.724  1.00  0.00     0.171 C 
HETATM   27  C   UNL     1     -46.254  56.158 -60.054  1.00  0.00     0.034 C 
ENDBRANCH  25  26
ENDBRANCH  23  25
ENDBRANCH   1  14
BRANCH   5  28
HETATM   28  N   UNL     1     -45.862  59.159 -49.875  1.00  0.00    -0.282 NA
HETATM   29  H   UNL     1     -46.810  59.109 -50.243  1.00  0.00     0.126 HD
HETATM   30  H   UNL     1     -45.816  59.043 -48.866  1.00  0.00     0.126 HD
ENDBRANCH   5  28
TORSDOF 4
ENDMDL
MODEL 5
REMARK VINA RESULT:      -6.7      6.033      8.395
REMARK  4 active torsions:
REMARK  status: ('A' for Active; 'I' for Inactive)
REMARK    1  A    between atoms: C_2  and  O_3 
REMARK    2  A    between atoms: O_3  and  C_4 
REMARK    3  A    between atoms: C_11  and  C_12 
REMARK    4  A    between atoms: C_16  and  N_17 
ROOT
HETATM    1  C   UNL     1     -42.416  59.120 -52.520  1.00  0.00     0.108 C 
HETATM    2  C   UNL     1     -41.500  58.332 -51.581  1.00  0.00     0.067 C 
HETATM    3  C   UNL     1     -40.181  58.985 -51.201  1.00  0.00     0.020 C 
HETATM    4  N   UNL     1     -39.087  59.527 -50.886  1.00  0.00    -0.096 N 
HETATM    5  C   UNL     1     -41.724  57.036 -51.226  1.00  0.00     0.139 C 
HETATM    6  O   UNL     1     -42.833  56.316 -51.712  1.00  0.00    -0.279 OA
HETATM    7  C   UNL     1     -43.539  56.911 -52.666  1.00  0.00     0.175 A 
HETATM    8  C   UNL     1     -43.421  58.198 -53.126  1.00  0.00     0.034 A 
HETATM    9  N   UNL     1     -44.521  56.320 -53.392  1.00  0.00    -0.256 N 
HETATM   10  H   UNL     1     -44.871  55.370 -53.326  1.00  0.00     0.191 HD
HETATM   11  N   UNL     1     -45.046  57.144 -54.322  1.00  0.00    -0.177 NA
HETATM   12  C   UNL     1     -44.366  58.293 -54.173  1.00  0.00     0.062 A 
HETATM   13  C   UNL     1     -44.659  59.455 -55.049  1.00  0.00     0.073 C 
ENDROOT
BRANCH   1  14
HETATM   14  C   UNL     1     -43.235  60.177 -51.803  1.00  0.00    -0.003 A 
HETATM   15  C   UNL     1     -43.443  61.451 -52.323  1.00  0.00     0.134 A 
HETATM   16  N   UNL     1     -44.210  62.406 -51.749  1.00  0.00    -0.235 NA
HETATM   17 CL   UNL     1     -42.757  61.986 -53.808  1.00  0.00    -0.062 Cl
HETATM   18  C   UNL     1     -44.828  62.116 -50.593  1.00  0.00     0.069 A 
HETATM   19  C   UNL     1     -44.681  60.871 -49.959  1.00  0.00    -0.004 A 
HETATM   20  C   UNL     1     -45.649  63.060 -49.992  1.00  0.00     0.035 A 
HETATM   21  C   UNL     1     -45.359  60.603 -48.757  1.00  0.00     0.050 A 
HETATM   22  C   UNL     1     -43.865  59.913 -50.573  1.00  0.00     0.025 A 
HETATM   23  C   UNL     1     -46.194  61.559 -48.177  1.00  0.00     0.069 A 
HETATM   24  C   UNL     1     -46.332  62.796 -48.797  1.00  0.00     0.039 A 
BRANCH  23  25
HETATM   25  O   UNL     1     -46.804  61.158 -47.024  1.00  0.00    -0.351 OA
BRANCH  25  26
HETATM   26  C   UNL     1     -46.122  60.187 -46.231  1.00  0.00     0.171 C 
HETATM   27  C   UNL     1     -47.142  59.162 -45.769  1.00  0.00     0.034 C 
ENDBRANCH  25  26
ENDBRANCH  23  25
ENDBRANCH   1  14
BRANCH   5  28
HETATM   28  N   UNL     1     -40.914  56.281 -50.412  1.00  0.00    -0.282 NA
HETATM   29  H   UNL     1     -40.166  56.780 -49.935  1.00  0.00     0.126 HD
HETATM   30  H   UNL     1     -41.443  55.667 -49.797  1.00  0.00     0.126 HD
ENDBRANCH   5  28
TORSDOF 4
ENDMDL
MODEL 6
REMARK VINA RESULT:      -6.6     17.150     20.206
REMARK  4 active torsions:
REMARK  status: ('A' for Active; 'I' for Inactive)
REMARK    1  A    between atoms: C_2  and  O_3 
REMARK    2  A    between atoms: O_3  and  C_4 
REMARK    3  A    between atoms: C_11  and  C_12 
REMARK    4  A    between atoms: C_16  and  N_17 
ROOT
HETATM    1  C   UNL     1     -35.235  38.937 -52.236  1.00  0.00     0.108 C 
HETATM    2  C   UNL     1     -36.272  40.063 -52.249  1.00  0.00     0.067 C 
HETATM    3  C   UNL     1     -37.672  39.711 -51.774  1.00  0.00     0.020 C 
HETATM    4  N   UNL     1     -38.834  39.420 -51.380  1.00  0.00    -0.096 N 
HETATM    5  C   UNL     1     -36.051  41.280 -52.818  1.00  0.00     0.139 C 
HETATM    6  O   UNL     1     -34.833  41.592 -53.452  1.00  0.00    -0.279 OA
HETATM    7  C   UNL     1     -33.988  40.580 -53.617  1.00  0.00     0.175 A 
HETATM    8  C   UNL     1     -34.084  39.309 -53.110  1.00  0.00     0.034 A 
HETATM    9  N   UNL     1     -32.854  40.625 -54.360  1.00  0.00    -0.256 N 
HETATM   10  H   UNL     1     -32.473  41.405 -54.885  1.00  0.00     0.191 HD
HETATM   11  N   UNL     1     -32.205  39.443 -54.386  1.00  0.00    -0.177 NA
HETATM   12  C   UNL     1     -32.961  38.628 -53.633  1.00  0.00     0.062 A 
HETATM   13  C   UNL     1     -32.568  37.211 -53.436  1.00  0.00     0.073 C 
ENDROOT
BRANCH   1  14
HETATM   14  C   UNL     1     -34.628  38.703 -50.865  1.00  0.00    -0.003 A 
HETATM   15  C   UNL     1     -35.071  37.704 -50.004  1.00  0.00     0.134 A 
HETATM   16  N   UNL     1     -34.526  37.422 -48.799  1.00  0.00    -0.235 NA
HETATM   17 CL   UNL     1     -36.386  36.658 -50.374  1.00  0.00    -0.062 Cl
HETATM   18  C   UNL     1     -33.473  38.147 -48.392  1.00  0.00     0.069 A 
HETATM   19  C   UNL     1     -32.944  39.196 -49.163  1.00  0.00    -0.004 A 
HETATM   20  C   UNL     1     -32.867  37.865 -47.175  1.00  0.00     0.035 A 
HETATM   21  C   UNL     1     -31.830  39.920 -48.707  1.00  0.00     0.050 A 
HETATM   22  C   UNL     1     -33.546  39.471 -50.397  1.00  0.00     0.025 A 
HETATM   23  C   UNL     1     -31.224  39.610 -47.489  1.00  0.00     0.069 A 
HETATM   24  C   UNL     1     -31.752  38.580 -46.718  1.00  0.00     0.039 A 
BRANCH  23  25
HETATM   25  O   UNL     1     -30.140  40.381 -47.179  1.00  0.00    -0.351 OA
BRANCH  25  26
HETATM   26  C   UNL     1     -29.446  40.073 -45.971  1.00  0.00     0.171 C 
HETATM   27  C   UNL     1     -29.952  41.010 -44.890  1.00  0.00     0.034 C 
ENDBRANCH  25  26
ENDBRANCH  23  25
ENDBRANCH   1  14
BRANCH   5  28
HETATM   28  N   UNL     1     -36.961  42.309 -52.880  1.00  0.00    -0.282 NA
HETATM   29  H   UNL     1     -37.446  42.531 -52.014  1.00  0.00     0.126 HD
HETATM   30  H   UNL     1     -36.592  43.128 -53.356  1.00  0.00     0.126 HD
ENDBRANCH   5  28
TORSDOF 4
ENDMDL
MODEL 7
REMARK VINA RESULT:      -6.6     16.184     19.351
REMARK  4 active torsions:
REMARK  status: ('A' for Active; 'I' for Inactive)
REMARK    1  A    between atoms: C_2  and  O_3 
REMARK    2  A    between atoms: O_3  and  C_4 
REMARK    3  A    between atoms: C_11  and  C_12 
REMARK    4  A    between atoms: C_16  and  N_17 
ROOT
HETATM    1  C   UNL     1     -34.541  39.599 -54.606  1.00  0.00     0.108 C 
HETATM    2  C   UNL     1     -35.457  38.803 -53.674  1.00  0.00     0.067 C 
HETATM    3  C   UNL     1     -36.233  39.594 -52.634  1.00  0.00     0.020 C 
HETATM    4  N   UNL     1     -36.877  40.251 -51.771  1.00  0.00    -0.096 N 
HETATM    5  C   UNL     1     -35.470  37.442 -53.616  1.00  0.00     0.139 C 
HETATM    6  O   UNL     1     -34.622  36.658 -54.422  1.00  0.00    -0.279 OA
HETATM    7  C   UNL     1     -33.693  37.319 -55.103  1.00  0.00     0.175 A 
HETATM    8  C   UNL     1     -33.556  38.677 -55.244  1.00  0.00     0.034 A 
HETATM    9  N   UNL     1     -32.670  36.745 -55.785  1.00  0.00    -0.256 N 
HETATM   10  H   UNL     1     -32.456  35.759 -55.891  1.00  0.00     0.191 HD
HETATM   11  N   UNL     1     -31.852  37.654 -56.353  1.00  0.00    -0.177 NA
HETATM   12  C   UNL     1     -32.381  38.841 -56.014  1.00  0.00     0.062 A 
HETATM   13  C   UNL     1     -31.735  40.102 -56.453  1.00  0.00     0.073 C 
ENDROOT
BRANCH   1  14
HETATM   14  C   UNL     1     -35.283  40.242 -55.762  1.00  0.00    -0.003 A 
HETATM   15  C   UNL     1     -35.683  41.575 -55.755  1.00  0.00     0.134 A 
HETATM   16  N   UNL     1     -36.295  42.206 -56.782  1.00  0.00    -0.235 NA
HETATM   17 CL   UNL     1     -35.426  42.626 -54.417  1.00  0.00    -0.062 Cl
HETATM   18  C   UNL     1     -36.537  41.509 -57.903  1.00  0.00     0.069 A 
HETATM   19  C   UNL     1     -36.198  40.151 -58.027  1.00  0.00    -0.004 A 
HETATM   20  C   UNL     1     -37.135  42.133 -58.990  1.00  0.00     0.035 A 
HETATM   21  C   UNL     1     -36.454  39.463 -59.225  1.00  0.00     0.050 A 
HETATM   22  C   UNL     1     -35.582  39.526 -56.936  1.00  0.00     0.025 A 
HETATM   23  C   UNL     1     -37.040  40.111 -60.313  1.00  0.00     0.069 A 
HETATM   24  C   UNL     1     -37.387  41.452 -60.189  1.00  0.00     0.039 A 
BRANCH  23  25
HETATM   25  O   UNL     1     -37.213  39.328 -61.417  1.00  0.00    -0.351 OA
BRANCH  25  26
HETATM   26  C   UNL     1     -37.785  38.036 -61.217  1.00  0.00     0.171 C 
HETATM   27  C   UNL     1     -39.295  38.185 -61.240  1.00  0.00     0.034 C 
ENDBRANCH  25  26
ENDBRANCH  23  25
ENDBRANCH   1  14
BRANCH   5  28
HETATM   28  N   UNL     1     -36.253  36.686 -52.776  1.00  0.00    -0.282 NA
HETATM   29  H   UNL     1     -36.186  36.905 -51.784  1.00  0.00     0.126 HD
HETATM   30  H   UNL     1     -37.211  36.601 -53.105  1.00  0.00     0.126 HD
ENDBRANCH   5  28
TORSDOF 4
ENDMDL
MODEL 8
REMARK VINA RESULT:      -6.5      2.744      6.326
REMARK  4 active torsions:
REMARK  status: ('A' for Active; 'I' for Inactive)
REMARK    1  A    between atoms: C_2  and  O_3 
REMARK    2  A    between atoms: O_3  and  C_4 
REMARK    3  A    between atoms: C_11  and  C_12 
REMARK    4  A    between atoms: C_16  and  N_17 
ROOT
HETATM    1  C   UNL     1     -41.896  56.786 -53.462  1.00  0.00     0.108 C 
HETATM    2  C   UNL     1     -42.975  57.151 -52.440  1.00  0.00     0.067 C 
HETATM    3  C   UNL     1     -43.012  58.595 -51.967  1.00  0.00     0.020 C 
HETATM    4  N   UNL     1     -43.043  59.793 -51.575  1.00  0.00    -0.096 N 
HETATM    5  C   UNL     1     -43.763  56.230 -51.818  1.00  0.00     0.139 C 
HETATM    6  O   UNL     1     -43.634  54.851 -52.074  1.00  0.00    -0.279 OA
HETATM    7  C   UNL     1     -42.590  54.493 -52.813  1.00  0.00     0.175 A 
HETATM    8  C   UNL     1     -41.715  55.305 -53.488  1.00  0.00     0.034 A 
HETATM    9  N   UNL     1     -42.182  53.214 -53.017  1.00  0.00    -0.256 N 
HETATM   10  H   UNL     1     -42.591  52.357 -52.664  1.00  0.00     0.191 HD
HETATM   11  N   UNL     1     -41.070  53.141 -53.778  1.00  0.00    -0.177 NA
HETATM   12  C   UNL     1     -40.770  54.420 -54.058  1.00  0.00     0.062 A 
HETATM   13  C   UNL     1     -39.578  54.747 -54.878  1.00  0.00     0.073 C 
ENDROOT
BRANCH   1  14
HETATM   14  C   UNL     1     -42.272  57.161 -54.883  1.00  0.00    -0.003 A 
HETATM   15  C   UNL     1     -42.093  58.440 -55.399  1.00  0.00     0.134 A 
HETATM   16  N   UNL     1     -42.361  58.806 -56.673  1.00  0.00    -0.235 NA
HETATM   17 CL   UNL     1     -41.475  59.751 -54.472  1.00  0.00    -0.062 Cl
HETATM   18  C   UNL     1     -42.829  57.874 -57.518  1.00  0.00     0.069 A 
HETATM   19  C   UNL     1     -43.069  56.550 -57.112  1.00  0.00    -0.004 A 
HETATM   20  C   UNL     1     -43.083  58.205 -58.842  1.00  0.00     0.035 A 
HETATM   21  C   UNL     1     -43.544  55.601 -58.033  1.00  0.00     0.050 A 
HETATM   22  C   UNL     1     -42.798  56.213 -55.780  1.00  0.00     0.025 A 
HETATM   23  C   UNL     1     -43.777  55.949 -59.364  1.00  0.00     0.069 A 
HETATM   24  C   UNL     1     -43.551  57.261 -59.766  1.00  0.00     0.039 A 
BRANCH  23  25
HETATM   25  O   UNL     1     -44.218  54.925 -60.152  1.00  0.00    -0.351 OA
BRANCH  25  26
HETATM   26  C   UNL     1     -45.153  55.250 -61.179  1.00  0.00     0.171 C 
HETATM   27  C   UNL     1     -46.419  55.759 -60.515  1.00  0.00     0.034 C 
ENDBRANCH  25  26
ENDBRANCH  23  25
ENDBRANCH   1  14
BRANCH   5  28
HETATM   28  N   UNL     1     -44.722  56.508 -50.874  1.00  0.00    -0.282 NA
HETATM   29  H   UNL     1     -44.431  57.102 -50.100  1.00  0.00     0.126 HD
HETATM   30  H   UNL     1     -45.607  56.791 -51.287  1.00  0.00     0.126 HD
ENDBRANCH   5  28
TORSDOF 4
ENDMDL
MODEL 9
REMARK VINA RESULT:      -6.5      3.701      6.990
REMARK  4 active torsions:
REMARK  status: ('A' for Active; 'I' for Inactive)
REMARK    1  A    between atoms: C_2  and  O_3 
REMARK    2  A    between atoms: O_3  and  C_4 
REMARK    3  A    between atoms: C_11  and  C_12 
REMARK    4  A    between atoms: C_16  and  N_17 
ROOT
HETATM    1  C   UNL     1     -43.135  57.388 -51.171  1.00  0.00     0.108 C 
HETATM    2  C   UNL     1     -42.690  55.948 -50.906  1.00  0.00     0.067 C 
HETATM    3  C   UNL     1     -43.778  54.950 -50.545  1.00  0.00     0.020 C 
HETATM    4  N   UNL     1     -44.680  54.121 -50.245  1.00  0.00    -0.096 N 
HETATM    5  C   UNL     1     -41.385  55.572 -50.806  1.00  0.00     0.139 C 
HETATM    6  O   UNL     1     -40.334  56.500 -50.936  1.00  0.00    -0.279 OA
HETATM    7  C   UNL     1     -40.691  57.778 -50.982  1.00  0.00     0.175 A 
HETATM    8  C   UNL     1     -41.956  58.299 -51.079  1.00  0.00     0.034 A 
HETATM    9  N   UNL     1     -39.834  58.829 -50.919  1.00  0.00    -0.256 N 
HETATM   10  H   UNL     1     -38.824  58.816 -50.837  1.00  0.00     0.191 HD
HETATM   11  N   UNL     1     -40.470  60.018 -50.949  1.00  0.00    -0.177 NA
HETATM   12  C   UNL     1     -41.772  59.700 -51.033  1.00  0.00     0.062 A 
HETATM   13  C   UNL     1     -42.803  60.767 -51.074  1.00  0.00     0.073 C 
ENDROOT
BRANCH   1  14
HETATM   14  C   UNL     1     -43.682  57.594 -52.571  1.00  0.00    -0.003 A 
HETATM   15  C   UNL     1     -44.777  58.409 -52.842  1.00  0.00     0.134 A 
HETATM   16  N   UNL     1     -45.264  58.667 -54.077  1.00  0.00    -0.235 NA
HETATM   17 CL   UNL     1     -45.661  59.233 -51.617  1.00  0.00    -0.062 Cl
HETATM   18  C   UNL     1     -44.653  58.106 -55.132  1.00  0.00     0.069 A 
HETATM   19  C   UNL     1     -43.549  57.249 -54.988  1.00  0.00    -0.004 A 
HETATM   20  C   UNL     1     -45.106  58.374 -56.416  1.00  0.00     0.035 A 
HETATM   21  C   UNL     1     -42.928  56.696 -56.121  1.00  0.00     0.050 A 
HETATM   22  C   UNL     1     -43.083  56.991 -53.693  1.00  0.00     0.025 A 
HETATM   23  C   UNL     1     -43.387  56.991 -57.405  1.00  0.00     0.069 A 
HETATM   24  C   UNL     1     -44.486  57.830 -57.549  1.00  0.00     0.039 A 
BRANCH  23  25
HETATM   25  O   UNL     1     -42.679  56.402 -58.412  1.00  0.00    -0.351 OA
BRANCH  25  26
HETATM   26  C   UNL     1     -43.374  56.144 -59.632  1.00  0.00     0.171 C 
HETATM   27  C   UNL     1     -44.119  54.831 -59.477  1.00  0.00     0.034 C 
ENDBRANCH  25  26
ENDBRANCH  23  25
ENDBRANCH   1  14
BRANCH   5  28
HETATM   28  N   UNL     1     -40.940  54.298 -50.540  1.00  0.00    -0.282 NA
HETATM   29  H   UNL     1     -41.608  53.674 -50.093  1.00  0.00     0.126 HD
HETATM   30  H   UNL     1     -40.465  53.877 -51.334  1.00  0.00     0.126 HD
ENDBRANCH   5  28
TORSDOF 4
ENDMDL
MODEL 10
REMARK VINA RESULT:      -6.4      3.860      6.676
REMARK  4 active torsions:
REMARK  status: ('A' for Active; 'I' for Inactive)
REMARK    1  A    between atoms: C_2  and  O_3 
REMARK    2  A    between atoms: O_3  and  C_4 
REMARK    3  A    between atoms: C_11  and  C_12 
REMARK    4  A    between atoms: C_16  and  N_17 
ROOT
HETATM    1  C   UNL     1     -43.500  59.724 -52.304  1.00  0.00     0.108 C 
HETATM    2  C   UNL     1     -44.934  59.719 -51.772  1.00  0.00     0.067 C 
HETATM    3  C   UNL     1     -45.703  61.028 -51.858  1.00  0.00     0.020 C 
HETATM    4  N   UNL     1     -46.340  62.113 -51.929  1.00  0.00    -0.096 N 
HETATM    5  C   UNL     1     -45.476  58.677 -51.083  1.00  0.00     0.139 C 
HETATM    6  O   UNL     1     -44.738  57.511 -50.801  1.00  0.00    -0.279 OA
HETATM    7  C   UNL     1     -43.442  57.561 -51.088  1.00  0.00     0.175 A 
HETATM    8  C   UNL     1     -42.765  58.542 -51.766  1.00  0.00     0.034 A 
HETATM    9  N   UNL     1     -42.527  56.626 -50.727  1.00  0.00    -0.256 N 
HETATM   10  H   UNL     1     -42.674  55.767 -50.208  1.00  0.00     0.191 HD
HETATM   11  N   UNL     1     -41.276  56.947 -51.115  1.00  0.00    -0.177 NA
HETATM   12  C   UNL     1     -41.412  58.128 -51.741  1.00  0.00     0.062 A 
HETATM   13  C   UNL     1     -40.226  58.818 -52.304  1.00  0.00     0.073 C 
ENDROOT
BRANCH   1  14
HETATM   14  C   UNL     1     -43.424  59.581 -53.813  1.00  0.00    -0.003 A 
HETATM   15  C   UNL     1     -43.181  60.656 -54.662  1.00  0.00     0.134 A 
HETATM   16  N   UNL     1     -43.049  60.567 -56.005  1.00  0.00    -0.235 NA
HETATM   17 CL   UNL     1     -42.990  62.272 -54.103  1.00  0.00    -0.062 Cl
HETATM   18  C   UNL     1     -43.152  59.357 -56.576  1.00  0.00     0.069 A 
HETATM   19  C   UNL     1     -43.414  58.197 -55.828  1.00  0.00    -0.004 A 
HETATM   20  C   UNL     1     -42.990  59.224 -57.948  1.00  0.00     0.035 A 
HETATM   21  C   UNL     1     -43.498  56.947 -56.465  1.00  0.00     0.050 A 
HETATM   22  C   UNL     1     -43.563  58.330 -54.442  1.00  0.00     0.025 A 
HETATM   23  C   UNL     1     -43.315  56.831 -57.843  1.00  0.00     0.069 A 
HETATM   24  C   UNL     1     -43.067  57.979 -58.587  1.00  0.00     0.039 A 
BRANCH  23  25
HETATM   25  O   UNL     1     -43.404  55.556 -58.324  1.00  0.00    -0.351 OA
BRANCH  25  26
HETATM   26  C   UNL     1     -43.514  55.401 -59.738  1.00  0.00     0.171 C 
HETATM   27  C   UNL     1     -44.790  54.632 -60.025  1.00  0.00     0.034 C 
ENDBRANCH  25  26
ENDBRANCH  23  25
ENDBRANCH   1  14
BRANCH   5  28
HETATM   28  N   UNL     1     -46.747  58.640 -50.561  1.00  0.00    -0.282 NA
HETATM   29  H   UNL     1     -47.233  57.747 -50.626  1.00  0.00     0.126 HD
HETATM   30  H   UNL     1     -46.803  59.062 -49.637  1.00  0.00     0.126 HD
ENDBRANCH   5  28
TORSDOF 4
ENDMDL
