MODEL 1
REMARK VINA RESULT:      -9.0      0.000      0.000
REMARK  6 active torsions:
REMARK  status: ('A' for Active; 'I' for Inactive)
REMARK    1  A    between atoms: C_4  and  C_5 
REMARK    2  A    between atoms: C_5  and  C_6 
REMARK    3  A    between atoms: C_6  and  C_7 
REMARK    4  A    between atoms: C_7  and  N_8 
REMARK    5  A    between atoms: C_11  and  O_12 
REMARK    6  A    between atoms: C_11  and  C_13 
ROOT
HETATM    1  N   UNL     1     -42.610  56.613 -53.727  1.00  0.00    -0.314 N 
HETATM    2  C   UNL     1     -43.141  55.506 -53.046  1.00  0.00     0.269 A 
HETATM    3  O   UNL     1     -43.989  54.730 -53.467  1.00  0.00    -0.269 OA
HETATM    4  C   UNL     1     -42.496  55.484 -51.626  1.00  0.00     0.198 A 
HETATM    5  C   UNL     1     -41.648  56.730 -51.647  1.00  0.00     0.017 A 
HETATM    6  C   UNL     1     -41.758  57.353 -52.894  1.00  0.00     0.047 A 
HETATM    7  C   UNL     1     -40.894  57.306 -50.632  1.00  0.00     0.013 A 
HETATM    8  C   UNL     1     -40.231  58.508 -50.898  1.00  0.00     0.001 A 
HETATM    9  C   UNL     1     -40.337  59.120 -52.157  1.00  0.00     0.002 A 
HETATM   10  C   UNL     1     -41.109  58.544 -53.170  1.00  0.00     0.030 A 
ENDROOT
BRANCH   4  11
HETATM   11  O   UNL     1     -43.500  55.594 -50.623  1.00  0.00    -0.371 OA
HETATM   12  H   UNL     1     -43.036  55.384 -49.793  1.00  0.00     0.212 HD
ENDBRANCH   4  11
BRANCH   4  13
HETATM   13  C   UNL     1     -41.573  54.314 -51.384  1.00  0.00     0.018 A 
HETATM   14  C   UNL     1     -40.905  53.464 -52.341  1.00  0.00     0.002 A 
HETATM   15  C   UNL     1     -40.190  52.502 -51.621  1.00  0.00     0.043 A 
HETATM   16  C   UNL     1     -40.840  53.405 -53.752  1.00  0.00     0.014 A 
HETATM   17  C   UNL     1     -39.434  51.493 -52.231  1.00  0.00     0.030 A 
HETATM   18  N   UNL     1     -40.388  52.758 -50.287  1.00  0.00    -0.365 N 
HETATM   19  C   UNL     1     -39.401  51.457 -53.626  1.00  0.00     0.002 A 
HETATM   20  C   UNL     1     -40.092  52.400 -54.378  1.00  0.00     0.001 A 
HETATM   21  H   UNL     1     -39.983  52.218 -49.535  1.00  0.00     0.165 HD
HETATM   22  C   UNL     1     -41.213  53.833 -50.131  1.00  0.00     0.100 A 
ENDBRANCH   4  13
BRANCH   1  23
HETATM   23  C   UNL     1     -43.042  57.017 -55.044  1.00  0.00     0.133 C 
BRANCH  23  24
HETATM   24  C   UNL     1     -42.146  56.437 -56.137  1.00  0.00     0.025 C 
BRANCH  24  25
HETATM   25  C   UNL     1     -42.792  55.217 -56.792  1.00  0.00     0.040 C 
BRANCH  25  26
HETATM   26  C   UNL     1     -43.290  55.541 -58.177  1.00  0.00    -0.058 A 
HETATM   27  C   UNL     1     -43.041  56.798 -58.746  1.00  0.00     0.007 A 
HETATM   28  C   UNL     1     -43.533  57.109 -60.015  1.00  0.00     0.001 A 
HETATM   29  C   UNL     1     -44.281  56.169 -60.723  1.00  0.00     0.000 A 
HETATM   30  C   UNL     1     -44.537  54.919 -60.165  1.00  0.00     0.001 A 
HETATM   31  C   UNL     1     -44.046  54.606 -58.896  1.00  0.00     0.007 A 
ENDBRANCH  25  26
ENDBRANCH  24  25
ENDBRANCH  23  24
ENDBRANCH   1  23
TORSDOF 6
ENDMDL
MODEL 2
REMARK VINA RESULT:      -8.6      2.739      7.053
REMARK  6 active torsions:
REMARK  status: ('A' for Active; 'I' for Inactive)
REMARK    1  A    between atoms: C_4  and  C_5 
REMARK    2  A    between atoms: C_5  and  C_6 
REMARK    3  A    between atoms: C_6  and  C_7 
REMARK    4  A    between atoms: C_7  and  N_8 
REMARK    5  A    between atoms: C_11  and  O_12 
REMARK    6  A    between atoms: C_11  and  C_13 
ROOT
HETATM    1  N   UNL     1     -43.046  55.669 -52.928  1.00  0.00    -0.314 N 
HETATM    2  C   UNL     1     -43.339  56.130 -51.635  1.00  0.00     0.269 A 
HETATM    3  O   UNL     1     -43.089  55.556 -50.583  1.00  0.00    -0.269 OA
HETATM    4  C   UNL     1     -44.101  57.482 -51.788  1.00  0.00     0.198 A 
HETATM    5  C   UNL     1     -44.220  57.609 -53.285  1.00  0.00     0.017 A 
HETATM    6  C   UNL     1     -43.592  56.520 -53.900  1.00  0.00     0.047 A 
HETATM    7  C   UNL     1     -44.880  58.566 -54.045  1.00  0.00     0.013 A 
HETATM    8  C   UNL     1     -44.881  58.426 -55.435  1.00  0.00     0.001 A 
HETATM    9  C   UNL     1     -44.238  57.337 -56.045  1.00  0.00     0.002 A 
HETATM   10  C   UNL     1     -43.588  56.368 -55.276  1.00  0.00     0.030 A 
ENDROOT
BRANCH   4  11
HETATM   11  O   UNL     1     -45.396  57.391 -51.202  1.00  0.00    -0.371 OA
HETATM   12  H   UNL     1     -45.675  58.317 -51.088  1.00  0.00     0.212 HD
ENDBRANCH   4  11
BRANCH   4  13
HETATM   13  C   UNL     1     -43.335  58.684 -51.292  1.00  0.00     0.018 A 
HETATM   14  C   UNL     1     -43.816  60.007 -50.972  1.00  0.00     0.002 A 
HETATM   15  C   UNL     1     -42.713  60.774 -50.588  1.00  0.00     0.043 A 
HETATM   16  C   UNL     1     -45.080  60.639 -50.976  1.00  0.00     0.014 A 
HETATM   17  C   UNL     1     -42.806  62.124 -50.225  1.00  0.00     0.030 A 
HETATM   18  N   UNL     1     -41.608  59.962 -50.646  1.00  0.00    -0.365 N 
HETATM   19  C   UNL     1     -44.068  62.720 -50.252  1.00  0.00     0.002 A 
HETATM   20  C   UNL     1     -45.191  61.989 -50.620  1.00  0.00     0.001 A 
HETATM   21  H   UNL     1     -40.669  60.255 -50.416  1.00  0.00     0.165 HD
HETATM   22  C   UNL     1     -41.963  58.714 -51.068  1.00  0.00     0.100 A 
ENDBRANCH   4  13
BRANCH   1  23
HETATM   23  C   UNL     1     -42.425  54.393 -53.194  1.00  0.00     0.133 C 
BRANCH  23  24
HETATM   24  C   UNL     1     -40.906  54.511 -53.292  1.00  0.00     0.025 C 
BRANCH  24  25
HETATM   25  C   UNL     1     -40.337  53.505 -54.291  1.00  0.00     0.040 C 
BRANCH  25  26
HETATM   26  C   UNL     1     -40.093  52.167 -53.639  1.00  0.00    -0.058 A 
HETATM   27  C   UNL     1     -39.777  52.088 -52.276  1.00  0.00     0.007 A 
HETATM   28  C   UNL     1     -39.517  50.853 -51.682  1.00  0.00     0.001 A 
HETATM   29  C   UNL     1     -39.567  49.687 -52.444  1.00  0.00     0.000 A 
HETATM   30  C   UNL     1     -39.876  49.755 -53.801  1.00  0.00     0.001 A 
HETATM   31  C   UNL     1     -40.136  50.990 -54.398  1.00  0.00     0.007 A 
ENDBRANCH  25  26
ENDBRANCH  24  25
ENDBRANCH  23  24
ENDBRANCH   1  23
TORSDOF 6
ENDMDL
MODEL 3
REMARK VINA RESULT:      -8.6      2.322      6.525
REMARK  6 active torsions:
REMARK  status: ('A' for Active; 'I' for Inactive)
REMARK    1  A    between atoms: C_4  and  C_5 
REMARK    2  A    between atoms: C_5  and  C_6 
REMARK    3  A    between atoms: C_6  and  C_7 
REMARK    4  A    between atoms: C_7  and  N_8 
REMARK    5  A    between atoms: C_11  and  O_12 
REMARK    6  A    between atoms: C_11  and  C_13 
ROOT
HETATM    1  N   UNL     1     -43.100  55.418 -52.909  1.00  0.00    -0.314 N 
HETATM    2  C   UNL     1     -43.488  55.863 -51.635  1.00  0.00     0.269 A 
HETATM    3  O   UNL     1     -43.333  55.266 -50.578  1.00  0.00    -0.269 OA
HETATM    4  C   UNL     1     -44.210  57.232 -51.824  1.00  0.00     0.198 A 
HETATM    5  C   UNL     1     -44.205  57.387 -53.323  1.00  0.00     0.017 A 
HETATM    6  C   UNL     1     -43.551  56.296 -53.906  1.00  0.00     0.047 A 
HETATM    7  C   UNL     1     -44.785  58.370 -54.115  1.00  0.00     0.013 A 
HETATM    8  C   UNL     1     -44.677  58.254 -55.503  1.00  0.00     0.001 A 
HETATM    9  C   UNL     1     -44.007  57.163 -56.080  1.00  0.00     0.002 A 
HETATM   10  C   UNL     1     -43.439  56.168 -55.279  1.00  0.00     0.030 A 
ENDROOT
BRANCH   4  11
HETATM   11  O   UNL     1     -45.549  57.157 -51.345  1.00  0.00    -0.371 OA
HETATM   12  H   UNL     1     -45.809  58.086 -51.210  1.00  0.00     0.212 HD
ENDBRANCH   4  11
BRANCH   4  13
HETATM   13  C   UNL     1     -43.463  58.410 -51.246  1.00  0.00     0.018 A 
HETATM   14  C   UNL     1     -42.039  58.621 -51.128  1.00  0.00     0.002 A 
HETATM   15  C   UNL     1     -41.848  59.851 -50.493  1.00  0.00     0.043 A 
HETATM   16  C   UNL     1     -40.887  57.888 -51.491  1.00  0.00     0.014 A 
HETATM   17  C   UNL     1     -40.582  60.372 -50.194  1.00  0.00     0.030 A 
HETATM   18  N   UNL     1     -43.089  60.384 -50.248  1.00  0.00    -0.365 N 
HETATM   19  C   UNL     1     -39.465  59.616 -50.555  1.00  0.00     0.002 A 
HETATM   20  C   UNL     1     -39.613  58.391 -51.196  1.00  0.00     0.001 A 
HETATM   21  H   UNL     1     -43.252  61.275 -49.800  1.00  0.00     0.165 HD
HETATM   22  C   UNL     1     -44.061  59.534 -50.689  1.00  0.00     0.100 A 
ENDBRANCH   4  13
BRANCH   1  23
HETATM   23  C   UNL     1     -42.484  54.134 -53.149  1.00  0.00     0.133 C 
BRANCH  23  24
HETATM   24  C   UNL     1     -40.963  54.244 -53.239  1.00  0.00     0.025 C 
BRANCH  24  25
HETATM   25  C   UNL     1     -40.291  53.604 -52.025  1.00  0.00     0.040 C 
BRANCH  25  26
HETATM   26  C   UNL     1     -40.037  52.136 -52.253  1.00  0.00    -0.058 A 
HETATM   27  C   UNL     1     -39.841  51.271 -51.168  1.00  0.00     0.007 A 
HETATM   28  C   UNL     1     -39.570  49.919 -51.382  1.00  0.00     0.001 A 
HETATM   29  C   UNL     1     -39.491  49.420 -52.681  1.00  0.00     0.000 A 
HETATM   30  C   UNL     1     -39.681  50.272 -53.767  1.00  0.00     0.001 A 
HETATM   31  C   UNL     1     -39.951  51.625 -53.555  1.00  0.00     0.007 A 
ENDBRANCH  25  26
ENDBRANCH  24  25
ENDBRANCH  23  24
ENDBRANCH   1  23
TORSDOF 6
ENDMDL
MODEL 4
REMARK VINA RESULT:      -8.5      2.251      6.430
REMARK  6 active torsions:
REMARK  status: ('A' for Active; 'I' for Inactive)
REMARK    1  A    between atoms: C_4  and  C_5 
REMARK    2  A    between atoms: C_5  and  C_6 
REMARK    3  A    between atoms: C_6  and  C_7 
REMARK    4  A    between atoms: C_7  and  N_8 
REMARK    5  A    between atoms: C_11  and  O_12 
REMARK    6  A    between atoms: C_11  and  C_13 
ROOT
HETATM    1  N   UNL     1     -42.231  57.464 -52.474  1.00  0.00    -0.314 N 
HETATM    2  C   UNL     1     -41.399  57.438 -53.605  1.00  0.00     0.269 A 
HETATM    3  O   UNL     1     -40.274  56.959 -53.669  1.00  0.00    -0.269 OA
HETATM    4  C   UNL     1     -42.148  58.188 -54.748  1.00  0.00     0.198 A 
HETATM    5  C   UNL     1     -43.402  58.651 -54.051  1.00  0.00     0.017 A 
HETATM    6  C   UNL     1     -43.394  58.207 -52.725  1.00  0.00     0.047 A 
HETATM    7  C   UNL     1     -44.434  59.453 -54.523  1.00  0.00     0.013 A 
HETATM    8  C   UNL     1     -45.472  59.782 -53.647  1.00  0.00     0.001 A 
HETATM    9  C   UNL     1     -45.463  59.321 -52.321  1.00  0.00     0.002 A 
HETATM   10  C   UNL     1     -44.415  58.527 -51.847  1.00  0.00     0.030 A 
ENDROOT
BRANCH   4  11
HETATM   11  O   UNL     1     -41.389  59.312 -55.185  1.00  0.00    -0.371 OA
HETATM   12  H   UNL     1     -41.353  59.215 -56.153  1.00  0.00     0.212 HD
ENDBRANCH   4  11
BRANCH   4  13
HETATM   13  C   UNL     1     -42.570  57.304 -55.896  1.00  0.00     0.018 A 
HETATM   14  C   UNL     1     -42.470  57.540 -57.317  1.00  0.00     0.002 A 
HETATM   15  C   UNL     1     -43.029  56.437 -57.967  1.00  0.00     0.043 A 
HETATM   16  C   UNL     1     -41.969  58.587 -58.123  1.00  0.00     0.014 A 
HETATM   17  C   UNL     1     -43.121  56.333 -59.361  1.00  0.00     0.030 A 
HETATM   18  N   UNL     1     -43.434  55.552 -56.999  1.00  0.00    -0.365 N 
HETATM   19  C   UNL     1     -42.626  57.390 -60.127  1.00  0.00     0.002 A 
HETATM   20  C   UNL     1     -42.056  58.502 -59.518  1.00  0.00     0.001 A 
HETATM   21  H   UNL     1     -43.871  54.660 -57.185  1.00  0.00     0.165 HD
HETATM   22  C   UNL     1     -43.170  56.057 -55.759  1.00  0.00     0.100 A 
ENDBRANCH   4  13
BRANCH   1  23
HETATM   23  C   UNL     1     -41.836  56.948 -51.185  1.00  0.00     0.133 C 
BRANCH  23  24
HETATM   24  C   UNL     1     -42.189  55.470 -51.034  1.00  0.00     0.025 C 
BRANCH  24  25
HETATM   25  C   UNL     1     -40.933  54.616 -50.867  1.00  0.00     0.040 C 
BRANCH  25  26
HETATM   26  C   UNL     1     -40.767  53.660 -52.021  1.00  0.00    -0.058 A 
HETATM   27  C   UNL     1     -41.545  53.800 -53.178  1.00  0.00     0.007 A 
HETATM   28  C   UNL     1     -41.415  52.893 -54.231  1.00  0.00     0.001 A 
HETATM   29  C   UNL     1     -40.510  51.838 -54.135  1.00  0.00     0.000 A 
HETATM   30  C   UNL     1     -39.735  51.688 -52.988  1.00  0.00     0.001 A 
HETATM   31  C   UNL     1     -39.863  52.593 -51.933  1.00  0.00     0.007 A 
ENDBRANCH  25  26
ENDBRANCH  24  25
ENDBRANCH  23  24
ENDBRANCH   1  23
TORSDOF 6
ENDMDL
MODEL 5
REMARK VINA RESULT:      -8.5      2.186      3.927
REMARK  6 active torsions:
REMARK  status: ('A' for Active; 'I' for Inactive)
REMARK    1  A    between atoms: C_4  and  C_5 
REMARK    2  A    between atoms: C_5  and  C_6 
REMARK    3  A    between atoms: C_6  and  C_7 
REMARK    4  A    between atoms: C_7  and  N_8 
REMARK    5  A    between atoms: C_11  and  O_12 
REMARK    6  A    between atoms: C_11  and  C_13 
ROOT
HETATM    1  N   UNL     1     -42.397  56.596 -53.836  1.00  0.00    -0.314 N 
HETATM    2  C   UNL     1     -42.991  55.515 -53.167  1.00  0.00     0.269 A 
HETATM    3  O   UNL     1     -43.833  54.751 -53.623  1.00  0.00    -0.269 OA
HETATM    4  C   UNL     1     -42.428  55.504 -51.713  1.00  0.00     0.198 A 
HETATM    5  C   UNL     1     -41.551  56.729 -51.706  1.00  0.00     0.017 A 
HETATM    6  C   UNL     1     -41.575  57.332 -52.969  1.00  0.00     0.047 A 
HETATM    7  C   UNL     1     -40.841  57.306 -50.661  1.00  0.00     0.013 A 
HETATM    8  C   UNL     1     -40.136  58.487 -50.909  1.00  0.00     0.001 A 
HETATM    9  C   UNL     1     -40.155  59.078 -52.182  1.00  0.00     0.002 A 
HETATM   10  C   UNL     1     -40.883  58.502 -53.227  1.00  0.00     0.030 A 
ENDROOT
BRANCH   4  11
HETATM   11  O   UNL     1     -43.485  55.655 -50.770  1.00  0.00    -0.371 OA
HETATM   12  H   UNL     1     -44.165  55.025 -51.068  1.00  0.00     0.212 HD
ENDBRANCH   4  11
BRANCH   4  13
HETATM   13  C   UNL     1     -41.549  54.317 -51.399  1.00  0.00     0.018 A 
HETATM   14  C   UNL     1     -40.868  53.420 -52.302  1.00  0.00     0.002 A 
HETATM   15  C   UNL     1     -40.210  52.462 -51.526  1.00  0.00     0.043 A 
HETATM   16  C   UNL     1     -40.748  53.317 -53.707  1.00  0.00     0.014 A 
HETATM   17  C   UNL     1     -39.458  51.415 -52.075  1.00  0.00     0.030 A 
HETATM   18  N   UNL     1     -40.453  52.764 -50.210  1.00  0.00    -0.365 N 
HETATM   19  C   UNL     1     -39.370  51.335 -53.466  1.00  0.00     0.002 A 
HETATM   20  C   UNL     1     -40.004  52.273 -54.273  1.00  0.00     0.001 A 
HETATM   21  H   UNL     1     -40.094  52.237 -49.426  1.00  0.00     0.165 HD
HETATM   22  C   UNL     1     -41.253  53.865 -50.119  1.00  0.00     0.100 A 
ENDBRANCH   4  13
BRANCH   1  23
HETATM   23  C   UNL     1     -42.744  56.986 -55.182  1.00  0.00     0.133 C 
BRANCH  23  24
HETATM   24  C   UNL     1     -44.180  57.500 -55.271  1.00  0.00     0.025 C 
BRANCH  24  25
HETATM   25  C   UNL     1     -44.231  59.021 -55.137  1.00  0.00     0.040 C 
BRANCH  25  26
HETATM   26  C   UNL     1     -44.248  59.441 -53.689  1.00  0.00    -0.058 A 
HETATM   27  C   UNL     1     -43.570  60.596 -53.276  1.00  0.00     0.007 A 
HETATM   28  C   UNL     1     -43.557  60.964 -51.930  1.00  0.00     0.001 A 
HETATM   29  C   UNL     1     -44.217  60.179 -50.985  1.00  0.00     0.000 A 
HETATM   30  C   UNL     1     -44.890  59.027 -51.385  1.00  0.00     0.001 A 
HETATM   31  C   UNL     1     -44.904  58.657 -52.731  1.00  0.00     0.007 A 
ENDBRANCH  25  26
ENDBRANCH  24  25
ENDBRANCH  23  24
ENDBRANCH   1  23
TORSDOF 6
ENDMDL
MODEL 6
REMARK VINA RESULT:      -8.4      2.477      6.263
REMARK  6 active torsions:
REMARK  status: ('A' for Active; 'I' for Inactive)
REMARK    1  A    between atoms: C_4  and  C_5 
REMARK    2  A    between atoms: C_5  and  C_6 
REMARK    3  A    between atoms: C_6  and  C_7 
REMARK    4  A    between atoms: C_7  and  N_8 
REMARK    5  A    between atoms: C_11  and  O_12 
REMARK    6  A    between atoms: C_11  and  C_13 
ROOT
HETATM    1  N   UNL     1     -42.394  57.417 -51.706  1.00  0.00    -0.314 N 
HETATM    2  C   UNL     1     -41.455  57.940 -52.609  1.00  0.00     0.269 A 
HETATM    3  O   UNL     1     -40.278  57.617 -52.702  1.00  0.00    -0.269 OA
HETATM    4  C   UNL     1     -42.173  59.054 -53.431  1.00  0.00     0.198 A 
HETATM    5  C   UNL     1     -43.540  59.081 -52.796  1.00  0.00     0.017 A 
HETATM    6  C   UNL     1     -43.611  58.110 -51.791  1.00  0.00     0.047 A 
HETATM    7  C   UNL     1     -44.612  59.931 -53.035  1.00  0.00     0.013 A 
HETATM    8  C   UNL     1     -45.768  59.776 -52.265  1.00  0.00     0.001 A 
HETATM    9  C   UNL     1     -45.835  58.791 -51.267  1.00  0.00     0.002 A 
HETATM   10  C   UNL     1     -44.749  57.947 -51.020  1.00  0.00     0.030 A 
ENDROOT
BRANCH   4  11
HETATM   11  O   UNL     1     -41.523  60.307 -53.242  1.00  0.00    -0.371 OA
HETATM   12  H   UNL     1     -40.791  60.108 -52.631  1.00  0.00     0.212 HD
ENDBRANCH   4  11
BRANCH   4  13
HETATM   13  C   UNL     1     -42.360  58.722 -54.891  1.00  0.00     0.018 A 
HETATM   14  C   UNL     1     -42.608  57.443 -55.514  1.00  0.00     0.002 A 
HETATM   15  C   UNL     1     -42.672  57.653 -56.894  1.00  0.00     0.043 A 
HETATM   16  C   UNL     1     -42.779  56.120 -55.046  1.00  0.00     0.014 A 
HETATM   17  C   UNL     1     -42.882  56.621 -57.818  1.00  0.00     0.030 A 
HETATM   18  N   UNL     1     -42.493  58.996 -57.114  1.00  0.00    -0.365 N 
HETATM   19  C   UNL     1     -43.034  55.325 -57.323  1.00  0.00     0.002 A 
HETATM   20  C   UNL     1     -42.986  55.076 -55.956  1.00  0.00     0.001 A 
HETATM   21  H   UNL     1     -42.496  59.433 -58.025  1.00  0.00     0.165 HD
HETATM   22  C   UNL     1     -42.303  59.645 -55.929  1.00  0.00     0.100 A 
ENDBRANCH   4  13
BRANCH   1  23
HETATM   23  C   UNL     1     -42.071  56.426 -50.708  1.00  0.00     0.133 C 
BRANCH  23  24
HETATM   24  C   UNL     1     -42.158  55.008 -51.268  1.00  0.00     0.025 C 
BRANCH  24  25
HETATM   25  C   UNL     1     -40.907  54.200 -50.924  1.00  0.00     0.040 C 
BRANCH  25  26
HETATM   26  C   UNL     1     -40.575  53.217 -52.018  1.00  0.00    -0.058 A 
HETATM   27  C   UNL     1     -39.865  52.044 -51.728  1.00  0.00     0.007 A 
HETATM   28  C   UNL     1     -39.527  51.152 -52.747  1.00  0.00     0.001 A 
HETATM   29  C   UNL     1     -39.893  51.426 -54.064  1.00  0.00     0.000 A 
HETATM   30  C   UNL     1     -40.596  52.591 -54.363  1.00  0.00     0.001 A 
HETATM   31  C   UNL     1     -40.934  53.485 -53.346  1.00  0.00     0.007 A 
ENDBRANCH  25  26
ENDBRANCH  24  25
ENDBRANCH  23  24
ENDBRANCH   1  23
TORSDOF 6
ENDMDL
MODEL 7
REMARK VINA RESULT:      -8.4      1.740      2.395
REMARK  6 active torsions:
REMARK  status: ('A' for Active; 'I' for Inactive)
REMARK    1  A    between atoms: C_4  and  C_5 
REMARK    2  A    between atoms: C_5  and  C_6 
REMARK    3  A    between atoms: C_6  and  C_7 
REMARK    4  A    between atoms: C_7  and  N_8 
REMARK    5  A    between atoms: C_11  and  O_12 
REMARK    6  A    between atoms: C_11  and  C_13 
ROOT
HETATM    1  N   UNL     1     -42.722  57.577 -55.011  1.00  0.00    -0.314 N 
HETATM    2  C   UNL     1     -42.599  56.185 -55.139  1.00  0.00     0.269 A 
HETATM    3  O   UNL     1     -42.168  55.580 -56.112  1.00  0.00    -0.269 OA
HETATM    4  C   UNL     1     -43.171  55.547 -53.837  1.00  0.00     0.198 A 
HETATM    5  C   UNL     1     -43.657  56.757 -53.081  1.00  0.00     0.017 A 
HETATM    6  C   UNL     1     -43.375  57.914 -53.816  1.00  0.00     0.047 A 
HETATM    7  C   UNL     1     -44.347  56.834 -51.878  1.00  0.00     0.013 A 
HETATM    8  C   UNL     1     -44.731  58.094 -51.412  1.00  0.00     0.001 A 
HETATM    9  C   UNL     1     -44.433  59.251 -52.149  1.00  0.00     0.002 A 
HETATM   10  C   UNL     1     -43.751  59.168 -53.366  1.00  0.00     0.030 A 
ENDROOT
BRANCH   4  11
HETATM   11  O   UNL     1     -44.268  54.692 -54.143  1.00  0.00    -0.371 OA
HETATM   12  H   UNL     1     -43.863  53.813 -54.256  1.00  0.00     0.212 HD
ENDBRANCH   4  11
BRANCH   4  13
HETATM   13  C   UNL     1     -42.137  54.862 -52.977  1.00  0.00     0.018 A 
HETATM   14  C   UNL     1     -41.390  53.653 -53.233  1.00  0.00     0.002 A 
HETATM   15  C   UNL     1     -40.582  53.414 -52.119  1.00  0.00     0.043 A 
HETATM   16  C   UNL     1     -41.322  52.728 -54.299  1.00  0.00     0.014 A 
HETATM   17  C   UNL     1     -39.731  52.307 -52.012  1.00  0.00     0.030 A 
HETATM   18  N   UNL     1     -40.801  54.434 -51.227  1.00  0.00    -0.365 N 
HETATM   19  C   UNL     1     -39.697  51.406 -53.077  1.00  0.00     0.002 A 
HETATM   20  C   UNL     1     -40.480  51.612 -54.207  1.00  0.00     0.001 A 
HETATM   21  H   UNL     1     -40.343  54.520 -50.330  1.00  0.00     0.165 HD
HETATM   22  C   UNL     1     -41.728  55.303 -51.724  1.00  0.00     0.100 A 
ENDBRANCH   4  13
BRANCH   1  23
HETATM   23  C   UNL     1     -42.383  58.506 -56.063  1.00  0.00     0.133 C 
BRANCH  23  24
HETATM   24  C   UNL     1     -43.465  58.562 -57.140  1.00  0.00     0.025 C 
BRANCH  24  25
HETATM   25  C   UNL     1     -42.924  58.099 -58.491  1.00  0.00     0.040 C 
BRANCH  25  26
HETATM   26  C   UNL     1     -43.825  57.061 -59.113  1.00  0.00    -0.058 A 
HETATM   27  C   UNL     1     -45.165  57.360 -59.392  1.00  0.00     0.007 A 
HETATM   28  C   UNL     1     -46.007  56.387 -59.934  1.00  0.00     0.001 A 
HETATM   29  C   UNL     1     -45.518  55.109 -60.198  1.00  0.00     0.000 A 
HETATM   30  C   UNL     1     -44.189  54.801 -59.921  1.00  0.00     0.001 A 
HETATM   31  C   UNL     1     -43.345  55.772 -59.378  1.00  0.00     0.007 A 
ENDBRANCH  25  26
ENDBRANCH  24  25
ENDBRANCH  23  24
ENDBRANCH   1  23
TORSDOF 6
ENDMDL
MODEL 8
REMARK VINA RESULT:      -8.4     14.779     17.014
REMARK  6 active torsions:
REMARK  status: ('A' for Active; 'I' for Inactive)
REMARK    1  A    between atoms: C_4  and  C_5 
REMARK    2  A    between atoms: C_5  and  C_6 
REMARK    3  A    between atoms: C_6  and  C_7 
REMARK    4  A    between atoms: C_7  and  N_8 
REMARK    5  A    between atoms: C_11  and  O_12 
REMARK    6  A    between atoms: C_11  and  C_13 
ROOT
HETATM    1  N   UNL     1     -35.605  40.718 -54.051  1.00  0.00    -0.314 N 
HETATM    2  C   UNL     1     -35.768  41.196 -52.742  1.00  0.00     0.269 A 
HETATM    3  O   UNL     1     -36.762  41.749 -52.288  1.00  0.00    -0.269 OA
HETATM    4  C   UNL     1     -34.425  40.950 -51.988  1.00  0.00     0.198 A 
HETATM    5  C   UNL     1     -33.558  40.369 -53.074  1.00  0.00     0.017 A 
HETATM    6  C   UNL     1     -34.295  40.262 -54.259  1.00  0.00     0.047 A 
HETATM    7  C   UNL     1     -32.212  40.022 -53.045  1.00  0.00     0.013 A 
HETATM    8  C   UNL     1     -31.624  39.544 -54.219  1.00  0.00     0.001 A 
HETATM    9  C   UNL     1     -32.374  39.428 -55.400  1.00  0.00     0.002 A 
HETATM   10  C   UNL     1     -33.723  39.791 -55.428  1.00  0.00     0.030 A 
ENDROOT
BRANCH   4  11
HETATM   11  O   UNL     1     -33.878  42.184 -51.534  1.00  0.00    -0.371 OA
HETATM   12  H   UNL     1     -33.942  42.774 -52.307  1.00  0.00     0.212 HD
ENDBRANCH   4  11
BRANCH   4  13
HETATM   13  C   UNL     1     -34.515  39.925 -50.884  1.00  0.00     0.018 A 
HETATM   14  C   UNL     1     -33.573  39.634 -49.829  1.00  0.00     0.002 A 
HETATM   15  C   UNL     1     -34.095  38.577 -49.079  1.00  0.00     0.043 A 
HETATM   16  C   UNL     1     -32.319  40.156 -49.435  1.00  0.00     0.014 A 
HETATM   17  C   UNL     1     -33.433  38.015 -47.979  1.00  0.00     0.030 A 
HETATM   18  N   UNL     1     -35.308  38.245 -49.629  1.00  0.00    -0.365 N 
HETATM   19  C   UNL     1     -32.192  38.547 -47.625  1.00  0.00     0.002 A 
HETATM   20  C   UNL     1     -31.642  39.604 -48.341  1.00  0.00     0.001 A 
HETATM   21  H   UNL     1     -35.913  37.512 -49.283  1.00  0.00     0.165 HD
HETATM   22  C   UNL     1     -35.570  39.038 -50.707  1.00  0.00     0.100 A 
ENDBRANCH   4  13
BRANCH   1  23
HETATM   23  C   UNL     1     -36.609  40.858 -55.080  1.00  0.00     0.133 C 
BRANCH  23  24
HETATM   24  C   UNL     1     -36.556  42.235 -55.739  1.00  0.00     0.025 C 
BRANCH  24  25
HETATM   25  C   UNL     1     -35.609  42.236 -56.939  1.00  0.00     0.040 C 
BRANCH  25  26
HETATM   26  C   UNL     1     -36.227  41.535 -58.122  1.00  0.00    -0.058 A 
HETATM   27  C   UNL     1     -35.971  40.177 -58.355  1.00  0.00     0.007 A 
HETATM   28  C   UNL     1     -36.515  39.538 -59.471  1.00  0.00     0.001 A 
HETATM   29  C   UNL     1     -37.315  40.250 -60.362  1.00  0.00     0.000 A 
HETATM   30  C   UNL     1     -37.572  41.601 -60.141  1.00  0.00     0.001 A 
HETATM   31  C   UNL     1     -37.029  42.243 -59.027  1.00  0.00     0.007 A 
ENDBRANCH  25  26
ENDBRANCH  24  25
ENDBRANCH  23  24
ENDBRANCH   1  23
TORSDOF 6
ENDMDL
MODEL 9
REMARK VINA RESULT:      -8.3     15.232     18.542
REMARK  6 active torsions:
REMARK  status: ('A' for Active; 'I' for Inactive)
REMARK    1  A    between atoms: C_4  and  C_5 
REMARK    2  A    between atoms: C_5  and  C_6 
REMARK    3  A    between atoms: C_6  and  C_7 
REMARK    4  A    between atoms: C_7  and  N_8 
REMARK    5  A    between atoms: C_11  and  O_12 
REMARK    6  A    between atoms: C_11  and  C_13 
ROOT
HETATM    1  N   UNL     1     -33.819  39.879 -53.372  1.00  0.00    -0.314 N 
HETATM    2  C   UNL     1     -33.423  40.463 -54.586  1.00  0.00     0.269 A 
HETATM    3  O   UNL     1     -32.280  40.540 -55.017  1.00  0.00    -0.269 OA
HETATM    4  C   UNL     1     -34.703  41.051 -55.255  1.00  0.00     0.198 A 
HETATM    5  C   UNL     1     -35.759  40.765 -54.218  1.00  0.00     0.017 A 
HETATM    6  C   UNL     1     -35.186  40.085 -53.138  1.00  0.00     0.047 A 
HETATM    7  C   UNL     1     -37.100  41.128 -54.195  1.00  0.00     0.013 A 
HETATM    8  C   UNL     1     -37.864  40.777 -53.078  1.00  0.00     0.001 A 
HETATM    9  C   UNL     1     -37.284  40.084 -52.004  1.00  0.00     0.002 A 
HETATM   10  C   UNL     1     -35.931  39.734 -52.026  1.00  0.00     0.030 A 
ENDROOT
BRANCH   4  11
HETATM   11  O   UNL     1     -34.567  42.457 -55.436  1.00  0.00    -0.371 OA
HETATM   12  H   UNL     1     -34.153  42.767 -54.610  1.00  0.00     0.212 HD
ENDBRANCH   4  11
BRANCH   4  13
HETATM   13  C   UNL     1     -35.115  40.349 -56.526  1.00  0.00     0.018 A 
HETATM   14  C   UNL     1     -35.887  40.851 -57.638  1.00  0.00     0.002 A 
HETATM   15  C   UNL     1     -36.028  39.807 -58.557  1.00  0.00     0.043 A 
HETATM   16  C   UNL     1     -36.490  42.088 -57.959  1.00  0.00     0.014 A 
HETATM   17  C   UNL     1     -36.742  39.932 -59.756  1.00  0.00     0.030 A 
HETATM   18  N   UNL     1     -35.360  38.721 -58.049  1.00  0.00    -0.365 N 
HETATM   19  C   UNL     1     -37.335  41.164 -60.036  1.00  0.00     0.002 A 
HETATM   20  C   UNL     1     -37.211  42.230 -59.152  1.00  0.00     0.001 A 
HETATM   21  H   UNL     1     -35.293  37.824 -58.509  1.00  0.00     0.165 HD
HETATM   22  C   UNL     1     -34.814  39.029 -56.837  1.00  0.00     0.100 A 
ENDBRANCH   4  13
BRANCH   1  23
HETATM   23  C   UNL     1     -32.890  39.312 -52.423  1.00  0.00     0.133 C 
BRANCH  23  24
HETATM   24  C   UNL     1     -32.189  40.391 -51.601  1.00  0.00     0.025 C 
BRANCH  24  25
HETATM   25  C   UNL     1     -32.997  40.746 -50.353  1.00  0.00     0.040 C 
BRANCH  25  26
HETATM   26  C   UNL     1     -32.719  39.779 -49.231  1.00  0.00    -0.058 A 
HETATM   27  C   UNL     1     -33.619  38.743 -48.946  1.00  0.00     0.007 A 
HETATM   28  C   UNL     1     -33.378  37.870 -47.884  1.00  0.00     0.001 A 
HETATM   29  C   UNL     1     -32.239  38.027 -47.096  1.00  0.00     0.000 A 
HETATM   30  C   UNL     1     -31.341  39.056 -47.368  1.00  0.00     0.001 A 
HETATM   31  C   UNL     1     -31.579  39.931 -48.429  1.00  0.00     0.007 A 
ENDBRANCH  25  26
ENDBRANCH  24  25
ENDBRANCH  23  24
ENDBRANCH   1  23
TORSDOF 6
ENDMDL
MODEL 10
REMARK VINA RESULT:      -8.3      1.412      2.102
REMARK  6 active torsions:
REMARK  status: ('A' for Active; 'I' for Inactive)
REMARK    1  A    between atoms: C_4  and  C_5 
REMARK    2  A    between atoms: C_5  and  C_6 
REMARK    3  A    between atoms: C_6  and  C_7 
REMARK    4  A    between atoms: C_7  and  N_8 
REMARK    5  A    between atoms: C_11  and  O_12 
REMARK    6  A    between atoms: C_11  and  C_13 
ROOT
HETATM    1  N   UNL     1     -42.923  57.572 -54.267  1.00  0.00    -0.314 N 
HETATM    2  C   UNL     1     -43.407  56.259 -54.157  1.00  0.00     0.269 A 
HETATM    3  O   UNL     1     -44.249  55.732 -54.872  1.00  0.00    -0.269 OA
HETATM    4  C   UNL     1     -42.719  55.615 -52.914  1.00  0.00     0.198 A 
HETATM    5  C   UNL     1     -41.902  56.762 -52.378  1.00  0.00     0.017 A 
HETATM    6  C   UNL     1     -42.064  57.881 -53.202  1.00  0.00     0.047 A 
HETATM    7  C   UNL     1     -41.131  56.839 -51.225  1.00  0.00     0.013 A 
HETATM    8  C   UNL     1     -40.505  58.051 -50.924  1.00  0.00     0.001 A 
HETATM    9  C   UNL     1     -40.662  59.166 -51.763  1.00  0.00     0.002 A 
HETATM   10  C   UNL     1     -41.450  59.088 -52.914  1.00  0.00     0.030 A 
ENDROOT
BRANCH   4  11
HETATM   11  O   UNL     1     -43.696  55.222 -51.955  1.00  0.00    -0.371 OA
HETATM   12  H   UNL     1     -43.906  56.043 -51.475  1.00  0.00     0.212 HD
ENDBRANCH   4  11
BRANCH   4  13
HETATM   13  C   UNL     1     -41.763  54.496 -53.247  1.00  0.00     0.018 A 
HETATM   14  C   UNL     1     -41.152  53.525 -52.371  1.00  0.00     0.002 A 
HETATM   15  C   UNL     1     -40.318  52.720 -53.152  1.00  0.00     0.043 A 
HETATM   16  C   UNL     1     -41.214  53.249 -50.986  1.00  0.00     0.014 A 
HETATM   17  C   UNL     1     -39.545  51.677 -52.625  1.00  0.00     0.030 A 
HETATM   18  N   UNL     1     -40.424  53.157 -54.449  1.00  0.00    -0.365 N 
HETATM   19  C   UNL     1     -39.622  51.439 -51.252  1.00  0.00     0.002 A 
HETATM   20  C   UNL     1     -40.445  52.212 -50.442  1.00  0.00     0.001 A 
HETATM   21  H   UNL     1     -39.931  52.751 -55.232  1.00  0.00     0.165 HD
HETATM   22  C   UNL     1     -41.279  54.217 -54.520  1.00  0.00     0.100 A 
ENDBRANCH   4  13
BRANCH   1  23
HETATM   23  C   UNL     1     -43.404  58.517 -55.248  1.00  0.00     0.133 C 
BRANCH  23  24
HETATM   24  C   UNL     1     -42.947  58.151 -56.658  1.00  0.00     0.025 C 
BRANCH  24  25
HETATM   25  C   UNL     1     -44.044  58.433 -57.685  1.00  0.00     0.040 C 
BRANCH  25  26
HETATM   26  C   UNL     1     -44.375  57.197 -58.481  1.00  0.00    -0.058 A 
HETATM   27  C   UNL     1     -43.517  56.089 -58.465  1.00  0.00     0.007 A 
HETATM   28  C   UNL     1     -43.808  54.959 -59.231  1.00  0.00     0.001 A 
HETATM   29  C   UNL     1     -44.955  54.928 -60.021  1.00  0.00     0.000 A 
HETATM   30  C   UNL     1     -45.813  56.025 -60.048  1.00  0.00     0.001 A 
HETATM   31  C   UNL     1     -45.524  57.157 -59.283  1.00  0.00     0.007 A 
ENDBRANCH  25  26
ENDBRANCH  24  25
ENDBRANCH  23  24
ENDBRANCH   1  23
TORSDOF 6
ENDMDL
