MODEL 1
REMARK VINA RESULT:      -8.1      0.000      0.000
REMARK  4 active torsions:
REMARK  status: ('A' for Active; 'I' for Inactive)
REMARK    1  A    between atoms: C_4  and  C_5 
REMARK    2  A    between atoms: C_7  and  C_8 
REMARK       I    between atoms: C_8  and  N_9 
REMARK    3  A    between atoms: N_9  and  C_10 
REMARK    4  A    between atoms: C_13  and  N_14 
ROOT
HETATM    1  C   UNL     1     -42.778  56.432 -56.579  1.00  0.00     0.252 C 
HETATM    2  N   UNL     1     -43.598  55.903 -57.553  1.00  0.00    -0.352 N 
HETATM    3  O   UNL     1     -42.107  57.443 -56.746  1.00  0.00    -0.268 OA
HETATM    4  H   UNL     1     -44.229  55.162 -57.269  1.00  0.00     0.163 HD
ENDROOT
BRANCH   1   5
HETATM    5  C   UNL     1     -42.752  55.741 -55.255  1.00  0.00     0.032 A 
HETATM    6  C   UNL     1     -41.844  54.718 -54.946  1.00  0.00     0.031 A 
HETATM    7  C   UNL     1     -41.858  54.100 -53.684  1.00  0.00    -0.001 A 
HETATM    8  C   UNL     1     -42.785  54.539 -52.728  1.00  0.00     0.014 A 
HETATM    9  C   UNL     1     -43.682  55.566 -53.021  1.00  0.00     0.002 A 
HETATM   10  C   UNL     1     -43.665  56.165 -54.280  1.00  0.00     0.017 A 
BRANCH   7  11
HETATM   11  C   UNL     1     -40.930  53.020 -53.366  1.00  0.00     0.086 A 
HETATM   12  O   UNL     1     -40.841  52.010 -54.285  1.00  0.00    -0.315 OA
HETATM   13  C   UNL     1     -39.969  51.086 -53.791  1.00  0.00     0.050 A 
HETATM   14  C   UNL     1     -39.739  49.882 -54.613  1.00  0.00     0.076 C 
HETATM   15  C   UNL     1     -39.477  51.503 -52.574  1.00  0.00     0.035 A 
HETATM   16  C   UNL     1     -40.099  52.745 -52.298  1.00  0.00     0.040 A 
ENDBRANCH   7  11
ENDBRANCH   1   5
BRANCH   2  17
HETATM   17  C   UNL     1     -43.806  56.417 -58.902  1.00  0.00     0.084 C 
HETATM   18  C   UNL     1     -43.925  55.323 -59.969  1.00  0.00     0.027 C 
HETATM   19  C   UNL     1     -45.321  54.720 -60.110  1.00  0.00     0.035 C 
HETATM   20  C   UNL     1     -46.443  55.756 -60.180  1.00  0.00     0.183 C 
HETATM   21  C   UNL     1     -46.331  56.920 -59.197  1.00  0.00     0.035 C 
HETATM   22  C   UNL     1     -44.915  57.471 -59.025  1.00  0.00     0.027 C 
BRANCH  20  23
HETATM   23  N   UNL     1     -46.465  56.323 -61.567  1.00  0.00    -0.075 N 
HETATM   24  H   UNL     1     -45.670  56.944 -61.754  1.00  0.00     0.274 HD
HETATM   25  H   UNL     1     -46.451  55.572 -62.270  1.00  0.00     0.274 HD
HETATM   26  H   UNL     1     -47.328  56.861 -61.727  1.00  0.00     0.274 HD
ENDBRANCH  20  23
ENDBRANCH   2  17
TORSDOF 4
ENDMDL
MODEL 2
REMARK VINA RESULT:      -7.7      5.504      6.405
REMARK  4 active torsions:
REMARK  status: ('A' for Active; 'I' for Inactive)
REMARK    1  A    between atoms: C_4  and  C_5 
REMARK    2  A    between atoms: C_7  and  C_8 
REMARK       I    between atoms: C_8  and  N_9 
REMARK    3  A    between atoms: N_9  and  C_10 
REMARK    4  A    between atoms: C_13  and  N_14 
ROOT
HETATM    1  C   UNL     1     -41.564  56.559 -51.888  1.00  0.00     0.252 C 
HETATM    2  N   UNL     1     -42.522  57.422 -51.400  1.00  0.00    -0.352 N 
HETATM    3  O   UNL     1     -41.015  56.712 -52.972  1.00  0.00    -0.268 OA
HETATM    4  H   UNL     1     -42.799  57.300 -50.432  1.00  0.00     0.163 HD
ENDROOT
BRANCH   1   5
HETATM    5  C   UNL     1     -41.169  55.410 -51.018  1.00  0.00     0.032 A 
HETATM    6  C   UNL     1     -40.808  54.155 -51.530  1.00  0.00     0.031 A 
HETATM    7  C   UNL     1     -40.442  53.105 -50.670  1.00  0.00    -0.001 A 
HETATM    8  C   UNL     1     -40.425  53.341 -49.288  1.00  0.00     0.014 A 
HETATM    9  C   UNL     1     -40.769  54.589 -48.771  1.00  0.00     0.002 A 
HETATM   10  C   UNL     1     -41.140  55.620 -49.634  1.00  0.00     0.017 A 
BRANCH   7  11
HETATM   11  C   UNL     1     -40.087  51.792 -51.197  1.00  0.00     0.086 A 
HETATM   12  O   UNL     1     -39.940  51.706 -52.554  1.00  0.00    -0.315 OA
HETATM   13  C   UNL     1     -39.658  50.406 -52.851  1.00  0.00     0.050 A 
HETATM   14  C   UNL     1     -39.486  50.071 -54.278  1.00  0.00     0.076 C 
HETATM   15  C   UNL     1     -39.598  49.659 -51.696  1.00  0.00     0.035 A 
HETATM   16  C   UNL     1     -39.879  50.550 -50.631  1.00  0.00     0.040 A 
ENDBRANCH   7  11
ENDBRANCH   1   5
BRANCH   2  17
HETATM   17  C   UNL     1     -43.043  58.618 -52.053  1.00  0.00     0.084 C 
HETATM   18  C   UNL     1     -44.569  58.748 -51.979  1.00  0.00     0.027 C 
HETATM   19  C   UNL     1     -45.093  59.368 -50.686  1.00  0.00     0.035 C 
HETATM   20  C   UNL     1     -44.358  60.640 -50.261  1.00  0.00     0.183 C 
HETATM   21  C   UNL     1     -42.836  60.600 -50.396  1.00  0.00     0.035 C 
HETATM   22  C   UNL     1     -42.330  59.922 -51.670  1.00  0.00     0.027 C 
BRANCH  20  23
HETATM   23  N   UNL     1     -44.867  61.772 -51.100  1.00  0.00    -0.075 N 
HETATM   24  H   UNL     1     -45.892  61.819 -51.123  1.00  0.00     0.274 HD
HETATM   25  H   UNL     1     -44.518  62.674 -50.750  1.00  0.00     0.274 HD
HETATM   26  H   UNL     1     -44.537  61.684 -52.071  1.00  0.00     0.274 HD
ENDBRANCH  20  23
ENDBRANCH   2  17
TORSDOF 4
ENDMDL
MODEL 3
REMARK VINA RESULT:      -7.7      4.651      5.850
REMARK  4 active torsions:
REMARK  status: ('A' for Active; 'I' for Inactive)
REMARK    1  A    between atoms: C_4  and  C_5 
REMARK    2  A    between atoms: C_7  and  C_8 
REMARK       I    between atoms: C_8  and  N_9 
REMARK    3  A    between atoms: N_9  and  C_10 
REMARK    4  A    between atoms: C_13  and  N_14 
ROOT
HETATM    1  C   UNL     1     -41.868  56.319 -51.814  1.00  0.00     0.252 C 
HETATM    2  N   UNL     1     -42.675  57.352 -52.241  1.00  0.00    -0.352 N 
HETATM    3  O   UNL     1     -41.647  56.087 -50.632  1.00  0.00    -0.268 OA
HETATM    4  H   UNL     1     -42.923  57.365 -53.224  1.00  0.00     0.163 HD
ENDROOT
BRANCH   1   5
HETATM    5  C   UNL     1     -41.276  55.434 -52.862  1.00  0.00     0.032 A 
HETATM    6  C   UNL     1     -40.995  54.077 -52.645  1.00  0.00     0.031 A 
HETATM    7  C   UNL     1     -40.438  53.285 -53.664  1.00  0.00    -0.001 A 
HETATM    8  C   UNL     1     -40.187  53.871 -54.912  1.00  0.00     0.014 A 
HETATM    9  C   UNL     1     -40.476  55.217 -55.142  1.00  0.00     0.002 A 
HETATM   10  C   UNL     1     -41.019  55.995 -54.120  1.00  0.00     0.017 A 
BRANCH   7  11
HETATM   11  C   UNL     1     -40.124  51.879 -53.435  1.00  0.00     0.086 A 
HETATM   12  O   UNL     1     -39.942  51.505 -52.132  1.00  0.00    -0.315 OA
HETATM   13  C   UNL     1     -39.615  50.182 -52.130  1.00  0.00     0.050 A 
HETATM   14  C   UNL     1     -39.341  49.566 -50.817  1.00  0.00     0.076 C 
HETATM   15  C   UNL     1     -39.609  49.694 -53.417  1.00  0.00     0.035 A 
HETATM   16  C   UNL     1     -39.932  50.787 -54.258  1.00  0.00     0.040 A 
ENDBRANCH   7  11
ENDBRANCH   1   5
BRANCH   2  17
HETATM   17  C   UNL     1     -43.378  58.321 -51.407  1.00  0.00     0.084 C 
HETATM   18  C   UNL     1     -42.643  59.658 -51.259  1.00  0.00     0.027 C 
HETATM   19  C   UNL     1     -42.879  60.644 -52.400  1.00  0.00     0.035 C 
HETATM   20  C   UNL     1     -44.348  60.804 -52.793  1.00  0.00     0.183 C 
HETATM   21  C   UNL     1     -45.156  59.509 -52.871  1.00  0.00     0.035 C 
HETATM   22  C   UNL     1     -44.862  58.509 -51.752  1.00  0.00     0.027 C 
BRANCH  20  23
HETATM   23  N   UNL     1     -45.003  61.697 -51.784  1.00  0.00    -0.075 N 
HETATM   24  H   UNL     1     -44.470  61.766 -50.909  1.00  0.00     0.274 HD
HETATM   25  H   UNL     1     -45.120  62.649 -52.157  1.00  0.00     0.274 HD
HETATM   26  H   UNL     1     -45.945  61.354 -51.550  1.00  0.00     0.274 HD
ENDBRANCH  20  23
ENDBRANCH   2  17
TORSDOF 4
ENDMDL
MODEL 4
REMARK VINA RESULT:      -7.5      1.802      2.402
REMARK  4 active torsions:
REMARK  status: ('A' for Active; 'I' for Inactive)
REMARK    1  A    between atoms: C_4  and  C_5 
REMARK    2  A    between atoms: C_7  and  C_8 
REMARK       I    between atoms: C_8  and  N_9 
REMARK    3  A    between atoms: N_9  and  C_10 
REMARK    4  A    between atoms: C_13  and  N_14 
ROOT
HETATM    1  C   UNL     1     -42.839  55.551 -57.152  1.00  0.00     0.252 C 
HETATM    2  N   UNL     1     -42.503  56.607 -57.973  1.00  0.00    -0.352 N 
HETATM    3  O   UNL     1     -43.585  54.644 -57.499  1.00  0.00    -0.268 OA
HETATM    4  H   UNL     1     -41.760  57.218 -57.653  1.00  0.00     0.163 HD
ENDROOT
BRANCH   1   5
HETATM    5  C   UNL     1     -42.222  55.517 -55.792  1.00  0.00     0.032 A 
HETATM    6  C   UNL     1     -41.622  54.368 -55.255  1.00  0.00     0.031 A 
HETATM    7  C   UNL     1     -41.054  54.386 -53.970  1.00  0.00    -0.001 A 
HETATM    8  C   UNL     1     -41.078  55.583 -53.239  1.00  0.00     0.014 A 
HETATM    9  C   UNL     1     -41.659  56.734 -53.770  1.00  0.00     0.002 A 
HETATM   10  C   UNL     1     -42.228  56.700 -55.043  1.00  0.00     0.017 A 
BRANCH   7  11
HETATM   11  C   UNL     1     -40.449  53.188 -53.399  1.00  0.00     0.086 A 
HETATM   12  O   UNL     1     -40.253  52.142 -54.259  1.00  0.00    -0.315 OA
HETATM   13  C   UNL     1     -39.729  51.113 -53.535  1.00  0.00     0.050 A 
HETATM   14  C   UNL     1     -39.460  49.857 -54.262  1.00  0.00     0.076 C 
HETATM   15  C   UNL     1     -39.562  51.494 -52.222  1.00  0.00     0.035 A 
HETATM   16  C   UNL     1     -40.030  52.827 -52.133  1.00  0.00     0.040 A 
ENDBRANCH   7  11
ENDBRANCH   1   5
BRANCH   2  17
HETATM   17  C   UNL     1     -42.957  56.836 -59.340  1.00  0.00     0.084 C 
HETATM   18  C   UNL     1     -44.408  57.319 -59.437  1.00  0.00     0.027 C 
HETATM   19  C   UNL     1     -44.593  58.823 -59.248  1.00  0.00     0.035 C 
HETATM   20  C   UNL     1     -43.618  59.678 -60.056  1.00  0.00     0.183 C 
HETATM   21  C   UNL     1     -42.168  59.196 -60.068  1.00  0.00     0.035 C 
HETATM   22  C   UNL     1     -42.005  57.681 -60.199  1.00  0.00     0.027 C 
BRANCH  20  23
HETATM   23  N   UNL     1     -44.103  59.721 -61.473  1.00  0.00    -0.075 N 
HETATM   24  H   UNL     1     -44.346  60.669 -61.782  1.00  0.00     0.274 HD
HETATM   25  H   UNL     1     -43.388  59.354 -62.116  1.00  0.00     0.274 HD
HETATM   26  H   UNL     1     -44.937  59.130 -61.591  1.00  0.00     0.274 HD
ENDBRANCH  20  23
ENDBRANCH   2  17
TORSDOF 4
ENDMDL
MODEL 5
REMARK VINA RESULT:      -7.2      1.984      2.862
REMARK  4 active torsions:
REMARK  status: ('A' for Active; 'I' for Inactive)
REMARK    1  A    between atoms: C_4  and  C_5 
REMARK    2  A    between atoms: C_7  and  C_8 
REMARK       I    between atoms: C_8  and  N_9 
REMARK    3  A    between atoms: N_9  and  C_10 
REMARK    4  A    between atoms: C_13  and  N_14 
ROOT
HETATM    1  C   UNL     1     -43.531  56.502 -54.728  1.00  0.00     0.252 C 
HETATM    2  N   UNL     1     -42.969  56.824 -55.945  1.00  0.00    -0.352 N 
HETATM    3  O   UNL     1     -44.713  56.688 -54.466  1.00  0.00    -0.268 OA
HETATM    4  H   UNL     1     -42.029  56.488 -56.119  1.00  0.00     0.163 HD
ENDROOT
BRANCH   1   5
HETATM    5  C   UNL     1     -42.642  55.866 -53.709  1.00  0.00     0.032 A 
HETATM    6  C   UNL     1     -42.026  54.621 -53.905  1.00  0.00     0.031 A 
HETATM    7  C   UNL     1     -41.197  54.065 -52.915  1.00  0.00    -0.001 A 
HETATM    8  C   UNL     1     -40.979  54.787 -51.734  1.00  0.00     0.014 A 
HETATM    9  C   UNL     1     -41.576  56.032 -51.536  1.00  0.00     0.002 A 
HETATM   10  C   UNL     1     -42.405  56.569 -52.521  1.00  0.00     0.017 A 
BRANCH   7  11
HETATM   11  C   UNL     1     -40.572  52.761 -53.106  1.00  0.00     0.086 A 
HETATM   12  O   UNL     1     -40.294  52.051 -51.970  1.00  0.00    -0.315 OA
HETATM   13  C   UNL     1     -39.678  50.897 -52.351  1.00  0.00     0.050 A 
HETATM   14  C   UNL     1     -39.257  49.980 -51.273  1.00  0.00     0.076 C 
HETATM   15  C   UNL     1     -39.577  50.845 -53.723  1.00  0.00     0.035 A 
HETATM   16  C   UNL     1     -40.148  52.046 -54.209  1.00  0.00     0.040 A 
ENDBRANCH   7  11
ENDBRANCH   1   5
BRANCH   2  17
HETATM   17  C   UNL     1     -43.641  57.423 -57.093  1.00  0.00     0.084 C 
HETATM   18  C   UNL     1     -43.073  58.788 -57.498  1.00  0.00     0.027 C 
HETATM   19  C   UNL     1     -41.843  58.724 -58.400  1.00  0.00     0.035 C 
HETATM   20  C   UNL     1     -41.981  57.755 -59.575  1.00  0.00     0.183 C 
HETATM   21  C   UNL     1     -42.622  56.407 -59.248  1.00  0.00     0.035 C 
HETATM   22  C   UNL     1     -43.816  56.487 -58.296  1.00  0.00     0.027 C 
BRANCH  20  23
HETATM   23  N   UNL     1     -42.813  58.419 -60.628  1.00  0.00    -0.075 N 
HETATM   24  H   UNL     1     -42.282  58.622 -61.484  1.00  0.00     0.274 HD
HETATM   25  H   UNL     1     -43.615  57.830 -60.888  1.00  0.00     0.274 HD
HETATM   26  H   UNL     1     -43.199  59.308 -60.282  1.00  0.00     0.274 HD
ENDBRANCH  20  23
ENDBRANCH   2  17
TORSDOF 4
ENDMDL
MODEL 6
REMARK VINA RESULT:      -7.1      2.342      3.580
REMARK  4 active torsions:
REMARK  status: ('A' for Active; 'I' for Inactive)
REMARK    1  A    between atoms: C_4  and  C_5 
REMARK    2  A    between atoms: C_7  and  C_8 
REMARK       I    between atoms: C_8  and  N_9 
REMARK    3  A    between atoms: N_9  and  C_10 
REMARK    4  A    between atoms: C_13  and  N_14 
ROOT
HETATM    1  C   UNL     1     -42.902  56.863 -57.135  1.00  0.00     0.252 C 
HETATM    2  N   UNL     1     -43.917  56.459 -57.976  1.00  0.00    -0.352 N 
HETATM    3  O   UNL     1     -42.230  57.869 -57.333  1.00  0.00    -0.268 OA
HETATM    4  H   UNL     1     -44.514  55.709 -57.646  1.00  0.00     0.163 HD
ENDROOT
BRANCH   1   5
HETATM    5  C   UNL     1     -42.653  56.040 -55.914  1.00  0.00     0.032 A 
HETATM    6  C   UNL     1     -42.252  56.594 -54.689  1.00  0.00     0.031 A 
HETATM    7  C   UNL     1     -42.031  55.776 -53.568  1.00  0.00    -0.001 A 
HETATM    8  C   UNL     1     -42.241  54.395 -53.688  1.00  0.00     0.014 A 
HETATM    9  C   UNL     1     -42.654  53.837 -54.898  1.00  0.00     0.002 A 
HETATM   10  C   UNL     1     -42.860  54.657 -56.007  1.00  0.00     0.017 A 
BRANCH   7  11
HETATM   11  C   UNL     1     -41.593  56.345 -52.298  1.00  0.00     0.086 A 
HETATM   12  O   UNL     1     -40.984  57.569 -52.363  1.00  0.00    -0.315 OA
HETATM   13  C   UNL     1     -40.610  57.905 -51.096  1.00  0.00     0.050 A 
HETATM   14  C   UNL     1     -39.901  59.189 -50.930  1.00  0.00     0.076 C 
HETATM   15  C   UNL     1     -40.993  56.921 -50.213  1.00  0.00     0.035 A 
HETATM   16  C   UNL     1     -41.621  55.914 -50.986  1.00  0.00     0.040 A 
ENDBRANCH   7  11
ENDBRANCH   1   5
BRANCH   2  17
HETATM   17  C   UNL     1     -44.356  57.113 -59.203  1.00  0.00     0.084 C 
HETATM   18  C   UNL     1     -44.414  56.178 -60.417  1.00  0.00     0.027 C 
HETATM   19  C   UNL     1     -45.700  55.362 -60.530  1.00  0.00     0.035 C 
HETATM   20  C   UNL     1     -46.977  56.179 -60.337  1.00  0.00     0.183 C 
HETATM   21  C   UNL     1     -46.947  57.193 -59.194  1.00  0.00     0.035 C 
HETATM   22  C   UNL     1     -45.630  57.959 -59.060  1.00  0.00     0.027 C 
BRANCH  20  23
HETATM   23  N   UNL     1     -47.248  56.924 -61.609  1.00  0.00    -0.075 N 
HETATM   24  H   UNL     1     -46.650  57.752 -61.719  1.00  0.00     0.274 HD
HETATM   25  H   UNL     1     -47.100  56.319 -62.427  1.00  0.00     0.274 HD
HETATM   26  H   UNL     1     -48.227  57.239 -61.646  1.00  0.00     0.274 HD
ENDBRANCH  20  23
ENDBRANCH   2  17
TORSDOF 4
ENDMDL
MODEL 7
REMARK VINA RESULT:      -7.1      3.981      5.992
REMARK  4 active torsions:
REMARK  status: ('A' for Active; 'I' for Inactive)
REMARK    1  A    between atoms: C_4  and  C_5 
REMARK    2  A    between atoms: C_7  and  C_8 
REMARK       I    between atoms: C_8  and  N_9 
REMARK    3  A    between atoms: N_9  and  C_10 
REMARK    4  A    between atoms: C_13  and  N_14 
ROOT
HETATM    1  C   UNL     1     -43.945  56.859 -51.664  1.00  0.00     0.252 C 
HETATM    2  N   UNL     1     -43.772  58.212 -51.862  1.00  0.00    -0.352 N 
HETATM    3  O   UNL     1     -44.561  56.395 -50.713  1.00  0.00    -0.268 OA
HETATM    4  H   UNL     1     -43.388  58.500 -52.755  1.00  0.00     0.163 HD
ENDROOT
BRANCH   1   5
HETATM    5  C   UNL     1     -43.376  55.937 -52.693  1.00  0.00     0.032 A 
HETATM    6  C   UNL     1     -42.453  54.927 -52.385  1.00  0.00     0.031 A 
HETATM    7  C   UNL     1     -41.948  54.083 -53.389  1.00  0.00    -0.001 A 
HETATM    8  C   UNL     1     -42.399  54.255 -54.705  1.00  0.00     0.014 A 
HETATM    9  C   UNL     1     -43.328  55.248 -55.019  1.00  0.00     0.002 A 
HETATM   10  C   UNL     1     -43.815  56.085 -54.015  1.00  0.00     0.017 A 
BRANCH   7  11
HETATM   11  C   UNL     1     -40.971  53.046 -53.077  1.00  0.00     0.086 A 
HETATM   12  O   UNL     1     -40.792  52.078 -54.027  1.00  0.00    -0.315 OA
HETATM   13  C   UNL     1     -39.887  51.186 -53.534  1.00  0.00     0.050 A 
HETATM   14  C   UNL     1     -39.560  50.029 -54.389  1.00  0.00     0.076 C 
HETATM   15  C   UNL     1     -39.461  51.584 -52.286  1.00  0.00     0.035 A 
HETATM   16  C   UNL     1     -40.162  52.778 -51.989  1.00  0.00     0.040 A 
ENDBRANCH   7  11
ENDBRANCH   1   5
BRANCH   2  17
HETATM   17  C   UNL     1     -44.258  59.294 -51.013  1.00  0.00     0.084 C 
HETATM   18  C   UNL     1     -43.388  60.556 -51.061  1.00  0.00     0.027 C 
HETATM   19  C   UNL     1     -43.690  61.493 -52.228  1.00  0.00     0.035 C 
HETATM   20  C   UNL     1     -45.179  61.778 -52.430  1.00  0.00     0.183 C 
HETATM   21  C   UNL     1     -46.106  60.570 -52.307  1.00  0.00     0.035 C 
HETATM   22  C   UNL     1     -45.751  59.612 -51.169  1.00  0.00     0.027 C 
BRANCH  20  23
HETATM   23  N   UNL     1     -45.600  62.790 -51.409  1.00  0.00    -0.075 N 
HETATM   24  H   UNL     1     -46.617  62.930 -51.386  1.00  0.00     0.274 HD
HETATM   25  H   UNL     1     -45.299  62.508 -50.467  1.00  0.00     0.274 HD
HETATM   26  H   UNL     1     -45.163  63.703 -51.598  1.00  0.00     0.274 HD
ENDBRANCH  20  23
ENDBRANCH   2  17
TORSDOF 4
ENDMDL
MODEL 8
REMARK VINA RESULT:      -7.0     14.233     16.907
REMARK  4 active torsions:
REMARK  status: ('A' for Active; 'I' for Inactive)
REMARK    1  A    between atoms: C_4  and  C_5 
REMARK    2  A    between atoms: C_7  and  C_8 
REMARK       I    between atoms: C_8  and  N_9 
REMARK    3  A    between atoms: N_9  and  C_10 
REMARK    4  A    between atoms: C_13  and  N_14 
ROOT
HETATM    1  C   UNL     1     -35.671  41.650 -53.065  1.00  0.00     0.252 C 
HETATM    2  N   UNL     1     -35.983  41.349 -54.373  1.00  0.00    -0.352 N 
HETATM    3  O   UNL     1     -35.561  42.797 -52.649  1.00  0.00    -0.268 OA
HETATM    4  H   UNL     1     -36.206  40.382 -54.581  1.00  0.00     0.163 HD
ENDROOT
BRANCH   1   5
HETATM    5  C   UNL     1     -35.500  40.505 -52.120  1.00  0.00     0.032 A 
HETATM    6  C   UNL     1     -34.472  40.451 -51.166  1.00  0.00     0.031 A 
HETATM    7  C   UNL     1     -34.354  39.352 -50.298  1.00  0.00    -0.001 A 
HETATM    8  C   UNL     1     -35.296  38.317 -50.387  1.00  0.00     0.014 A 
HETATM    9  C   UNL     1     -36.329  38.370 -51.322  1.00  0.00     0.002 A 
HETATM   10  C   UNL     1     -36.430  39.461 -52.185  1.00  0.00     0.017 A 
BRANCH   7  11
HETATM   11  C   UNL     1     -33.274  39.281 -49.320  1.00  0.00     0.086 A 
HETATM   12  O   UNL     1     -33.453  38.406 -48.284  1.00  0.00    -0.315 OA
HETATM   13  C   UNL     1     -32.370  38.519 -47.464  1.00  0.00     0.050 A 
HETATM   14  C   UNL     1     -32.363  37.677 -46.251  1.00  0.00     0.076 C 
HETATM   15  C   UNL     1     -31.484  39.441 -47.974  1.00  0.00     0.035 A 
HETATM   16  C   UNL     1     -32.067  39.935 -49.166  1.00  0.00     0.040 A 
ENDBRANCH   7  11
ENDBRANCH   1   5
BRANCH   2  17
HETATM   17  C   UNL     1     -36.221  42.293 -55.460  1.00  0.00     0.084 C 
HETATM   18  C   UNL     1     -35.113  42.308 -56.519  1.00  0.00     0.027 C 
HETATM   19  C   UNL     1     -35.239  41.225 -57.588  1.00  0.00     0.035 C 
HETATM   20  C   UNL     1     -36.641  41.097 -58.184  1.00  0.00     0.183 C 
HETATM   21  C   UNL     1     -37.793  41.162 -57.182  1.00  0.00     0.035 C 
HETATM   22  C   UNL     1     -37.621  42.213 -56.085  1.00  0.00     0.027 C 
BRANCH  20  23
HETATM   23  N   UNL     1     -36.827  42.204 -59.176  1.00  0.00    -0.075 N 
HETATM   24  H   UNL     1     -37.519  41.976 -59.900  1.00  0.00     0.274 HD
HETATM   25  H   UNL     1     -37.134  43.067 -58.708  1.00  0.00     0.274 HD
HETATM   26  H   UNL     1     -35.940  42.423 -59.649  1.00  0.00     0.274 HD
ENDBRANCH  20  23
ENDBRANCH   2  17
TORSDOF 4
ENDMDL
MODEL 9
REMARK VINA RESULT:      -6.8      2.667      8.608
REMARK  4 active torsions:
REMARK  status: ('A' for Active; 'I' for Inactive)
REMARK    1  A    between atoms: C_4  and  C_5 
REMARK    2  A    between atoms: C_7  and  C_8 
REMARK       I    between atoms: C_8  and  N_9 
REMARK    3  A    between atoms: N_9  and  C_10 
REMARK    4  A    between atoms: C_13  and  N_14 
ROOT
HETATM    1  C   UNL     1     -42.735  56.530 -57.011  1.00  0.00     0.252 C 
HETATM    2  N   UNL     1     -42.225  55.485 -56.270  1.00  0.00    -0.352 N 
HETATM    3  O   UNL     1     -42.448  57.702 -56.803  1.00  0.00    -0.268 OA
HETATM    4  H   UNL     1     -42.396  54.549 -56.619  1.00  0.00     0.163 HD
ENDROOT
BRANCH   1   5
HETATM    5  C   UNL     1     -43.653  56.186 -58.139  1.00  0.00     0.032 A 
HETATM    6  C   UNL     1     -44.560  57.103 -58.691  1.00  0.00     0.031 A 
HETATM    7  C   UNL     1     -45.402  56.732 -59.753  1.00  0.00    -0.001 A 
HETATM    8  C   UNL     1     -45.305  55.432 -60.268  1.00  0.00     0.014 A 
HETATM    9  C   UNL     1     -44.395  54.518 -59.736  1.00  0.00     0.002 A 
HETATM   10  C   UNL     1     -43.572  54.895 -58.675  1.00  0.00     0.017 A 
BRANCH   7  11
HETATM   11  C   UNL     1     -46.363  57.676 -60.314  1.00  0.00     0.086 A 
HETATM   12  O   UNL     1     -47.306  57.150 -61.154  1.00  0.00    -0.315 OA
HETATM   13  C   UNL     1     -48.070  58.184 -61.606  1.00  0.00     0.050 A 
HETATM   14  C   UNL     1     -49.146  57.850 -62.560  1.00  0.00     0.076 C 
HETATM   15  C   UNL     1     -47.644  59.368 -61.045  1.00  0.00     0.035 A 
HETATM   16  C   UNL     1     -46.542  59.042 -60.218  1.00  0.00     0.040 A 
ENDBRANCH   7  11
ENDBRANCH   1   5
BRANCH   2  17
HETATM   17  C   UNL     1     -41.297  55.574 -55.148  1.00  0.00     0.084 C 
HETATM   18  C   UNL     1     -41.986  55.711 -53.785  1.00  0.00     0.027 C 
HETATM   19  C   UNL     1     -42.431  54.390 -53.162  1.00  0.00     0.035 C 
HETATM   20  C   UNL     1     -41.364  53.295 -53.191  1.00  0.00     0.183 C 
HETATM   21  C   UNL     1     -40.581  53.170 -54.498  1.00  0.00     0.035 C 
HETATM   22  C   UNL     1     -40.197  54.504 -55.138  1.00  0.00     0.027 C 
BRANCH  20  23
HETATM   23  N   UNL     1     -40.385  53.572 -52.091  1.00  0.00    -0.075 N 
HETATM   24  H   UNL     1     -39.583  54.132 -52.405  1.00  0.00     0.274 HD
HETATM   25  H   UNL     1     -40.837  54.077 -51.317  1.00  0.00     0.274 HD
HETATM   26  H   UNL     1     -40.019  52.694 -51.699  1.00  0.00     0.274 HD
ENDBRANCH  20  23
ENDBRANCH   2  17
TORSDOF 4
ENDMDL
MODEL 10
REMARK VINA RESULT:      -6.7      2.717      3.347
REMARK  4 active torsions:
REMARK  status: ('A' for Active; 'I' for Inactive)
REMARK    1  A    between atoms: C_4  and  C_5 
REMARK    2  A    between atoms: C_7  and  C_8 
REMARK       I    between atoms: C_8  and  N_9 
REMARK    3  A    between atoms: N_9  and  C_10 
REMARK    4  A    between atoms: C_13  and  N_14 
ROOT
HETATM    1  C   UNL     1     -42.293  56.430 -55.753  1.00  0.00     0.252 C 
HETATM    2  N   UNL     1     -42.356  57.792 -55.957  1.00  0.00    -0.352 N 
HETATM    3  O   UNL     1     -42.547  55.609 -56.626  1.00  0.00    -0.268 OA
HETATM    4  H   UNL     1     -41.977  58.383 -55.226  1.00  0.00     0.163 HD
ENDROOT
BRANCH   1   5
HETATM    5  C   UNL     1     -41.857  55.958 -54.404  1.00  0.00     0.032 A 
HETATM    6  C   UNL     1     -41.296  54.691 -54.184  1.00  0.00     0.031 A 
HETATM    7  C   UNL     1     -40.900  54.293 -52.895  1.00  0.00    -0.001 A 
HETATM    8  C   UNL     1     -41.056  55.195 -51.833  1.00  0.00     0.014 A 
HETATM    9  C   UNL     1     -41.599  56.463 -52.045  1.00  0.00     0.002 A 
HETATM   10  C   UNL     1     -41.998  56.842 -53.327  1.00  0.00     0.017 A 
BRANCH   7  11
HETATM   11  C   UNL     1     -40.337  52.969 -52.658  1.00  0.00     0.086 A 
HETATM   12  O   UNL     1     -40.197  52.166 -53.757  1.00  0.00    -0.315 OA
HETATM   13  C   UNL     1     -39.705  50.970 -53.328  1.00  0.00     0.050 A 
HETATM   14  C   UNL     1     -39.499  49.928 -54.353  1.00  0.00     0.076 C 
HETATM   15  C   UNL     1     -39.504  51.002 -51.966  1.00  0.00     0.035 A 
HETATM   16  C   UNL     1     -39.916  52.286 -51.534  1.00  0.00     0.040 A 
ENDBRANCH   7  11
ENDBRANCH   1   5
BRANCH   2  17
HETATM   17  C   UNL     1     -42.727  58.480 -57.188  1.00  0.00     0.084 C 
HETATM   18  C   UNL     1     -44.237  58.696 -57.346  1.00  0.00     0.027 C 
HETATM   19  C   UNL     1     -44.781  59.929 -56.630  1.00  0.00     0.035 C 
HETATM   20  C   UNL     1     -43.963  61.199 -56.865  1.00  0.00     0.183 C 
HETATM   21  C   UNL     1     -42.446  61.028 -56.806  1.00  0.00     0.035 C 
HETATM   22  C   UNL     1     -41.925  59.756 -57.477  1.00  0.00     0.027 C 
BRANCH  20  23
HETATM   23  N   UNL     1     -44.316  61.735 -58.218  1.00  0.00    -0.075 N 
HETATM   24  H   UNL     1     -45.003  62.497 -58.177  1.00  0.00     0.274 HD
HETATM   25  H   UNL     1     -43.480  62.091 -58.701  1.00  0.00     0.274 HD
HETATM   26  H   UNL     1     -44.708  60.993 -58.813  1.00  0.00     0.274 HD
ENDBRANCH  20  23
ENDBRANCH   2  17
TORSDOF 4
ENDMDL
