MODEL 1
REMARK VINA RESULT:      -8.5      0.000      0.000
REMARK  10 active torsions:
REMARK  status: ('A' for Active; 'I' for Inactive)
REMARK    1  A    between atoms: C_2  and  C_3 
REMARK    2  A    between atoms: C_3  and  O_4 
REMARK    3  A    between atoms: O_4  and  C_5 
REMARK    4  A    between atoms: C_7  and  C_8 
REMARK       I    between atoms: C_8  and  N_9 
REMARK    5  A    between atoms: N_9  and  C_10 
REMARK    6  A    between atoms: C_10  and  N_11 
REMARK    7  A    between atoms: N_11  and  C_12 
REMARK    8  A    between atoms: C_15  and  N_16 
REMARK    9  A    between atoms: N_19  and  C_21 
REMARK   10  A    between atoms: C_21  and  C_22 
ROOT
HETATM    1  C   UNL     1     -44.775  58.941 -53.441  1.00  0.00     0.034 C 
HETATM    2  C   UNL     1     -45.003  59.019 -52.080  1.00  0.00     0.032 C 
HETATM    3  C   UNL     1     -44.620  57.986 -51.210  1.00  0.00     0.031 C 
HETATM    4  C   UNL     1     -43.914  56.857 -51.641  1.00  0.00     0.030 C 
HETATM    5  C   UNL     1     -43.767  56.749 -53.031  1.00  0.00     0.031 C 
HETATM    6  C   UNL     1     -44.189  57.765 -53.913  1.00  0.00     0.032 C 
ENDROOT
BRANCH   1   7
HETATM    7  N   UNL     1     -45.046  59.945 -54.395  1.00  0.00    -0.333 N 
HETATM    8  H   UNL     1     -45.997  59.939 -54.749  1.00  0.00     0.168 HD
BRANCH   7   9
HETATM    9  C   UNL     1     -44.276  60.769 -55.148  1.00  0.00     0.179 C 
HETATM   10  S   UNL     1     -43.955  62.297 -54.539  1.00  0.00    -0.040 SA
BRANCH   9  11
HETATM   11  N   UNL     1     -43.878  60.497 -56.413  1.00  0.00    -0.299 N 
HETATM   12  C   UNL     1     -42.641  59.980 -56.749  1.00  0.00     0.257 C 
HETATM   13  O   UNL     1     -41.713  59.840 -55.960  1.00  0.00    -0.267 OA
HETATM   14  H   UNL     1     -44.149  61.238 -57.047  1.00  0.00     0.171 HD
BRANCH  12  15
HETATM   15  C   UNL     1     -42.497  59.515 -58.167  1.00  0.00     0.035 A 
HETATM   16  C   UNL     1     -42.503  58.157 -58.521  1.00  0.00     0.053 A 
HETATM   17  C   UNL     1     -42.247  57.788 -59.843  1.00  0.00     0.069 A 
HETATM   18  C   UNL     1     -41.927  58.747 -60.800  1.00  0.00     0.037 A 
HETATM   19  C   UNL     1     -41.926  60.096 -60.457  1.00  0.00     0.004 A 
HETATM   20  C   UNL     1     -42.217  60.480 -59.147  1.00  0.00     0.017 A 
BRANCH  17  21
HETATM   21  O   UNL     1     -42.201  56.476 -60.229  1.00  0.00    -0.351 OA
BRANCH  21  22
HETATM   22  C   UNL     1     -43.191  55.661 -59.588  1.00  0.00     0.175 C 
BRANCH  22  23
HETATM   23  C   UNL     1     -44.406  55.397 -60.481  1.00  0.00     0.022 C 
HETATM   24  C   UNL     1     -45.651  56.135 -60.013  1.00  0.00     0.007 C 
ENDBRANCH  22  23
ENDBRANCH  21  22
ENDBRANCH  17  21
ENDBRANCH  12  15
ENDBRANCH   9  11
ENDBRANCH   7   9
ENDBRANCH   1   7
BRANCH   4  25
HETATM   25  N   UNL     1     -43.417  55.896 -50.741  1.00  0.00    -0.378 N 
HETATM   26  C   UNL     1     -42.019  56.048 -50.268  1.00  0.00     0.150 C 
HETATM   27  C   UNL     1     -41.032  55.595 -51.370  1.00  0.00     0.255 C 
HETATM   28  N   UNL     1     -41.322  54.141 -51.774  1.00  0.00    -0.064 N 
HETATM   29  H   UNL     1     -41.124  53.563 -50.951  1.00  0.00     0.280 HD
HETATM   30  C   UNL     1     -42.803  53.931 -52.128  1.00  0.00     0.255 C 
HETATM   31  C   UNL     1     -43.724  54.472 -51.009  1.00  0.00     0.150 C 
BRANCH  28  32
HETATM   32  C   UNL     1     -40.434  53.656 -52.897  1.00  0.00     0.273 C 
BRANCH  32  33
HETATM   33  C   UNL     1     -40.098  52.189 -52.848  1.00  0.00    -0.033 A 
HETATM   34  C   UNL     1     -39.784  51.548 -51.639  1.00  0.00     0.009 A 
HETATM   35  C   UNL     1     -39.485  50.184 -51.618  1.00  0.00     0.001 A 
HETATM   36  C   UNL     1     -39.519  49.442 -52.796  1.00  0.00     0.000 A 
HETATM   37  C   UNL     1     -39.852  50.061 -53.998  1.00  0.00     0.001 A 
HETATM   38  C   UNL     1     -40.140  51.426 -54.025  1.00  0.00     0.009 A 
ENDBRANCH  32  33
ENDBRANCH  28  32
ENDBRANCH   4  25
TORSDOF 10
ENDMDL
MODEL 2
REMARK VINA RESULT:      -8.5      1.279      2.071
REMARK  10 active torsions:
REMARK  status: ('A' for Active; 'I' for Inactive)
REMARK    1  A    between atoms: C_2  and  C_3 
REMARK    2  A    between atoms: C_3  and  O_4 
REMARK    3  A    between atoms: O_4  and  C_5 
REMARK    4  A    between atoms: C_7  and  C_8 
REMARK       I    between atoms: C_8  and  N_9 
REMARK    5  A    between atoms: N_9  and  C_10 
REMARK    6  A    between atoms: C_10  and  N_11 
REMARK    7  A    between atoms: N_11  and  C_12 
REMARK    8  A    between atoms: C_15  and  N_16 
REMARK    9  A    between atoms: N_19  and  C_21 
REMARK   10  A    between atoms: C_21  and  C_22 
ROOT
HETATM    1  C   UNL     1     -43.591  59.627 -52.680  1.00  0.00     0.034 C 
HETATM    2  C   UNL     1     -42.381  59.280 -52.111  1.00  0.00     0.032 C 
HETATM    3  C   UNL     1     -42.237  58.117 -51.339  1.00  0.00     0.031 C 
HETATM    4  C   UNL     1     -43.274  57.194 -51.161  1.00  0.00     0.030 C 
HETATM    5  C   UNL     1     -44.517  57.600 -51.668  1.00  0.00     0.031 C 
HETATM    6  C   UNL     1     -44.675  58.789 -52.408  1.00  0.00     0.032 C 
ENDROOT
BRANCH   1   7
HETATM    7  N   UNL     1     -43.834  60.724 -53.534  1.00  0.00    -0.333 N 
HETATM    8  H   UNL     1     -44.033  61.593 -53.049  1.00  0.00     0.168 HD
BRANCH   7   9
HETATM    9  C   UNL     1     -44.113  60.853 -54.854  1.00  0.00     0.179 C 
HETATM   10  S   UNL     1     -44.846  62.277 -55.352  1.00  0.00    -0.040 SA
BRANCH   9  11
HETATM   11  N   UNL     1     -43.979  59.861 -55.764  1.00  0.00    -0.299 N 
HETATM   12  C   UNL     1     -42.771  59.312 -56.151  1.00  0.00     0.257 C 
HETATM   13  O   UNL     1     -41.676  59.754 -55.822  1.00  0.00    -0.267 OA
HETATM   14  H   UNL     1     -44.583  60.014 -56.562  1.00  0.00     0.171 HD
BRANCH  12  15
HETATM   15  C   UNL     1     -42.860  58.059 -56.970  1.00  0.00     0.035 A 
HETATM   16  C   UNL     1     -43.328  58.053 -58.292  1.00  0.00     0.053 A 
HETATM   17  C   UNL     1     -43.495  56.837 -58.959  1.00  0.00     0.069 A 
HETATM   18  C   UNL     1     -43.262  55.630 -58.305  1.00  0.00     0.037 A 
HETATM   19  C   UNL     1     -42.791  55.630 -56.995  1.00  0.00     0.004 A 
HETATM   20  C   UNL     1     -42.584  56.840 -56.331  1.00  0.00     0.017 A 
BRANCH  17  21
HETATM   21  O   UNL     1     -43.987  56.776 -60.234  1.00  0.00    -0.351 OA
BRANCH  21  22
HETATM   22  C   UNL     1     -45.070  55.847 -60.379  1.00  0.00     0.175 C 
BRANCH  22  23
HETATM   23  C   UNL     1     -46.414  56.436 -59.942  1.00  0.00     0.022 C 
HETATM   24  C   UNL     1     -47.416  56.525 -61.083  1.00  0.00     0.007 C 
ENDBRANCH  22  23
ENDBRANCH  21  22
ENDBRANCH  17  21
ENDBRANCH  12  15
ENDBRANCH   9  11
ENDBRANCH   7   9
ENDBRANCH   1   7
BRANCH   4  25
HETATM   25  N   UNL     1     -43.079  55.967 -50.500  1.00  0.00    -0.378 N 
HETATM   26  C   UNL     1     -41.715  55.655 -50.005  1.00  0.00     0.150 C 
HETATM   27  C   UNL     1     -40.809  55.219 -51.181  1.00  0.00     0.255 C 
HETATM   28  N   UNL     1     -41.425  54.009 -51.902  1.00  0.00    -0.064 N 
HETATM   29  H   UNL     1     -41.421  53.235 -51.230  1.00  0.00     0.280 HD
HETATM   30  C   UNL     1     -42.890  54.261 -52.293  1.00  0.00     0.255 C 
HETATM   31  C   UNL     1     -43.711  54.760 -51.081  1.00  0.00     0.150 C 
BRANCH  28  32
HETATM   32  C   UNL     1     -40.621  53.572 -53.105  1.00  0.00     0.273 C 
BRANCH  32  33
HETATM   33  C   UNL     1     -40.227  52.119 -53.107  1.00  0.00    -0.033 A 
HETATM   34  C   UNL     1     -40.188  51.370 -54.294  1.00  0.00     0.009 A 
HETATM   35  C   UNL     1     -39.810  50.026 -54.272  1.00  0.00     0.001 A 
HETATM   36  C   UNL     1     -39.446  49.421 -53.071  1.00  0.00     0.000 A 
HETATM   37  C   UNL     1     -39.457  50.159 -51.890  1.00  0.00     0.001 A 
HETATM   38  C   UNL     1     -39.845  51.499 -51.907  1.00  0.00     0.009 A 
ENDBRANCH  32  33
ENDBRANCH  28  32
ENDBRANCH   4  25
TORSDOF 10
ENDMDL
MODEL 3
REMARK VINA RESULT:      -8.4      5.385      9.355
REMARK  10 active torsions:
REMARK  status: ('A' for Active; 'I' for Inactive)
REMARK    1  A    between atoms: C_2  and  C_3 
REMARK    2  A    between atoms: C_3  and  O_4 
REMARK    3  A    between atoms: O_4  and  C_5 
REMARK    4  A    between atoms: C_7  and  C_8 
REMARK       I    between atoms: C_8  and  N_9 
REMARK    5  A    between atoms: N_9  and  C_10 
REMARK    6  A    between atoms: C_10  and  N_11 
REMARK    7  A    between atoms: N_11  and  C_12 
REMARK    8  A    between atoms: C_15  and  N_16 
REMARK    9  A    between atoms: N_19  and  C_21 
REMARK   10  A    between atoms: C_21  and  C_22 
ROOT
HETATM    1  C   UNL     1     -44.514  58.735 -51.335  1.00  0.00     0.034 C 
HETATM    2  C   UNL     1     -44.120  57.435 -51.082  1.00  0.00     0.032 C 
HETATM    3  C   UNL     1     -43.848  56.533 -52.122  1.00  0.00     0.031 C 
HETATM    4  C   UNL     1     -43.872  56.905 -53.472  1.00  0.00     0.030 C 
HETATM    5  C   UNL     1     -44.357  58.197 -53.717  1.00  0.00     0.031 C 
HETATM    6  C   UNL     1     -44.673  59.092 -52.676  1.00  0.00     0.032 C 
ENDROOT
BRANCH   1   7
HETATM    7  N   UNL     1     -44.738  59.745 -50.376  1.00  0.00    -0.333 N 
HETATM    8  H   UNL     1     -45.697  59.802 -50.046  1.00  0.00     0.168 HD
BRANCH   7   9
HETATM    9  C   UNL     1     -44.041  60.833 -49.963  1.00  0.00     0.179 C 
HETATM   10  S   UNL     1     -42.489  61.029 -50.567  1.00  0.00    -0.040 SA
BRANCH   9  11
HETATM   11  N   UNL     1     -44.452  61.680 -48.992  1.00  0.00    -0.299 N 
HETATM   12  C   UNL     1     -45.760  62.088 -48.813  1.00  0.00     0.257 C 
HETATM   13  O   UNL     1     -46.673  61.844 -49.594  1.00  0.00    -0.267 OA
HETATM   14  H   UNL     1     -43.810  62.456 -48.889  1.00  0.00     0.171 HD
BRANCH  12  15
HETATM   15  C   UNL     1     -46.042  62.817 -47.533  1.00  0.00     0.035 A 
HETATM   16  C   UNL     1     -45.064  63.025 -46.550  1.00  0.00     0.053 A 
HETATM   17  C   UNL     1     -45.421  63.608 -45.333  1.00  0.00     0.069 A 
HETATM   18  C   UNL     1     -46.749  63.929 -45.061  1.00  0.00     0.037 A 
HETATM   19  C   UNL     1     -47.723  63.733 -46.035  1.00  0.00     0.004 A 
HETATM   20  C   UNL     1     -47.371  63.185 -47.270  1.00  0.00     0.017 A 
BRANCH  17  21
HETATM   21  O   UNL     1     -44.512  63.793 -44.327  1.00  0.00    -0.351 OA
BRANCH  21  22
HETATM   22  C   UNL     1     -44.217  62.592 -43.601  1.00  0.00     0.175 C 
BRANCH  22  23
HETATM   23  C   UNL     1     -43.108  62.788 -42.564  1.00  0.00     0.022 C 
HETATM   24  C   UNL     1     -43.488  63.786 -41.480  1.00  0.00     0.007 C 
ENDBRANCH  22  23
ENDBRANCH  21  22
ENDBRANCH  17  21
ENDBRANCH  12  15
ENDBRANCH   9  11
ENDBRANCH   7   9
ENDBRANCH   1   7
BRANCH   4  25
HETATM   25  N   UNL     1     -43.465  56.031 -54.496  1.00  0.00    -0.378 N 
HETATM   26  C   UNL     1     -43.729  54.582 -54.317  1.00  0.00     0.150 C 
HETATM   27  C   UNL     1     -42.706  53.973 -53.328  1.00  0.00     0.255 C 
HETATM   28  N   UNL     1     -41.274  54.216 -53.832  1.00  0.00    -0.064 N 
HETATM   29  H   UNL     1     -41.179  53.690 -54.708  1.00  0.00     0.280 HD
HETATM   30  C   UNL     1     -41.028  55.696 -54.165  1.00  0.00     0.255 C 
HETATM   31  C   UNL     1     -42.129  56.246 -55.100  1.00  0.00     0.150 C 
BRANCH  28  32
HETATM   32  C   UNL     1     -40.221  53.703 -52.877  1.00  0.00     0.273 C 
BRANCH  32  33
HETATM   33  C   UNL     1     -39.998  52.215 -52.923  1.00  0.00    -0.033 A 
HETATM   34  C   UNL     1     -39.723  51.478 -51.760  1.00  0.00     0.009 A 
HETATM   35  C   UNL     1     -39.529  50.097 -51.826  1.00  0.00     0.001 A 
HETATM   36  C   UNL     1     -39.630  49.433 -53.047  1.00  0.00     0.000 A 
HETATM   37  C   UNL     1     -39.926  50.149 -54.204  1.00  0.00     0.001 A 
HETATM   38  C   UNL     1     -40.108  51.531 -54.144  1.00  0.00     0.009 A 
ENDBRANCH  32  33
ENDBRANCH  28  32
ENDBRANCH   4  25
TORSDOF 10
ENDMDL
MODEL 4
REMARK VINA RESULT:      -8.1      5.464     10.074
REMARK  10 active torsions:
REMARK  status: ('A' for Active; 'I' for Inactive)
REMARK    1  A    between atoms: C_2  and  C_3 
REMARK    2  A    between atoms: C_3  and  O_4 
REMARK    3  A    between atoms: O_4  and  C_5 
REMARK    4  A    between atoms: C_7  and  C_8 
REMARK       I    between atoms: C_8  and  N_9 
REMARK    5  A    between atoms: N_9  and  C_10 
REMARK    6  A    between atoms: C_10  and  N_11 
REMARK    7  A    between atoms: N_11  and  C_12 
REMARK    8  A    between atoms: C_15  and  N_16 
REMARK    9  A    between atoms: N_19  and  C_21 
REMARK   10  A    between atoms: C_21  and  C_22 
ROOT
HETATM    1  C   UNL     1     -44.975  59.402 -51.313  1.00  0.00     0.034 C 
HETATM    2  C   UNL     1     -43.924  60.100 -50.749  1.00  0.00     0.032 C 
HETATM    3  C   UNL     1     -44.072  61.426 -50.313  1.00  0.00     0.031 C 
HETATM    4  C   UNL     1     -45.299  62.099 -50.340  1.00  0.00     0.030 C 
HETATM    5  C   UNL     1     -46.333  61.412 -50.994  1.00  0.00     0.031 C 
HETATM    6  C   UNL     1     -46.176  60.096 -51.472  1.00  0.00     0.032 C 
ENDROOT
BRANCH   1   7
HETATM    7  N   UNL     1     -44.963  58.049 -51.713  1.00  0.00    -0.333 N 
HETATM    8  H   UNL     1     -45.490  57.429 -51.106  1.00  0.00     0.168 HD
BRANCH   7   9
HETATM    9  C   UNL     1     -44.211  57.323 -52.577  1.00  0.00     0.179 C 
HETATM   10  S   UNL     1     -44.523  57.505 -54.214  1.00  0.00    -0.040 SA
BRANCH   9  11
HETATM   11  N   UNL     1     -43.337  56.359 -52.205  1.00  0.00    -0.299 N 
HETATM   12  C   UNL     1     -41.981  56.558 -52.028  1.00  0.00     0.257 C 
HETATM   13  O   UNL     1     -41.391  57.592 -52.322  1.00  0.00    -0.267 OA
HETATM   14  H   UNL     1     -43.518  55.493 -52.699  1.00  0.00     0.171 HD
BRANCH  12  15
HETATM   15  C   UNL     1     -41.241  55.433 -51.370  1.00  0.00     0.035 A 
HETATM   16  C   UNL     1     -40.930  54.240 -52.038  1.00  0.00     0.053 A 
HETATM   17  C   UNL     1     -40.342  53.187 -51.334  1.00  0.00     0.069 A 
HETATM   18  C   UNL     1     -40.117  53.287 -49.963  1.00  0.00     0.037 A 
HETATM   19  C   UNL     1     -40.416  54.471 -49.295  1.00  0.00     0.004 A 
HETATM   20  C   UNL     1     -40.970  55.543 -49.997  1.00  0.00     0.017 A 
BRANCH  17  21
HETATM   21  O   UNL     1     -40.059  51.989 -51.931  1.00  0.00    -0.351 OA
BRANCH  21  22
HETATM   22  C   UNL     1     -39.629  52.122 -53.293  1.00  0.00     0.175 C 
BRANCH  22  23
HETATM   23  C   UNL     1     -40.469  51.283 -54.260  1.00  0.00     0.022 C 
HETATM   24  C   UNL     1     -39.876  49.905 -54.510  1.00  0.00     0.007 C 
ENDBRANCH  22  23
ENDBRANCH  21  22
ENDBRANCH  17  21
ENDBRANCH  12  15
ENDBRANCH   9  11
ENDBRANCH   7   9
ENDBRANCH   1   7
BRANCH   4  25
HETATM   25  N   UNL     1     -45.466  63.377 -49.776  1.00  0.00    -0.378 N 
HETATM   26  C   UNL     1     -44.382  63.896 -48.905  1.00  0.00     0.150 C 
HETATM   27  C   UNL     1     -44.448  63.222 -47.514  1.00  0.00     0.255 C 
HETATM   28  N   UNL     1     -45.828  63.457 -46.878  1.00  0.00    -0.064 N 
HETATM   29  H   UNL     1     -45.908  64.467 -46.716  1.00  0.00     0.280 HD
HETATM   30  C   UNL     1     -46.970  63.060 -47.827  1.00  0.00     0.255 C 
HETATM   31  C   UNL     1     -46.793  63.719 -49.215  1.00  0.00     0.150 C 
BRANCH  28  32
HETATM   32  C   UNL     1     -45.983  62.767 -45.542  1.00  0.00     0.273 C 
BRANCH  32  33
HETATM   33  C   UNL     1     -44.947  63.139 -44.515  1.00  0.00    -0.033 A 
HETATM   34  C   UNL     1     -44.792  64.463 -44.075  1.00  0.00     0.009 A 
HETATM   35  C   UNL     1     -43.831  64.782 -43.114  1.00  0.00     0.001 A 
HETATM   36  C   UNL     1     -43.029  63.782 -42.567  1.00  0.00     0.000 A 
HETATM   37  C   UNL     1     -43.189  62.461 -42.977  1.00  0.00     0.001 A 
HETATM   38  C   UNL     1     -44.141  62.141 -43.946  1.00  0.00     0.009 A 
ENDBRANCH  32  33
ENDBRANCH  28  32
ENDBRANCH   4  25
TORSDOF 10
ENDMDL
MODEL 5
REMARK VINA RESULT:      -8.0      2.844      4.367
REMARK  10 active torsions:
REMARK  status: ('A' for Active; 'I' for Inactive)
REMARK    1  A    between atoms: C_2  and  C_3 
REMARK    2  A    between atoms: C_3  and  O_4 
REMARK    3  A    between atoms: O_4  and  C_5 
REMARK    4  A    between atoms: C_7  and  C_8 
REMARK       I    between atoms: C_8  and  N_9 
REMARK    5  A    between atoms: N_9  and  C_10 
REMARK    6  A    between atoms: C_10  and  N_11 
REMARK    7  A    between atoms: N_11  and  C_12 
REMARK    8  A    between atoms: C_15  and  N_16 
REMARK    9  A    between atoms: N_19  and  C_21 
REMARK   10  A    between atoms: C_21  and  C_22 
ROOT
HETATM    1  C   UNL     1     -43.247  55.571 -56.366  1.00  0.00     0.034 C 
HETATM    2  C   UNL     1     -43.391  56.753 -55.664  1.00  0.00     0.032 C 
HETATM    3  C   UNL     1     -43.462  56.772 -54.263  1.00  0.00     0.031 C 
HETATM    4  C   UNL     1     -43.310  55.621 -53.482  1.00  0.00     0.030 C 
HETATM    5  C   UNL     1     -43.254  54.421 -54.206  1.00  0.00     0.031 C 
HETATM    6  C   UNL     1     -43.225  54.395 -55.615  1.00  0.00     0.032 C 
ENDROOT
BRANCH   1   7
HETATM    7  N   UNL     1     -43.088  55.439 -57.762  1.00  0.00    -0.333 N 
HETATM    8  H   UNL     1     -42.180  55.086 -58.047  1.00  0.00     0.168 HD
BRANCH   7   9
HETATM    9  C   UNL     1     -43.764  55.905 -58.841  1.00  0.00     0.179 C 
HETATM   10  S   UNL     1     -44.467  54.773 -59.859  1.00  0.00    -0.040 SA
BRANCH   9  11
HETATM   11  N   UNL     1     -43.782  57.200 -59.230  1.00  0.00    -0.299 N 
HETATM   12  C   UNL     1     -42.739  57.837 -59.875  1.00  0.00     0.257 C 
HETATM   13  O   UNL     1     -41.628  57.346 -60.044  1.00  0.00    -0.267 OA
HETATM   14  H   UNL     1     -44.182  57.791 -58.512  1.00  0.00     0.171 HD
BRANCH  12  15
HETATM   15  C   UNL     1     -43.056  59.187 -60.445  1.00  0.00     0.035 A 
HETATM   16  C   UNL     1     -42.142  60.251 -60.422  1.00  0.00     0.053 A 
HETATM   17  C   UNL     1     -42.542  61.514 -60.864  1.00  0.00     0.069 A 
HETATM   18  C   UNL     1     -43.854  61.743 -61.269  1.00  0.00     0.037 A 
HETATM   19  C   UNL     1     -44.764  60.691 -61.301  1.00  0.00     0.004 A 
HETATM   20  C   UNL     1     -44.366  59.415 -60.897  1.00  0.00     0.017 A 
BRANCH  17  21
HETATM   21  O   UNL     1     -41.701  62.592 -60.823  1.00  0.00    -0.351 OA
BRANCH  21  22
HETATM   22  C   UNL     1     -40.682  62.555 -61.832  1.00  0.00     0.175 C 
BRANCH  22  23
HETATM   23  C   UNL     1     -39.370  63.193 -61.368  1.00  0.00     0.022 C 
HETATM   24  C   UNL     1     -39.280  63.318 -59.855  1.00  0.00     0.007 C 
ENDBRANCH  22  23
ENDBRANCH  21  22
ENDBRANCH  17  21
ENDBRANCH  12  15
ENDBRANCH   9  11
ENDBRANCH   7   9
ENDBRANCH   1   7
BRANCH   4  25
HETATM   25  N   UNL     1     -43.247  55.671 -52.077  1.00  0.00    -0.378 N 
HETATM   26  C   UNL     1     -42.124  56.420 -51.461  1.00  0.00     0.150 C 
HETATM   27  C   UNL     1     -40.823  55.585 -51.536  1.00  0.00     0.255 C 
HETATM   28  N   UNL     1     -41.026  54.227 -50.846  1.00  0.00    -0.064 N 
HETATM   29  H   UNL     1     -41.187  54.425 -49.852  1.00  0.00     0.280 HD
HETATM   30  C   UNL     1     -42.274  53.500 -51.370  1.00  0.00     0.255 C 
HETATM   31  C   UNL     1     -43.514  54.422 -51.326  1.00  0.00     0.150 C 
BRANCH  28  32
HETATM   32  C   UNL     1     -39.810  53.334 -50.940  1.00  0.00     0.273 C 
BRANCH  32  33
HETATM   33  C   UNL     1     -39.875  52.292 -52.025  1.00  0.00    -0.033 A 
HETATM   34  C   UNL     1     -40.148  52.637 -53.359  1.00  0.00     0.009 A 
HETATM   35  C   UNL     1     -40.193  51.653 -54.349  1.00  0.00     0.001 A 
HETATM   36  C   UNL     1     -39.945  50.321 -54.025  1.00  0.00     0.000 A 
HETATM   37  C   UNL     1     -39.650  49.969 -52.710  1.00  0.00     0.001 A 
HETATM   38  C   UNL     1     -39.615  50.947 -51.716  1.00  0.00     0.009 A 
ENDBRANCH  32  33
ENDBRANCH  28  32
ENDBRANCH   4  25
TORSDOF 10
ENDMDL
MODEL 6
REMARK VINA RESULT:      -7.8      3.278      9.766
REMARK  10 active torsions:
REMARK  status: ('A' for Active; 'I' for Inactive)
REMARK    1  A    between atoms: C_2  and  C_3 
REMARK    2  A    between atoms: C_3  and  O_4 
REMARK    3  A    between atoms: O_4  and  C_5 
REMARK    4  A    between atoms: C_7  and  C_8 
REMARK       I    between atoms: C_8  and  N_9 
REMARK    5  A    between atoms: N_9  and  C_10 
REMARK    6  A    between atoms: C_10  and  N_11 
REMARK    7  A    between atoms: N_11  and  C_12 
REMARK    8  A    between atoms: C_15  and  N_16 
REMARK    9  A    between atoms: N_19  and  C_21 
REMARK   10  A    between atoms: C_21  and  C_22 
ROOT
HETATM    1  C   UNL     1     -42.142  58.254 -55.044  1.00  0.00     0.034 C 
HETATM    2  C   UNL     1     -42.427  56.977 -55.489  1.00  0.00     0.032 C 
HETATM    3  C   UNL     1     -42.635  56.701 -56.849  1.00  0.00     0.031 C 
HETATM    4  C   UNL     1     -42.488  57.670 -57.849  1.00  0.00     0.030 C 
HETATM    5  C   UNL     1     -42.285  58.976 -57.379  1.00  0.00     0.031 C 
HETATM    6  C   UNL     1     -42.118  59.263 -56.009  1.00  0.00     0.032 C 
ENDROOT
BRANCH   1   7
HETATM    7  N   UNL     1     -41.840  58.633 -53.719  1.00  0.00    -0.333 N 
HETATM    8  H   UNL     1     -40.921  59.048 -53.603  1.00  0.00     0.168 HD
BRANCH   7   9
HETATM    9  C   UNL     1     -42.378  58.351 -52.507  1.00  0.00     0.179 C 
HETATM   10  S   UNL     1     -43.545  59.399 -51.918  1.00  0.00    -0.040 SA
BRANCH   9  11
HETATM   11  N   UNL     1     -41.933  57.374 -51.683  1.00  0.00    -0.299 N 
HETATM   12  C   UNL     1     -42.337  56.054 -51.745  1.00  0.00     0.257 C 
HETATM   13  O   UNL     1     -43.246  55.643 -52.458  1.00  0.00    -0.267 OA
HETATM   14  H   UNL     1     -41.890  57.698 -50.724  1.00  0.00     0.171 HD
BRANCH  12  15
HETATM   15  C   UNL     1     -41.538  55.092 -50.918  1.00  0.00     0.035 A 
HETATM   16  C   UNL     1     -41.073  53.869 -51.422  1.00  0.00     0.053 A 
HETATM   17  C   UNL     1     -40.436  52.967 -50.566  1.00  0.00     0.069 A 
HETATM   18  C   UNL     1     -40.312  53.243 -49.207  1.00  0.00     0.037 A 
HETATM   19  C   UNL     1     -40.766  54.458 -48.702  1.00  0.00     0.004 A 
HETATM   20  C   UNL     1     -41.371  55.382 -49.555  1.00  0.00     0.017 A 
BRANCH  17  21
HETATM   21  O   UNL     1     -40.000  51.745 -51.001  1.00  0.00    -0.351 OA
BRANCH  21  22
HETATM   22  C   UNL     1     -39.765  51.696 -52.415  1.00  0.00     0.175 C 
BRANCH  22  23
HETATM   23  C   UNL     1     -39.583  50.267 -52.933  1.00  0.00     0.022 C 
HETATM   24  C   UNL     1     -39.997  50.112 -54.388  1.00  0.00     0.007 C 
ENDBRANCH  22  23
ENDBRANCH  21  22
ENDBRANCH  17  21
ENDBRANCH  12  15
ENDBRANCH   9  11
ENDBRANCH   7   9
ENDBRANCH   1   7
BRANCH   4  25
HETATM   25  N   UNL     1     -42.564  57.352 -59.217  1.00  0.00    -0.378 N 
HETATM   26  C   UNL     1     -43.166  58.356 -60.130  1.00  0.00     0.150 C 
HETATM   27  C   UNL     1     -44.707  58.344 -59.993  1.00  0.00     0.255 C 
HETATM   28  N   UNL     1     -45.252  56.937 -60.284  1.00  0.00    -0.064 N 
HETATM   29  H   UNL     1     -45.047  56.741 -61.270  1.00  0.00     0.280 HD
HETATM   30  C   UNL     1     -44.536  55.862 -59.451  1.00  0.00     0.255 C 
HETATM   31  C   UNL     1     -43.001  55.985 -59.587  1.00  0.00     0.150 C 
BRANCH  28  32
HETATM   32  C   UNL     1     -46.750  56.839 -60.103  1.00  0.00     0.273 C 
BRANCH  32  33
HETATM   33  C   UNL     1     -47.562  57.454 -61.212  1.00  0.00    -0.033 A 
HETATM   34  C   UNL     1     -48.051  56.682 -62.278  1.00  0.00     0.009 A 
HETATM   35  C   UNL     1     -48.810  57.273 -63.290  1.00  0.00     0.001 A 
HETATM   36  C   UNL     1     -49.107  58.633 -63.238  1.00  0.00     0.000 A 
HETATM   37  C   UNL     1     -48.648  59.405 -62.174  1.00  0.00     0.001 A 
HETATM   38  C   UNL     1     -47.880  58.821 -61.167  1.00  0.00     0.009 A 
ENDBRANCH  32  33
ENDBRANCH  28  32
ENDBRANCH   4  25
TORSDOF 10
ENDMDL
MODEL 7
REMARK VINA RESULT:      -7.6      2.174      3.219
REMARK  10 active torsions:
REMARK  status: ('A' for Active; 'I' for Inactive)
REMARK    1  A    between atoms: C_2  and  C_3 
REMARK    2  A    between atoms: C_3  and  O_4 
REMARK    3  A    between atoms: O_4  and  C_5 
REMARK    4  A    between atoms: C_7  and  C_8 
REMARK       I    between atoms: C_8  and  N_9 
REMARK    5  A    between atoms: N_9  and  C_10 
REMARK    6  A    between atoms: C_10  and  N_11 
REMARK    7  A    between atoms: N_11  and  C_12 
REMARK    8  A    between atoms: C_15  and  N_16 
REMARK    9  A    between atoms: N_19  and  C_21 
REMARK   10  A    between atoms: C_21  and  C_22 
ROOT
HETATM    1  C   UNL     1     -44.599  61.035 -53.288  1.00  0.00     0.034 C 
HETATM    2  C   UNL     1     -43.388  61.104 -53.950  1.00  0.00     0.032 C 
HETATM    3  C   UNL     1     -42.245  60.453 -53.462  1.00  0.00     0.031 C 
HETATM    4  C   UNL     1     -42.269  59.629 -52.330  1.00  0.00     0.030 C 
HETATM    5  C   UNL     1     -43.478  59.638 -51.620  1.00  0.00     0.031 C 
HETATM    6  C   UNL     1     -44.617  60.326 -52.085  1.00  0.00     0.032 C 
ENDROOT
BRANCH   1   7
HETATM    7  N   UNL     1     -45.825  61.581 -53.724  1.00  0.00    -0.333 N 
HETATM    8  H   UNL     1     -46.475  61.797 -52.974  1.00  0.00     0.168 HD
BRANCH   7   9
HETATM    9  C   UNL     1     -46.455  61.660 -54.922  1.00  0.00     0.179 C 
HETATM   10  S   UNL     1     -47.417  63.005 -55.201  1.00  0.00    -0.040 SA
BRANCH   9  11
HETATM   11  N   UNL     1     -46.480  60.665 -55.839  1.00  0.00    -0.299 N 
HETATM   12  C   UNL     1     -45.605  60.561 -56.903  1.00  0.00     0.257 C 
HETATM   13  O   UNL     1     -44.799  61.428 -57.222  1.00  0.00    -0.267 OA
HETATM   14  H   UNL     1     -47.429  60.456 -56.124  1.00  0.00     0.171 HD
BRANCH  12  15
HETATM   15  C   UNL     1     -45.638  59.258 -57.645  1.00  0.00     0.035 A 
HETATM   16  C   UNL     1     -44.528  58.404 -57.720  1.00  0.00     0.053 A 
HETATM   17  C   UNL     1     -44.589  57.262 -58.523  1.00  0.00     0.069 A 
HETATM   18  C   UNL     1     -45.716  56.997 -59.296  1.00  0.00     0.037 A 
HETATM   19  C   UNL     1     -46.824  57.837 -59.220  1.00  0.00     0.004 A 
HETATM   20  C   UNL     1     -46.788  58.960 -58.393  1.00  0.00     0.017 A 
BRANCH  17  21
HETATM   21  O   UNL     1     -43.520  56.420 -58.662  1.00  0.00    -0.351 OA
BRANCH  21  22
HETATM   22  C   UNL     1     -42.851  56.556 -59.923  1.00  0.00     0.175 C 
BRANCH  22  23
HETATM   23  C   UNL     1     -41.772  57.642 -59.904  1.00  0.00     0.022 C 
HETATM   24  C   UNL     1     -42.163  58.874 -60.706  1.00  0.00     0.007 C 
ENDBRANCH  22  23
ENDBRANCH  21  22
ENDBRANCH  17  21
ENDBRANCH  12  15
ENDBRANCH   9  11
ENDBRANCH   7   9
ENDBRANCH   1   7
BRANCH   4  25
HETATM   25  N   UNL     1     -41.151  58.874 -51.930  1.00  0.00    -0.378 N 
HETATM   26  C   UNL     1     -40.292  58.291 -52.990  1.00  0.00     0.150 C 
HETATM   27  C   UNL     1     -40.974  57.043 -53.600  1.00  0.00     0.255 C 
HETATM   28  N   UNL     1     -41.271  56.012 -52.500  1.00  0.00    -0.064 N 
HETATM   29  H   UNL     1     -40.363  55.699 -52.140  1.00  0.00     0.280 HD
HETATM   30  C   UNL     1     -42.035  56.636 -51.321  1.00  0.00     0.255 C 
HETATM   31  C   UNL     1     -41.327  57.914 -50.815  1.00  0.00     0.150 C 
BRANCH  28  32
HETATM   32  C   UNL     1     -41.998  54.793 -53.020  1.00  0.00     0.273 C 
BRANCH  32  33
HETATM   33  C   UNL     1     -41.166  53.540 -53.084  1.00  0.00    -0.033 A 
HETATM   34  C   UNL     1     -41.089  52.769 -54.256  1.00  0.00     0.009 A 
HETATM   35  C   UNL     1     -40.303  51.616 -54.294  1.00  0.00     0.001 A 
HETATM   36  C   UNL     1     -39.569  51.232 -53.173  1.00  0.00     0.000 A 
HETATM   37  C   UNL     1     -39.618  52.001 -52.013  1.00  0.00     0.001 A 
HETATM   38  C   UNL     1     -40.412  53.147 -51.968  1.00  0.00     0.009 A 
ENDBRANCH  32  33
ENDBRANCH  28  32
ENDBRANCH   4  25
TORSDOF 10
ENDMDL
MODEL 8
REMARK VINA RESULT:      -7.6     16.966     21.110
REMARK  10 active torsions:
REMARK  status: ('A' for Active; 'I' for Inactive)
REMARK    1  A    between atoms: C_2  and  C_3 
REMARK    2  A    between atoms: C_3  and  O_4 
REMARK    3  A    between atoms: O_4  and  C_5 
REMARK    4  A    between atoms: C_7  and  C_8 
REMARK       I    between atoms: C_8  and  N_9 
REMARK    5  A    between atoms: N_9  and  C_10 
REMARK    6  A    between atoms: C_10  and  N_11 
REMARK    7  A    between atoms: N_11  and  C_12 
REMARK    8  A    between atoms: C_15  and  N_16 
REMARK    9  A    between atoms: N_19  and  C_21 
REMARK   10  A    between atoms: C_21  and  C_22 
ROOT
HETATM    1  C   UNL     1     -33.531  40.810 -54.953  1.00  0.00     0.034 C 
HETATM    2  C   UNL     1     -34.726  40.939 -54.271  1.00  0.00     0.032 C 
HETATM    3  C   UNL     1     -35.904  41.339 -54.921  1.00  0.00     0.031 C 
HETATM    4  C   UNL     1     -35.970  41.551 -56.303  1.00  0.00     0.030 C 
HETATM    5  C   UNL     1     -34.736  41.502 -56.967  1.00  0.00     0.031 C 
HETATM    6  C   UNL     1     -33.543  41.143 -56.308  1.00  0.00     0.032 C 
ENDROOT
BRANCH   1   7
HETATM    7  N   UNL     1     -32.309  40.344 -54.422  1.00  0.00    -0.333 N 
HETATM    8  H   UNL     1     -31.498  40.884 -54.705  1.00  0.00     0.168 HD
BRANCH   7   9
HETATM    9  C   UNL     1     -31.914  39.194 -53.821  1.00  0.00     0.179 C 
HETATM   10  S   UNL     1     -31.528  37.898 -54.812  1.00  0.00    -0.040 SA
BRANCH   9  11
HETATM   11  N   UNL     1     -31.954  38.978 -52.486  1.00  0.00    -0.299 N 
HETATM   12  C   UNL     1     -32.024  39.977 -51.534  1.00  0.00     0.257 C 
HETATM   13  O   UNL     1     -31.915  41.173 -51.779  1.00  0.00    -0.267 OA
HETATM   14  H   UNL     1     -31.296  38.258 -52.213  1.00  0.00     0.171 HD
BRANCH  12  15
HETATM   15  C   UNL     1     -32.318  39.521 -50.136  1.00  0.00     0.035 A 
HETATM   16  C   UNL     1     -31.443  39.756 -49.065  1.00  0.00     0.053 A 
HETATM   17  C   UNL     1     -31.721  39.204 -47.812  1.00  0.00     0.069 A 
HETATM   18  C   UNL     1     -32.823  38.373 -47.631  1.00  0.00     0.037 A 
HETATM   19  C   UNL     1     -33.699  38.142 -48.688  1.00  0.00     0.004 A 
HETATM   20  C   UNL     1     -33.451  38.718 -49.934  1.00  0.00     0.017 A 
BRANCH  17  21
HETATM   21  O   UNL     1     -30.878  39.371 -46.748  1.00  0.00    -0.351 OA
BRANCH  21  22
HETATM   22  C   UNL     1     -31.356  38.752 -45.545  1.00  0.00     0.175 C 
BRANCH  22  23
HETATM   23  C   UNL     1     -30.913  39.499 -44.283  1.00  0.00     0.022 C 
HETATM   24  C   UNL     1     -29.961  40.646 -44.583  1.00  0.00     0.007 C 
ENDBRANCH  22  23
ENDBRANCH  21  22
ENDBRANCH  17  21
ENDBRANCH  12  15
ENDBRANCH   9  11
ENDBRANCH   7   9
ENDBRANCH   1   7
BRANCH   4  25
HETATM   25  N   UNL     1     -37.184  41.818 -56.962  1.00  0.00    -0.378 N 
HETATM   26  C   UNL     1     -38.328  40.908 -56.703  1.00  0.00     0.150 C 
HETATM   27  C   UNL     1     -38.143  39.584 -57.481  1.00  0.00     0.255 C 
HETATM   28  N   UNL     1     -37.995  39.870 -58.984  1.00  0.00    -0.064 N 
HETATM   29  H   UNL     1     -38.888  40.268 -59.295  1.00  0.00     0.280 HD
HETATM   30  C   UNL     1     -36.911  40.924 -59.262  1.00  0.00     0.255 C 
HETATM   31  C   UNL     1     -37.128  42.186 -58.396  1.00  0.00     0.150 C 
BRANCH  28  32
HETATM   32  C   UNL     1     -37.744  38.621 -59.797  1.00  0.00     0.273 C 
BRANCH  32  33
HETATM   33  C   UNL     1     -38.855  38.249 -60.742  1.00  0.00    -0.033 A 
HETATM   34  C   UNL     1     -40.175  38.079 -60.293  1.00  0.00     0.009 A 
HETATM   35  C   UNL     1     -41.190  37.743 -61.191  1.00  0.00     0.001 A 
HETATM   36  C   UNL     1     -40.906  37.594 -62.547  1.00  0.00     0.000 A 
HETATM   37  C   UNL     1     -39.606  37.784 -63.008  1.00  0.00     0.001 A 
HETATM   38  C   UNL     1     -38.586  38.108 -62.113  1.00  0.00     0.009 A 
ENDBRANCH  32  33
ENDBRANCH  28  32
ENDBRANCH   4  25
TORSDOF 10
ENDMDL
MODEL 9
REMARK VINA RESULT:      -7.5      3.171      7.858
REMARK  10 active torsions:
REMARK  status: ('A' for Active; 'I' for Inactive)
REMARK    1  A    between atoms: C_2  and  C_3 
REMARK    2  A    between atoms: C_3  and  O_4 
REMARK    3  A    between atoms: O_4  and  C_5 
REMARK    4  A    between atoms: C_7  and  C_8 
REMARK       I    between atoms: C_8  and  N_9 
REMARK    5  A    between atoms: N_9  and  C_10 
REMARK    6  A    between atoms: C_10  and  N_11 
REMARK    7  A    between atoms: N_11  and  C_12 
REMARK    8  A    between atoms: C_15  and  N_16 
REMARK    9  A    between atoms: N_19  and  C_21 
REMARK   10  A    between atoms: C_21  and  C_22 
ROOT
HETATM    1  C   UNL     1     -43.318  58.848 -57.158  1.00  0.00     0.034 C 
HETATM    2  C   UNL     1     -44.632  59.112 -56.821  1.00  0.00     0.032 C 
HETATM    3  C   UNL     1     -44.980  60.212 -56.022  1.00  0.00     0.031 C 
HETATM    4  C   UNL     1     -44.043  61.156 -55.586  1.00  0.00     0.030 C 
HETATM    5  C   UNL     1     -42.706  60.830 -55.860  1.00  0.00     0.031 C 
HETATM    6  C   UNL     1     -42.350  59.701 -56.625  1.00  0.00     0.032 C 
ENDROOT
BRANCH   1   7
HETATM    7  N   UNL     1     -42.861  57.822 -58.013  1.00  0.00    -0.333 N 
HETATM    8  H   UNL     1     -42.740  58.107 -58.979  1.00  0.00     0.168 HD
BRANCH   7   9
HETATM    9  C   UNL     1     -42.780  56.472 -57.913  1.00  0.00     0.179 C 
HETATM   10  S   UNL     1     -43.647  55.562 -59.023  1.00  0.00    -0.040 SA
BRANCH   9  11
HETATM   11  N   UNL     1     -42.173  55.816 -56.897  1.00  0.00    -0.299 N 
HETATM   12  C   UNL     1     -42.712  55.660 -55.635  1.00  0.00     0.257 C 
HETATM   13  O   UNL     1     -43.735  56.215 -55.247  1.00  0.00    -0.267 OA
HETATM   14  H   UNL     1     -41.189  56.052 -56.847  1.00  0.00     0.171 HD
BRANCH  12  15
HETATM   15  C   UNL     1     -42.000  54.690 -54.741  1.00  0.00     0.035 A 
HETATM   16  C   UNL     1     -42.250  54.609 -53.363  1.00  0.00     0.053 A 
HETATM   17  C   UNL     1     -41.470  53.765 -52.568  1.00  0.00     0.069 A 
HETATM   18  C   UNL     1     -40.410  53.050 -53.119  1.00  0.00     0.037 A 
HETATM   19  C   UNL     1     -40.162  53.120 -54.487  1.00  0.00     0.004 A 
HETATM   20  C   UNL     1     -40.958  53.932 -55.297  1.00  0.00     0.017 A 
BRANCH  17  21
HETATM   21  O   UNL     1     -41.647  53.683 -51.214  1.00  0.00    -0.351 OA
BRANCH  21  22
HETATM   22  C   UNL     1     -40.699  54.461 -50.470  1.00  0.00     0.175 C 
BRANCH  22  23
HETATM   23  C   UNL     1     -41.156  54.730 -49.034  1.00  0.00     0.022 C 
HETATM   24  C   UNL     1     -40.312  53.998 -48.002  1.00  0.00     0.007 C 
ENDBRANCH  22  23
ENDBRANCH  21  22
ENDBRANCH  17  21
ENDBRANCH  12  15
ENDBRANCH   9  11
ENDBRANCH   7   9
ENDBRANCH   1   7
BRANCH   4  25
HETATM   25  N   UNL     1     -44.421  62.326 -54.903  1.00  0.00    -0.378 N 
HETATM   26  C   UNL     1     -43.379  63.043 -54.125  1.00  0.00     0.150 C 
HETATM   27  C   UNL     1     -43.102  62.300 -52.796  1.00  0.00     0.255 C 
HETATM   28  N   UNL     1     -44.401  62.165 -51.985  1.00  0.00    -0.064 N 
HETATM   29  H   UNL     1     -44.688  63.117 -51.732  1.00  0.00     0.280 HD
HETATM   30  C   UNL     1     -45.538  61.558 -52.823  1.00  0.00     0.255 C 
HETATM   31  C   UNL     1     -45.705  62.312 -54.163  1.00  0.00     0.150 C 
BRANCH  28  32
HETATM   32  C   UNL     1     -44.213  61.390 -50.702  1.00  0.00     0.273 C 
BRANCH  32  33
HETATM   33  C   UNL     1     -43.238  60.247 -50.791  1.00  0.00    -0.033 A 
HETATM   34  C   UNL     1     -41.935  60.351 -50.276  1.00  0.00     0.009 A 
HETATM   35  C   UNL     1     -41.051  59.274 -50.362  1.00  0.00     0.001 A 
HETATM   36  C   UNL     1     -41.463  58.076 -50.942  1.00  0.00     0.000 A 
HETATM   37  C   UNL     1     -42.759  57.951 -51.435  1.00  0.00     0.001 A 
HETATM   38  C   UNL     1     -43.642  59.029 -51.361  1.00  0.00     0.009 A 
ENDBRANCH  32  33
ENDBRANCH  28  32
ENDBRANCH   4  25
TORSDOF 10
ENDMDL
MODEL 10
REMARK VINA RESULT:      -7.5      4.677      9.509
REMARK  10 active torsions:
REMARK  status: ('A' for Active; 'I' for Inactive)
REMARK    1  A    between atoms: C_2  and  C_3 
REMARK    2  A    between atoms: C_3  and  O_4 
REMARK    3  A    between atoms: O_4  and  C_5 
REMARK    4  A    between atoms: C_7  and  C_8 
REMARK       I    between atoms: C_8  and  N_9 
REMARK    5  A    between atoms: N_9  and  C_10 
REMARK    6  A    between atoms: C_10  and  N_11 
REMARK    7  A    between atoms: N_11  and  C_12 
REMARK    8  A    between atoms: C_15  and  N_16 
REMARK    9  A    between atoms: N_19  and  C_21 
REMARK   10  A    between atoms: C_21  and  C_22 
ROOT
HETATM    1  C   UNL     1     -44.120  59.036 -52.663  1.00  0.00     0.034 C 
HETATM    2  C   UNL     1     -43.196  59.658 -51.845  1.00  0.00     0.032 C 
HETATM    3  C   UNL     1     -43.372  60.980 -51.409  1.00  0.00     0.031 C 
HETATM    4  C   UNL     1     -44.521  61.726 -51.699  1.00  0.00     0.030 C 
HETATM    5  C   UNL     1     -45.407  61.116 -52.600  1.00  0.00     0.031 C 
HETATM    6  C   UNL     1     -45.211  59.803 -53.074  1.00  0.00     0.032 C 
ENDROOT
BRANCH   1   7
HETATM    7  N   UNL     1     -44.085  57.693 -53.098  1.00  0.00    -0.333 N 
HETATM    8  H   UNL     1     -44.387  57.021 -52.399  1.00  0.00     0.168 HD
BRANCH   7   9
HETATM    9  C   UNL     1     -43.509  57.050 -54.143  1.00  0.00     0.179 C 
HETATM   10  S   UNL     1     -43.784  57.669 -55.676  1.00  0.00    -0.040 SA
BRANCH   9  11
HETATM   11  N   UNL     1     -42.858  55.868 -54.046  1.00  0.00    -0.299 N 
HETATM   12  C   UNL     1     -41.487  55.737 -53.938  1.00  0.00     0.257 C 
HETATM   13  O   UNL     1     -40.693  56.664 -54.057  1.00  0.00    -0.267 OA
HETATM   14  H   UNL     1     -43.240  55.188 -54.692  1.00  0.00     0.171 HD
BRANCH  12  15
HETATM   15  C   UNL     1     -40.992  54.366 -53.585  1.00  0.00     0.035 A 
HETATM   16  C   UNL     1     -40.662  53.997 -52.273  1.00  0.00     0.053 A 
HETATM   17  C   UNL     1     -40.096  52.743 -52.031  1.00  0.00     0.069 A 
HETATM   18  C   UNL     1     -39.801  51.881 -53.084  1.00  0.00     0.037 A 
HETATM   19  C   UNL     1     -40.133  52.238 -54.388  1.00  0.00     0.004 A 
HETATM   20  C   UNL     1     -40.732  53.474 -54.638  1.00  0.00     0.017 A 
BRANCH  17  21
HETATM   21  O   UNL     1     -39.719  52.352 -50.776  1.00  0.00    -0.351 OA
BRANCH  21  22
HETATM   22  C   UNL     1     -40.715  52.615 -49.777  1.00  0.00     0.175 C 
BRANCH  22  23
HETATM   23  C   UNL     1     -40.262  53.661 -48.755  1.00  0.00     0.022 C 
HETATM   24  C   UNL     1     -41.091  54.935 -48.811  1.00  0.00     0.007 C 
ENDBRANCH  22  23
ENDBRANCH  21  22
ENDBRANCH  17  21
ENDBRANCH  12  15
ENDBRANCH   9  11
ENDBRANCH   7   9
ENDBRANCH   1   7
BRANCH   4  25
HETATM   25  N   UNL     1     -44.748  62.999 -51.145  1.00  0.00    -0.378 N 
HETATM   26  C   UNL     1     -43.927  63.402 -49.976  1.00  0.00     0.150 C 
HETATM   27  C   UNL     1     -44.443  62.701 -48.696  1.00  0.00     0.255 C 
HETATM   28  N   UNL     1     -45.926  63.036 -48.471  1.00  0.00    -0.064 N 
HETATM   29  H   UNL     1     -45.974  64.045 -48.290  1.00  0.00     0.280 HD
HETATM   30  C   UNL     1     -46.771  62.763 -49.726  1.00  0.00     0.255 C 
HETATM   31  C   UNL     1     -46.152  63.439 -50.971  1.00  0.00     0.150 C 
BRANCH  28  32
HETATM   32  C   UNL     1     -46.512  62.329 -47.271  1.00  0.00     0.273 C 
BRANCH  32  33
HETATM   33  C   UNL     1     -45.643  62.346 -46.042  1.00  0.00    -0.033 A 
HETATM   34  C   UNL     1     -45.529  63.492 -45.238  1.00  0.00     0.009 A 
HETATM   35  C   UNL     1     -44.723  63.479 -44.098  1.00  0.00     0.001 A 
HETATM   36  C   UNL     1     -44.042  62.320 -43.734  1.00  0.00     0.000 A 
HETATM   37  C   UNL     1     -44.166  61.169 -44.509  1.00  0.00     0.001 A 
HETATM   38  C   UNL     1     -44.960  61.181 -45.656  1.00  0.00     0.009 A 
ENDBRANCH  32  33
ENDBRANCH  28  32
ENDBRANCH   4  25
TORSDOF 10
ENDMDL
