MODEL 1
REMARK VINA RESULT:      -7.8      0.000      0.000
REMARK  4 active torsions:
REMARK  status: ('A' for Active; 'I' for Inactive)
REMARK    1  A    between atoms: C_2  and  N_3 
REMARK    2  A    between atoms: C_11  and  C_12 
REMARK    3  A    between atoms: C_12  and  N_13 
REMARK    4  A    between atoms: C_16  and  N_17 
ROOT
HETATM    1  N   UNL     1     -41.709  55.959 -54.122  1.00  0.00    -0.065 N 
HETATM    2  H   UNL     1     -40.823  56.463 -53.949  1.00  0.00     0.280 HD
HETATM    3  C   UNL     1     -42.146  55.242 -52.856  1.00  0.00     0.268 C 
HETATM    4  C   UNL     1     -41.128  54.186 -52.304  1.00  0.00     0.214 C 
HETATM    5  C   UNL     1     -41.078  52.932 -53.187  1.00  0.00     0.035 C 
HETATM    6  C   UNL     1     -40.156  53.031 -54.400  1.00  0.00     0.004 C 
HETATM    7  C   UNL     1     -40.113  54.354 -55.156  1.00  0.00     0.028 C 
HETATM    8  C   UNL     1     -41.451  55.060 -55.324  1.00  0.00     0.235 C 
ENDROOT
BRANCH   1   9
HETATM    9  C   UNL     1     -42.693  57.085 -54.510  1.00  0.00     0.276 C 
BRANCH   9  10
HETATM   10  C   UNL     1     -43.144  57.936 -53.357  1.00  0.00     0.009 A 
HETATM   11  C   UNL     1     -42.294  58.863 -52.742  1.00  0.00     0.136 A 
HETATM   12  N   UNL     1     -42.591  59.651 -51.696  1.00  0.00    -0.216 NA
HETATM   13 CL   UNL     1     -40.640  59.000 -53.217  1.00  0.00    -0.062 Cl
HETATM   14  C   UNL     1     -43.864  59.523 -51.275  1.00  0.00     0.159 A 
HETATM   15  N   UNL     1     -44.487  60.226 -50.271  1.00  0.00    -0.248 N 
HETATM   16  C   UNL     1     -44.820  58.655 -51.783  1.00  0.00     0.031 A 
HETATM   17  N   UNL     1     -45.749  59.799 -50.040  1.00  0.00    -0.182 NA
HETATM   18  C   UNL     1     -45.961  58.886 -50.988  1.00  0.00     0.154 A 
HETATM   19  C   UNL     1     -44.459  57.834 -52.865  1.00  0.00     0.029 A 
BRANCH  15  20
HETATM   20  C   UNL     1     -43.919  61.324 -49.491  1.00  0.00     0.104 C 
HETATM   21  C   UNL     1     -44.644  61.483 -48.157  1.00  0.00     0.034 C 
HETATM   22  C   UNL     1     -43.904  62.635 -50.279  1.00  0.00     0.034 C 
ENDBRANCH  15  20
ENDBRANCH   9  10
ENDBRANCH   1   9
BRANCH   4  23
HETATM   23  N   UNL     1     -41.471  53.739 -50.872  1.00  0.00    -0.065 N 
HETATM   24  H   UNL     1     -42.177  52.989 -50.966  1.00  0.00     0.280 HD
HETATM   25  C   UNL     1     -42.117  54.758 -49.935  1.00  0.00     0.235 C 
HETATM   26  C   UNL     1     -41.097  54.938 -48.830  1.00  0.00     0.029 C 
HETATM   27  C   UNL     1     -40.518  53.549 -48.667  1.00  0.00     0.029 C 
HETATM   28  C   UNL     1     -40.334  53.068 -50.094  1.00  0.00     0.235 C 
ENDBRANCH   4  23
TORSDOF 4
ENDMDL
MODEL 2
REMARK VINA RESULT:      -7.7      1.555      3.128
REMARK  4 active torsions:
REMARK  status: ('A' for Active; 'I' for Inactive)
REMARK    1  A    between atoms: C_2  and  N_3 
REMARK    2  A    between atoms: C_11  and  C_12 
REMARK    3  A    between atoms: C_12  and  N_13 
REMARK    4  A    between atoms: C_16  and  N_17 
ROOT
HETATM    1  N   UNL     1     -41.626  55.481 -51.994  1.00  0.00    -0.065 N 
HETATM    2  H   UNL     1     -42.571  55.063 -51.989  1.00  0.00     0.280 HD
HETATM    3  C   UNL     1     -40.650  54.534 -52.670  1.00  0.00     0.268 C 
HETATM    4  C   UNL     1     -40.515  53.124 -51.997  1.00  0.00     0.214 C 
HETATM    5  C   UNL     1     -39.760  53.204 -50.664  1.00  0.00     0.035 C 
HETATM    6  C   UNL     1     -40.616  53.582 -49.457  1.00  0.00     0.004 C 
HETATM    7  C   UNL     1     -41.693  54.643 -49.652  1.00  0.00     0.028 C 
HETATM    8  C   UNL     1     -41.308  55.815 -50.542  1.00  0.00     0.235 C 
ENDROOT
BRANCH   1   9
HETATM    9  C   UNL     1     -41.813  56.783 -52.804  1.00  0.00     0.276 C 
BRANCH   9  10
HETATM   10  C   UNL     1     -42.593  57.849 -52.090  1.00  0.00     0.009 A 
HETATM   11  C   UNL     1     -41.979  58.997 -51.576  1.00  0.00     0.136 A 
HETATM   12  N   UNL     1     -42.579  59.994 -50.904  1.00  0.00    -0.216 NA
HETATM   13 CL   UNL     1     -40.265  59.195 -51.648  1.00  0.00    -0.062 Cl
HETATM   14  C   UNL     1     -43.912  59.835 -50.791  1.00  0.00     0.159 A 
HETATM   15  N   UNL     1     -44.811  60.701 -50.214  1.00  0.00    -0.248 N 
HETATM   16  C   UNL     1     -44.658  58.759 -51.249  1.00  0.00     0.031 A 
HETATM   17  N   UNL     1     -46.069  60.207 -50.188  1.00  0.00    -0.182 NA
HETATM   18  C   UNL     1     -45.980  59.057 -50.859  1.00  0.00     0.154 A 
HETATM   19  C   UNL     1     -43.985  57.729 -51.929  1.00  0.00     0.029 A 
BRANCH  15  20
HETATM   20  C   UNL     1     -44.520  62.024 -49.665  1.00  0.00     0.104 C 
HETATM   21  C   UNL     1     -44.704  62.042 -48.150  1.00  0.00     0.034 C 
HETATM   22  C   UNL     1     -45.349  63.117 -50.342  1.00  0.00     0.034 C 
ENDBRANCH  15  20
ENDBRANCH   9  10
ENDBRANCH   1   9
BRANCH   4  23
HETATM   23  N   UNL     1     -39.777  52.117 -52.896  1.00  0.00    -0.065 N 
HETATM   24  H   UNL     1     -38.826  52.500 -53.037  1.00  0.00     0.280 HD
HETATM   25  C   UNL     1     -40.311  51.886 -54.308  1.00  0.00     0.235 C 
HETATM   26  C   UNL     1     -40.734  50.432 -54.308  1.00  0.00     0.029 C 
HETATM   27  C   UNL     1     -39.687  49.771 -53.436  1.00  0.00     0.029 C 
HETATM   28  C   UNL     1     -39.521  50.737 -52.280  1.00  0.00     0.235 C 
ENDBRANCH   4  23
TORSDOF 4
ENDMDL
MODEL 3
REMARK VINA RESULT:      -7.6      3.711      6.516
REMARK  4 active torsions:
REMARK  status: ('A' for Active; 'I' for Inactive)
REMARK    1  A    between atoms: C_2  and  N_3 
REMARK    2  A    between atoms: C_11  and  C_12 
REMARK    3  A    between atoms: C_12  and  N_13 
REMARK    4  A    between atoms: C_16  and  N_17 
ROOT
HETATM    1  N   UNL     1     -42.177  55.886 -53.557  1.00  0.00    -0.065 N 
HETATM    2  H   UNL     1     -43.007  55.414 -53.951  1.00  0.00     0.280 HD
HETATM    3  C   UNL     1     -40.982  54.950 -53.609  1.00  0.00     0.268 C 
HETATM    4  C   UNL     1     -41.154  53.607 -52.818  1.00  0.00     0.214 C 
HETATM    5  C   UNL     1     -41.111  53.833 -51.301  1.00  0.00     0.035 C 
HETATM    6  C   UNL     1     -42.438  54.251 -50.672  1.00  0.00     0.004 C 
HETATM    7  C   UNL     1     -43.317  55.227 -51.446  1.00  0.00     0.028 C 
HETATM    8  C   UNL     1     -42.581  56.349 -52.163  1.00  0.00     0.235 C 
ENDROOT
BRANCH   1   9
HETATM    9  C   UNL     1     -41.985  57.108 -54.482  1.00  0.00     0.276 C 
BRANCH   9  10
HETATM   10  C   UNL     1     -42.817  57.074 -55.732  1.00  0.00     0.009 A 
HETATM   11  C   UNL     1     -44.031  57.763 -55.833  1.00  0.00     0.136 A 
HETATM   12  N   UNL     1     -44.858  57.778 -56.891  1.00  0.00    -0.216 NA
HETATM   13 CL   UNL     1     -44.687  58.608 -54.478  1.00  0.00    -0.062 Cl
HETATM   14  C   UNL     1     -44.391  57.082 -57.945  1.00  0.00     0.159 A 
HETATM   15  N   UNL     1     -44.969  56.953 -59.185  1.00  0.00    -0.248 N 
HETATM   16  C   UNL     1     -43.210  56.354 -57.997  1.00  0.00     0.031 A 
HETATM   17  N   UNL     1     -44.285  56.113 -59.996  1.00  0.00    -0.182 NA
HETATM   18  C   UNL     1     -43.199  55.795 -59.291  1.00  0.00     0.154 A 
HETATM   19  C   UNL     1     -42.386  56.349 -56.858  1.00  0.00     0.029 A 
BRANCH  15  20
HETATM   20  C   UNL     1     -46.186  57.611 -59.654  1.00  0.00     0.104 C 
HETATM   21  C   UNL     1     -47.034  56.663 -60.499  1.00  0.00     0.034 C 
HETATM   22  C   UNL     1     -45.880  58.907 -60.406  1.00  0.00     0.034 C 
ENDBRANCH  15  20
ENDBRANCH   9  10
ENDBRANCH   1   9
BRANCH   4  23
HETATM   23  N   UNL     1     -40.063  52.580 -53.171  1.00  0.00    -0.065 N 
HETATM   24  H   UNL     1     -39.171  53.102 -53.192  1.00  0.00     0.280 HD
HETATM   25  C   UNL     1     -40.136  51.891 -54.532  1.00  0.00     0.235 C 
HETATM   26  C   UNL     1     -40.347  50.430 -54.194  1.00  0.00     0.029 C 
HETATM   27  C   UNL     1     -39.516  50.244 -52.942  1.00  0.00     0.029 C 
HETATM   28  C   UNL     1     -39.815  51.487 -52.125  1.00  0.00     0.235 C 
ENDBRANCH   4  23
TORSDOF 4
ENDMDL
MODEL 4
REMARK VINA RESULT:      -7.6      3.692      7.949
REMARK  4 active torsions:
REMARK  status: ('A' for Active; 'I' for Inactive)
REMARK    1  A    between atoms: C_2  and  N_3 
REMARK    2  A    between atoms: C_11  and  C_12 
REMARK    3  A    between atoms: C_12  and  N_13 
REMARK    4  A    between atoms: C_16  and  N_17 
ROOT
HETATM    1  N   UNL     1     -42.475  58.159 -56.318  1.00  0.00    -0.065 N 
HETATM    2  H   UNL     1     -41.620  57.638 -56.575  1.00  0.00     0.280 HD
HETATM    3  C   UNL     1     -43.698  57.433 -56.853  1.00  0.00     0.268 C 
HETATM    4  C   UNL     1     -43.734  57.247 -58.409  1.00  0.00     0.214 C 
HETATM    5  C   UNL     1     -44.009  58.574 -59.131  1.00  0.00     0.035 C 
HETATM    6  C   UNL     1     -42.780  59.448 -59.369  1.00  0.00     0.004 C 
HETATM    7  C   UNL     1     -41.733  59.520 -58.263  1.00  0.00     0.028 C 
HETATM    8  C   UNL     1     -42.277  59.575 -56.844  1.00  0.00     0.235 C 
ENDROOT
BRANCH   1   9
HETATM    9  C   UNL     1     -42.444  58.162 -54.773  1.00  0.00     0.276 C 
BRANCH   9  10
HETATM   10  C   UNL     1     -41.919  56.894 -54.163  1.00  0.00     0.009 A 
HETATM   11  C   UNL     1     -41.987  56.651 -52.786  1.00  0.00     0.136 A 
HETATM   12  N   UNL     1     -41.528  55.567 -52.140  1.00  0.00    -0.216 NA
HETATM   13 CL   UNL     1     -42.589  57.853 -51.702  1.00  0.00    -0.062 Cl
HETATM   14  C   UNL     1     -41.006  54.636 -52.962  1.00  0.00     0.159 A 
HETATM   15  N   UNL     1     -40.509  53.401 -52.619  1.00  0.00    -0.248 N 
HETATM   16  C   UNL     1     -40.873  54.732 -54.340  1.00  0.00     0.031 A 
HETATM   17  N   UNL     1     -39.980  52.739 -53.673  1.00  0.00    -0.182 NA
HETATM   18  C   UNL     1     -40.248  53.525 -54.717  1.00  0.00     0.154 A 
HETATM   19  C   UNL     1     -41.348  55.894 -54.972  1.00  0.00     0.029 A 
BRANCH  15  20
HETATM   20  C   UNL     1     -40.512  52.798 -51.288  1.00  0.00     0.104 C 
HETATM   21  C   UNL     1     -39.860  53.724 -50.264  1.00  0.00     0.034 C 
HETATM   22  C   UNL     1     -39.858  51.415 -51.288  1.00  0.00     0.034 C 
ENDBRANCH  15  20
ENDBRANCH   9  10
ENDBRANCH   1   9
BRANCH   4  23
HETATM   23  N   UNL     1     -44.809  56.240 -58.851  1.00  0.00    -0.065 N 
HETATM   24  H   UNL     1     -45.229  55.867 -57.982  1.00  0.00     0.280 HD
HETATM   25  C   UNL     1     -44.361  55.001 -59.624  1.00  0.00     0.235 C 
HETATM   26  C   UNL     1     -45.019  55.154 -60.978  1.00  0.00     0.029 C 
HETATM   27  C   UNL     1     -46.355  55.783 -60.642  1.00  0.00     0.029 C 
HETATM   28  C   UNL     1     -46.007  56.831 -59.603  1.00  0.00     0.235 C 
ENDBRANCH   4  23
TORSDOF 4
ENDMDL
MODEL 5
REMARK VINA RESULT:      -7.4      3.185      5.906
REMARK  4 active torsions:
REMARK  status: ('A' for Active; 'I' for Inactive)
REMARK    1  A    between atoms: C_2  and  N_3 
REMARK    2  A    between atoms: C_11  and  C_12 
REMARK    3  A    between atoms: C_12  and  N_13 
REMARK    4  A    between atoms: C_16  and  N_17 
ROOT
HETATM    1  N   UNL     1     -41.731  55.826 -51.532  1.00  0.00    -0.065 N 
HETATM    2  H   UNL     1     -42.663  55.378 -51.522  1.00  0.00     0.280 HD
HETATM    3  C   UNL     1     -40.773  54.996 -52.368  1.00  0.00     0.268 C 
HETATM    4  C   UNL     1     -40.561  53.523 -51.874  1.00  0.00     0.214 C 
HETATM    5  C   UNL     1     -39.729  53.474 -50.585  1.00  0.00     0.035 C 
HETATM    6  C   UNL     1     -40.520  53.681 -49.295  1.00  0.00     0.004 C 
HETATM    7  C   UNL     1     -41.636  54.721 -49.304  1.00  0.00     0.028 C 
HETATM    8  C   UNL     1     -41.336  56.000 -50.071  1.00  0.00     0.235 C 
ENDROOT
BRANCH   1   9
HETATM    9  C   UNL     1     -42.001  57.205 -52.172  1.00  0.00     0.276 C 
BRANCH   9  10
HETATM   10  C   UNL     1     -42.189  57.170 -53.662  1.00  0.00     0.009 A 
HETATM   11  C   UNL     1     -42.007  58.305 -54.459  1.00  0.00     0.136 A 
HETATM   12  N   UNL     1     -42.172  58.385 -55.790  1.00  0.00    -0.216 NA
HETATM   13 CL   UNL     1     -41.654  59.840 -53.750  1.00  0.00    -0.062 Cl
HETATM   14  C   UNL     1     -42.498  57.209 -56.359  1.00  0.00     0.159 A 
HETATM   15  N   UNL     1     -42.678  56.949 -57.697  1.00  0.00    -0.248 N 
HETATM   16  C   UNL     1     -42.710  56.003 -55.704  1.00  0.00     0.031 A 
HETATM   17  N   UNL     1     -43.084  55.680 -57.933  1.00  0.00    -0.182 NA
HETATM   18  C   UNL     1     -43.052  55.101 -56.732  1.00  0.00     0.154 A 
HETATM   19  C   UNL     1     -42.546  55.972 -54.309  1.00  0.00     0.029 A 
BRANCH  15  20
HETATM   20  C   UNL     1     -42.477  57.882 -58.803  1.00  0.00     0.104 C 
HETATM   21  C   UNL     1     -43.738  58.702 -59.066  1.00  0.00     0.034 C 
HETATM   22  C   UNL     1     -41.999  57.171 -60.070  1.00  0.00     0.034 C 
ENDBRANCH  15  20
ENDBRANCH   9  10
ENDBRANCH   1   9
BRANCH   4  23
HETATM   23  N   UNL     1     -39.851  52.652 -52.925  1.00  0.00    -0.065 N 
HETATM   24  H   UNL     1     -38.941  53.108 -53.111  1.00  0.00     0.280 HD
HETATM   25  C   UNL     1     -40.499  52.513 -54.301  1.00  0.00     0.235 C 
HETATM   26  C   UNL     1     -40.834  51.040 -54.402  1.00  0.00     0.029 C 
HETATM   27  C   UNL     1     -39.675  50.374 -53.691  1.00  0.00     0.029 C 
HETATM   28  C   UNL     1     -39.459  51.243 -52.466  1.00  0.00     0.235 C 
ENDBRANCH   4  23
TORSDOF 4
ENDMDL
MODEL 6
REMARK VINA RESULT:      -7.3      2.157      4.366
REMARK  4 active torsions:
REMARK  status: ('A' for Active; 'I' for Inactive)
REMARK    1  A    between atoms: C_2  and  N_3 
REMARK    2  A    between atoms: C_11  and  C_12 
REMARK    3  A    between atoms: C_12  and  N_13 
REMARK    4  A    between atoms: C_16  and  N_17 
ROOT
HETATM    1  N   UNL     1     -41.214  53.573 -50.787  1.00  0.00    -0.065 N 
HETATM    2  H   UNL     1     -42.037  52.965 -50.644  1.00  0.00     0.280 HD
HETATM    3  C   UNL     1     -41.185  54.065 -52.224  1.00  0.00     0.268 C 
HETATM    4  C   UNL     1     -41.108  52.938 -53.312  1.00  0.00     0.214 C 
HETATM    5  C   UNL     1     -39.723  52.277 -53.343  1.00  0.00     0.035 C 
HETATM    6  C   UNL     1     -39.517  51.159 -52.323  1.00  0.00     0.004 C 
HETATM    7  C   UNL     1     -40.111  51.348 -50.931  1.00  0.00     0.028 C 
HETATM    8  C   UNL     1     -40.006  52.752 -50.356  1.00  0.00     0.235 C 
ENDROOT
BRANCH   1   9
HETATM    9  C   UNL     1     -41.446  54.732 -49.792  1.00  0.00     0.276 C 
BRANCH   9  10
HETATM   10  C   UNL     1     -42.153  55.920 -50.379  1.00  0.00     0.009 A 
HETATM   11  C   UNL     1     -43.528  55.909 -50.641  1.00  0.00     0.136 A 
HETATM   12  N   UNL     1     -44.248  56.904 -51.183  1.00  0.00    -0.216 NA
HETATM   13 CL   UNL     1     -44.466  54.481 -50.395  1.00  0.00    -0.062 Cl
HETATM   14  C   UNL     1     -43.525  58.013 -51.431  1.00  0.00     0.159 A 
HETATM   15  N   UNL     1     -43.977  59.213 -51.926  1.00  0.00    -0.248 N 
HETATM   16  C   UNL     1     -42.162  58.175 -51.223  1.00  0.00     0.031 A 
HETATM   17  N   UNL     1     -42.979  60.101 -52.139  1.00  0.00    -0.182 NA
HETATM   18  C   UNL     1     -41.893  59.487 -51.666  1.00  0.00     0.154 A 
HETATM   19  C   UNL     1     -41.444  57.099 -50.673  1.00  0.00     0.029 A 
BRANCH  15  20
HETATM   20  C   UNL     1     -45.363  59.570 -52.219  1.00  0.00     0.104 C 
HETATM   21  C   UNL     1     -45.452  60.463 -53.455  1.00  0.00     0.034 C 
HETATM   22  C   UNL     1     -46.054  60.212 -51.015  1.00  0.00     0.034 C 
ENDBRANCH  15  20
ENDBRANCH   9  10
ENDBRANCH   1   9
BRANCH   4  23
HETATM   23  N   UNL     1     -41.406  53.471 -54.724  1.00  0.00    -0.065 N 
HETATM   24  H   UNL     1     -41.195  52.695 -55.375  1.00  0.00     0.280 HD
HETATM   25  C   UNL     1     -40.576  54.644 -55.242  1.00  0.00     0.235 C 
HETATM   26  C   UNL     1     -41.587  55.757 -55.424  1.00  0.00     0.029 C 
HETATM   27  C   UNL     1     -42.822  55.024 -55.903  1.00  0.00     0.029 C 
HETATM   28  C   UNL     1     -42.876  53.794 -55.017  1.00  0.00     0.235 C 
ENDBRANCH   4  23
TORSDOF 4
ENDMDL
MODEL 7
REMARK VINA RESULT:      -7.2      4.052      5.920
REMARK  4 active torsions:
REMARK  status: ('A' for Active; 'I' for Inactive)
REMARK    1  A    between atoms: C_2  and  N_3 
REMARK    2  A    between atoms: C_11  and  C_12 
REMARK    3  A    between atoms: C_12  and  N_13 
REMARK    4  A    between atoms: C_16  and  N_17 
ROOT
HETATM    1  N   UNL     1     -42.117  54.382 -54.166  1.00  0.00    -0.065 N 
HETATM    2  H   UNL     1     -41.424  54.919 -54.714  1.00  0.00     0.280 HD
HETATM    3  C   UNL     1     -41.942  54.679 -52.687  1.00  0.00     0.268 C 
HETATM    4  C   UNL     1     -40.532  54.327 -52.099  1.00  0.00     0.214 C 
HETATM    5  C   UNL     1     -40.332  52.810 -51.980  1.00  0.00     0.035 C 
HETATM    6  C   UNL     1     -39.856  52.118 -53.255  1.00  0.00     0.004 C 
HETATM    7  C   UNL     1     -40.442  52.590 -54.582  1.00  0.00     0.028 C 
HETATM    8  C   UNL     1     -41.926  52.924 -54.564  1.00  0.00     0.235 C 
ENDROOT
BRANCH   1   9
HETATM    9  C   UNL     1     -43.473  54.899 -54.696  1.00  0.00     0.276 C 
BRANCH   9  10
HETATM   10  C   UNL     1     -43.369  55.768 -55.916  1.00  0.00     0.009 A 
HETATM   11  C   UNL     1     -43.589  57.150 -55.863  1.00  0.00     0.136 A 
HETATM   12  N   UNL     1     -43.544  58.009 -56.894  1.00  0.00    -0.216 NA
HETATM   13 CL   UNL     1     -44.094  57.911 -54.398  1.00  0.00    -0.062 Cl
HETATM   14  C   UNL     1     -43.201  57.427 -58.059  1.00  0.00     0.159 A 
HETATM   15  N   UNL     1     -43.015  58.039 -59.276  1.00  0.00    -0.248 N 
HETATM   16  C   UNL     1     -42.952  56.078 -58.268  1.00  0.00     0.031 A 
HETATM   17  N   UNL     1     -42.756  57.159 -60.270  1.00  0.00    -0.182 NA
HETATM   18  C   UNL     1     -42.669  55.983 -59.646  1.00  0.00     0.154 A 
HETATM   19  C   UNL     1     -43.030  55.212 -57.164  1.00  0.00     0.029 A 
BRANCH  15  20
HETATM   20  C   UNL     1     -43.074  59.473 -59.551  1.00  0.00     0.104 C 
HETATM   21  C   UNL     1     -43.337  59.738 -61.031  1.00  0.00     0.034 C 
HETATM   22  C   UNL     1     -41.819  60.199 -59.067  1.00  0.00     0.034 C 
ENDBRANCH  15  20
ENDBRANCH   9  10
ENDBRANCH   1   9
BRANCH   4  23
HETATM   23  N   UNL     1     -40.312  54.941 -50.705  1.00  0.00    -0.065 N 
HETATM   24  H   UNL     1     -39.874  55.865 -50.863  1.00  0.00     0.280 HD
HETATM   25  C   UNL     1     -39.365  54.225 -49.745  1.00  0.00     0.235 C 
HETATM   26  C   UNL     1     -40.255  53.808 -48.593  1.00  0.00     0.029 C 
HETATM   27  C   UNL     1     -41.231  54.960 -48.478  1.00  0.00     0.029 C 
HETATM   28  C   UNL     1     -41.584  55.277 -49.918  1.00  0.00     0.235 C 
ENDBRANCH   4  23
TORSDOF 4
ENDMDL
MODEL 8
REMARK VINA RESULT:      -7.2      2.138      2.929
REMARK  4 active torsions:
REMARK  status: ('A' for Active; 'I' for Inactive)
REMARK    1  A    between atoms: C_2  and  N_3 
REMARK    2  A    between atoms: C_11  and  C_12 
REMARK    3  A    between atoms: C_12  and  N_13 
REMARK    4  A    between atoms: C_16  and  N_17 
ROOT
HETATM    1  N   UNL     1     -42.143  55.118 -52.894  1.00  0.00    -0.065 N 
HETATM    2  H   UNL     1     -41.479  55.906 -52.814  1.00  0.00     0.280 HD
HETATM    3  C   UNL     1     -41.627  53.932 -52.096  1.00  0.00     0.268 C 
HETATM    4  C   UNL     1     -40.226  53.388 -52.543  1.00  0.00     0.214 C 
HETATM    5  C   UNL     1     -40.308  52.651 -53.888  1.00  0.00     0.035 C 
HETATM    6  C   UNL     1     -40.236  53.548 -55.122  1.00  0.00     0.004 C 
HETATM    7  C   UNL     1     -40.966  54.886 -55.074  1.00  0.00     0.028 C 
HETATM    8  C   UNL     1     -42.323  54.870 -54.386  1.00  0.00     0.235 C 
ENDROOT
BRANCH   1   9
HETATM    9  C   UNL     1     -43.448  55.685 -52.293  1.00  0.00     0.276 C 
BRANCH   9  10
HETATM   10  C   UNL     1     -43.504  57.185 -52.239  1.00  0.00     0.009 A 
HETATM   11  C   UNL     1     -44.253  57.933 -53.155  1.00  0.00     0.136 A 
HETATM   12  N   UNL     1     -44.350  59.271 -53.208  1.00  0.00    -0.216 NA
HETATM   13 CL   UNL     1     -45.075  57.164 -54.465  1.00  0.00    -0.062 Cl
HETATM   14  C   UNL     1     -43.674  59.895 -52.225  1.00  0.00     0.159 A 
HETATM   15  N   UNL     1     -43.622  61.245 -51.973  1.00  0.00    -0.248 N 
HETATM   16  C   UNL     1     -42.893  59.294 -51.248  1.00  0.00     0.031 A 
HETATM   17  N   UNL     1     -42.783  61.556 -50.957  1.00  0.00    -0.182 NA
HETATM   18  C   UNL     1     -42.386  60.370 -50.492  1.00  0.00     0.154 A 
HETATM   19  C   UNL     1     -42.804  57.891 -51.243  1.00  0.00     0.029 A 
BRANCH  15  20
HETATM   20  C   UNL     1     -44.356  62.294 -52.676  1.00  0.00     0.104 C 
HETATM   21  C   UNL     1     -43.422  63.126 -53.552  1.00  0.00     0.034 C 
HETATM   22  C   UNL     1     -45.153  63.177 -51.714  1.00  0.00     0.034 C 
ENDBRANCH  15  20
ENDBRANCH   9  10
ENDBRANCH   1   9
BRANCH   4  23
HETATM   23  N   UNL     1     -39.622  52.419 -51.512  1.00  0.00    -0.065 N 
HETATM   24  H   UNL     1     -38.804  52.904 -51.105  1.00  0.00     0.280 HD
HETATM   25  C   UNL     1     -39.067  51.088 -52.015  1.00  0.00     0.235 C 
HETATM   26  C   UNL     1     -39.950  50.049 -51.355  1.00  0.00     0.029 C 
HETATM   27  C   UNL     1     -40.228  50.650 -49.993  1.00  0.00     0.029 C 
HETATM   28  C   UNL     1     -40.500  52.111 -50.294  1.00  0.00     0.235 C 
ENDBRANCH   4  23
TORSDOF 4
ENDMDL
MODEL 9
REMARK VINA RESULT:      -7.1      3.926      5.365
REMARK  4 active torsions:
REMARK  status: ('A' for Active; 'I' for Inactive)
REMARK    1  A    between atoms: C_2  and  N_3 
REMARK    2  A    between atoms: C_11  and  C_12 
REMARK    3  A    between atoms: C_12  and  N_13 
REMARK    4  A    between atoms: C_16  and  N_17 
ROOT
HETATM    1  N   UNL     1     -42.200  55.215 -54.395  1.00  0.00    -0.065 N 
HETATM    2  H   UNL     1     -41.505  55.973 -54.288  1.00  0.00     0.280 HD
HETATM    3  C   UNL     1     -42.498  54.599 -53.039  1.00  0.00     0.268 C 
HETATM    4  C   UNL     1     -41.261  53.976 -52.304  1.00  0.00     0.214 C 
HETATM    5  C   UNL     1     -40.804  52.672 -52.973  1.00  0.00     0.035 C 
HETATM    6  C   UNL     1     -39.870  52.851 -54.168  1.00  0.00     0.004 C 
HETATM    7  C   UNL     1     -40.154  54.003 -55.126  1.00  0.00     0.028 C 
HETATM    8  C   UNL     1     -41.622  54.260 -55.431  1.00  0.00     0.235 C 
ENDROOT
BRANCH   1   9
HETATM    9  C   UNL     1     -43.434  55.939 -54.977  1.00  0.00     0.276 C 
BRANCH   9  10
HETATM   10  C   UNL     1     -43.105  57.092 -55.882  1.00  0.00     0.009 A 
HETATM   11  C   UNL     1     -43.091  56.960 -57.275  1.00  0.00     0.136 A 
HETATM   12  N   UNL     1     -42.789  57.917 -58.168  1.00  0.00    -0.216 NA
HETATM   13 CL   UNL     1     -43.353  55.426 -58.024  1.00  0.00    -0.062 Cl
HETATM   14  C   UNL     1     -42.531  59.112 -57.603  1.00  0.00     0.159 A 
HETATM   15  N   UNL     1     -42.248  60.296 -58.242  1.00  0.00    -0.248 N 
HETATM   16  C   UNL     1     -42.509  59.397 -56.245  1.00  0.00     0.031 A 
HETATM   17  N   UNL     1     -41.953  61.297 -57.383  1.00  0.00    -0.182 NA
HETATM   18  C   UNL     1     -42.161  60.762 -56.178  1.00  0.00     0.154 A 
HETATM   19  C   UNL     1     -42.811  58.360 -55.346  1.00  0.00     0.029 A 
BRANCH  15  20
HETATM   20  C   UNL     1     -42.242  60.529 -59.685  1.00  0.00     0.104 C 
HETATM   21  C   UNL     1     -41.255  61.632 -60.059  1.00  0.00     0.034 C 
HETATM   22  C   UNL     1     -43.644  60.828 -60.219  1.00  0.00     0.034 C 
ENDBRANCH  15  20
ENDBRANCH   9  10
ENDBRANCH   1   9
BRANCH   4  23
HETATM   23  N   UNL     1     -41.556  53.667 -50.826  1.00  0.00    -0.065 N 
HETATM   24  H   UNL     1     -42.268  52.917 -50.825  1.00  0.00     0.280 HD
HETATM   25  C   UNL     1     -42.163  54.774 -49.967  1.00  0.00     0.235 C 
HETATM   26  C   UNL     1     -41.105  55.048 -48.919  1.00  0.00     0.029 C 
HETATM   27  C   UNL     1     -40.527  53.675 -48.647  1.00  0.00     0.029 C 
HETATM   28  C   UNL     1     -40.396  53.062 -50.028  1.00  0.00     0.235 C 
ENDBRANCH   4  23
TORSDOF 4
ENDMDL
MODEL 10
REMARK VINA RESULT:      -7.1      3.571      5.486
REMARK  4 active torsions:
REMARK  status: ('A' for Active; 'I' for Inactive)
REMARK    1  A    between atoms: C_2  and  N_3 
REMARK    2  A    between atoms: C_11  and  C_12 
REMARK    3  A    between atoms: C_12  and  N_13 
REMARK    4  A    between atoms: C_16  and  N_17 
ROOT
HETATM    1  N   UNL     1     -41.067  56.250 -53.916  1.00  0.00    -0.065 N 
HETATM    2  H   UNL     1     -40.065  56.452 -53.763  1.00  0.00     0.280 HD
HETATM    3  C   UNL     1     -41.653  55.595 -52.678  1.00  0.00     0.268 C 
HETATM    4  C   UNL     1     -40.980  54.242 -52.258  1.00  0.00     0.214 C 
HETATM    5  C   UNL     1     -41.343  53.107 -53.225  1.00  0.00     0.035 C 
HETATM    6  C   UNL     1     -40.479  53.025 -54.481  1.00  0.00     0.004 C 
HETATM    7  C   UNL     1     -40.067  54.333 -55.148  1.00  0.00     0.028 C 
HETATM    8  C   UNL     1     -41.136  55.416 -55.189  1.00  0.00     0.235 C 
ENDROOT
BRANCH   1   9
HETATM    9  C   UNL     1     -41.680  57.646 -54.169  1.00  0.00     0.276 C 
BRANCH   9  10
HETATM   10  C   UNL     1     -42.611  57.709 -55.345  1.00  0.00     0.009 A 
HETATM   11  C   UNL     1     -43.994  57.548 -55.206  1.00  0.00     0.136 A 
HETATM   12  N   UNL     1     -44.906  57.564 -56.191  1.00  0.00    -0.216 NA
HETATM   13 CL   UNL     1     -44.692  57.165 -53.673  1.00  0.00    -0.062 Cl
HETATM   14  C   UNL     1     -44.377  57.810 -57.405  1.00  0.00     0.159 A 
HETATM   15  N   UNL     1     -45.048  57.946 -58.598  1.00  0.00    -0.248 N 
HETATM   16  C   UNL     1     -43.034  57.992 -57.700  1.00  0.00     0.031 A 
HETATM   17  N   UNL     1     -44.215  58.107 -59.651  1.00  0.00    -0.182 NA
HETATM   18  C   UNL     1     -43.004  58.185 -59.096  1.00  0.00     0.154 A 
HETATM   19  C   UNL     1     -42.112  57.948 -56.640  1.00  0.00     0.029 A 
BRANCH  15  20
HETATM   20  C   UNL     1     -46.496  57.927 -58.792  1.00  0.00     0.104 C 
HETATM   21  C   UNL     1     -46.915  56.763 -59.687  1.00  0.00     0.034 C 
HETATM   22  C   UNL     1     -47.016  59.261 -59.331  1.00  0.00     0.034 C 
ENDBRANCH  15  20
ENDBRANCH   9  10
ENDBRANCH   1   9
BRANCH   4  23
HETATM   23  N   UNL     1     -41.389  53.803 -50.842  1.00  0.00    -0.065 N 
HETATM   24  H   UNL     1     -42.115  53.075 -50.964  1.00  0.00     0.280 HD
HETATM   25  C   UNL     1     -42.035  54.839 -49.925  1.00  0.00     0.235 C 
HETATM   26  C   UNL     1     -41.052  54.984 -48.783  1.00  0.00     0.029 C 
HETATM   27  C   UNL     1     -40.523  53.576 -48.605  1.00  0.00     0.029 C 
HETATM   28  C   UNL     1     -40.303  53.093 -50.026  1.00  0.00     0.235 C 
ENDBRANCH   4  23
TORSDOF 4
ENDMDL
