MODEL 1
REMARK VINA RESULT:      -9.1      0.000      0.000
REMARK  6 active torsions:
REMARK  status: ('A' for Active; 'I' for Inactive)
REMARK    1  A    between atoms: O_2  and  C_3 
REMARK    2  A    between atoms: C_6  and  C_7 
REMARK    3  A    between atoms: C_7  and  N_8 
REMARK       I    between atoms: N_8  and  C_9 
REMARK    4  A    between atoms: C_9  and  C_10 
REMARK    5  A    between atoms: C_10  and  O_11 
REMARK    6  A    between atoms: N_12  and  C_13 
ROOT
HETATM    1  C   UNL     1     -43.421  56.283 -53.912  1.00  0.00     0.256 C 
HETATM    2  N   UNL     1     -43.601  56.661 -52.505  1.00  0.00    -0.248 N 
HETATM    3  C   UNL     1     -44.654  57.483 -52.138  1.00  0.00     0.330 C 
HETATM    4  O   UNL     1     -45.117  57.559 -51.000  1.00  0.00    -0.246 OA
HETATM    5  N   UNL     1     -45.204  58.262 -53.111  1.00  0.00    -0.308 N 
HETATM    6  C   UNL     1     -44.749  58.335 -54.420  1.00  0.00     0.048 A 
HETATM    7  C   UNL     1     -43.814  57.403 -54.864  1.00  0.00     0.034 A 
HETATM    8  C   UNL     1     -45.238  59.339 -55.260  1.00  0.00     0.030 A 
HETATM    9  C   UNL     1     -44.767  59.436 -56.566  1.00  0.00     0.002 A 
HETATM   10  C   UNL     1     -43.829  58.519 -57.032  1.00  0.00     0.001 A 
HETATM   11  C   UNL     1     -43.364  57.501 -56.194  1.00  0.00     0.015 A 
HETATM   12  H   UNL     1     -45.917  58.899 -52.782  1.00  0.00     0.170 HD
ENDROOT
BRANCH   1  13
HETATM   13  C   UNL     1     -41.934  55.809 -54.238  1.00  0.00     0.279 C 
HETATM   14  N   UNL     1     -41.866  54.495 -54.680  1.00  0.00    -0.352 N 
HETATM   15  H   UNL     1     -42.749  54.014 -54.832  1.00  0.00     0.162 HD
HETATM   16  O   UNL     1     -40.937  56.521 -54.121  1.00  0.00    -0.268 OA
BRANCH  14  17
HETATM   17  C   UNL     1     -40.634  53.843 -55.038  1.00  0.00     0.161 C 
BRANCH  17  18
HETATM   18  C   UNL     1     -40.285  52.756 -54.058  1.00  0.00    -0.040 A 
HETATM   19  C   UNL     1     -40.117  51.435 -54.497  1.00  0.00     0.011 A 
HETATM   20  C   UNL     1     -39.765  50.422 -53.599  1.00  0.00     0.037 A 
HETATM   21  C   UNL     1     -39.584  50.715 -52.248  1.00  0.00     0.068 A 
HETATM   22  C   UNL     1     -39.790  52.021 -51.800  1.00  0.00     0.037 A 
HETATM   23  C   UNL     1     -40.137  53.036 -52.694  1.00  0.00     0.011 A 
BRANCH  21  24
HETATM   24  O   UNL     1     -39.223  49.823 -51.276  1.00  0.00    -0.356 OA
HETATM   25  C   UNL     1     -39.993  49.843 -50.080  1.00  0.00     0.210 C 
ENDBRANCH  21  24
ENDBRANCH  17  18
ENDBRANCH  14  17
ENDBRANCH   1  13
BRANCH   1  26
HETATM   26  O   UNL     1     -44.333  55.209 -54.185  1.00  0.00    -0.359 OA
HETATM   27  H   UNL     1     -44.674  55.409 -55.074  1.00  0.00     0.213 HD
ENDBRANCH   1  26
BRANCH   2  28
HETATM   28  C   UNL     1     -42.823  56.061 -51.456  1.00  0.00     0.120 A 
HETATM   29  C   UNL     1     -43.044  54.757 -50.999  1.00  0.00     0.146 A 
HETATM   30  F   UNL     1     -44.062  54.033 -51.488  1.00  0.00    -0.204 F 
HETATM   31  C   UNL     1     -42.266  54.189 -49.987  1.00  0.00     0.045 A 
HETATM   32  C   UNL     1     -41.237  54.927 -49.404  1.00  0.00     0.006 A 
HETATM   33  C   UNL     1     -40.996  56.228 -49.838  1.00  0.00     0.045 A 
HETATM   34  C   UNL     1     -41.781  56.781 -50.851  1.00  0.00     0.146 A 
HETATM   35  F   UNL     1     -41.458  58.009 -51.288  1.00  0.00    -0.204 F 
ENDBRANCH   2  28
TORSDOF 6
ENDMDL
MODEL 2
REMARK VINA RESULT:      -8.8      2.661      3.772
REMARK  6 active torsions:
REMARK  status: ('A' for Active; 'I' for Inactive)
REMARK    1  A    between atoms: O_2  and  C_3 
REMARK    2  A    between atoms: C_6  and  C_7 
REMARK    3  A    between atoms: C_7  and  N_8 
REMARK       I    between atoms: N_8  and  C_9 
REMARK    4  A    between atoms: C_9  and  C_10 
REMARK    5  A    between atoms: C_10  and  O_11 
REMARK    6  A    between atoms: N_12  and  C_13 
ROOT
HETATM    1  C   UNL     1     -43.403  56.998 -55.822  1.00  0.00     0.256 C 
HETATM    2  N   UNL     1     -42.611  57.995 -55.092  1.00  0.00    -0.248 N 
HETATM    3  C   UNL     1     -42.148  59.126 -55.746  1.00  0.00     0.330 C 
HETATM    4  O   UNL     1     -41.818  60.171 -55.185  1.00  0.00    -0.246 OA
HETATM    5  N   UNL     1     -42.050  59.065 -57.104  1.00  0.00    -0.308 N 
HETATM    6  C   UNL     1     -42.322  57.938 -57.868  1.00  0.00     0.048 A 
HETATM    7  C   UNL     1     -42.950  56.850 -57.268  1.00  0.00     0.034 A 
HETATM    8  C   UNL     1     -41.960  57.924 -59.217  1.00  0.00     0.030 A 
HETATM    9  C   UNL     1     -42.205  56.788 -59.984  1.00  0.00     0.002 A 
HETATM   10  C   UNL     1     -42.827  55.685 -59.407  1.00  0.00     0.001 A 
HETATM   11  C   UNL     1     -43.210  55.717 -58.062  1.00  0.00     0.015 A 
HETATM   12  H   UNL     1     -41.639  59.883 -57.530  1.00  0.00     0.170 HD
ENDROOT
BRANCH   1  13
HETATM   13  C   UNL     1     -43.397  55.568 -55.117  1.00  0.00     0.279 C 
HETATM   14  N   UNL     1     -42.122  55.039 -54.972  1.00  0.00    -0.352 N 
HETATM   15  H   UNL     1     -41.343  55.635 -55.239  1.00  0.00     0.162 HD
HETATM   16  O   UNL     1     -44.406  54.981 -54.731  1.00  0.00    -0.268 OA
BRANCH  14  17
HETATM   17  C   UNL     1     -41.860  53.761 -54.364  1.00  0.00     0.161 C 
BRANCH  17  18
HETATM   18  C   UNL     1     -41.731  53.882 -52.870  1.00  0.00    -0.040 A 
HETATM   19  C   UNL     1     -40.475  53.771 -52.256  1.00  0.00     0.011 A 
HETATM   20  C   UNL     1     -40.342  53.909 -50.871  1.00  0.00     0.037 A 
HETATM   21  C   UNL     1     -41.463  54.154 -50.079  1.00  0.00     0.068 A 
HETATM   22  C   UNL     1     -42.720  54.225 -50.681  1.00  0.00     0.037 A 
HETATM   23  C   UNL     1     -42.858  54.091 -52.065  1.00  0.00     0.011 A 
BRANCH  21  24
HETATM   24  O   UNL     1     -41.463  54.327 -48.722  1.00  0.00    -0.356 OA
HETATM   25  C   UNL     1     -40.277  53.948 -48.035  1.00  0.00     0.210 C 
ENDBRANCH  21  24
ENDBRANCH  17  18
ENDBRANCH  14  17
ENDBRANCH   1  13
BRANCH   1  26
HETATM   26  O   UNL     1     -44.749  57.491 -55.891  1.00  0.00    -0.359 OA
HETATM   27  H   UNL     1     -44.703  58.216 -56.538  1.00  0.00     0.213 HD
ENDBRANCH   1  26
BRANCH   2  28
HETATM   28  C   UNL     1     -42.445  57.932 -53.666  1.00  0.00     0.120 A 
HETATM   29  C   UNL     1     -43.485  58.199 -52.769  1.00  0.00     0.146 A 
HETATM   30  F   UNL     1     -44.681  58.605 -53.223  1.00  0.00    -0.204 F 
HETATM   31  C   UNL     1     -43.305  58.117 -51.387  1.00  0.00     0.045 A 
HETATM   32  C   UNL     1     -42.062  57.762 -50.868  1.00  0.00     0.006 A 
HETATM   33  C   UNL     1     -41.008  57.493 -51.736  1.00  0.00     0.045 A 
HETATM   34  C   UNL     1     -41.204  57.577 -53.116  1.00  0.00     0.146 A 
HETATM   35  F   UNL     1     -40.179  57.231 -53.912  1.00  0.00    -0.204 F 
ENDBRANCH   2  28
TORSDOF 6
ENDMDL
MODEL 3
REMARK VINA RESULT:      -8.7      2.474      6.846
REMARK  6 active torsions:
REMARK  status: ('A' for Active; 'I' for Inactive)
REMARK    1  A    between atoms: O_2  and  C_3 
REMARK    2  A    between atoms: C_6  and  C_7 
REMARK    3  A    between atoms: C_7  and  N_8 
REMARK       I    between atoms: N_8  and  C_9 
REMARK    4  A    between atoms: C_9  and  C_10 
REMARK    5  A    between atoms: C_10  and  O_11 
REMARK    6  A    between atoms: N_12  and  C_13 
ROOT
HETATM    1  C   UNL     1     -41.249  54.473 -53.498  1.00  0.00     0.256 C 
HETATM    2  N   UNL     1     -41.459  55.062 -52.170  1.00  0.00    -0.248 N 
HETATM    3  C   UNL     1     -40.623  54.719 -51.120  1.00  0.00     0.330 C 
HETATM    4  O   UNL     1     -40.461  55.398 -50.105  1.00  0.00    -0.246 OA
HETATM    5  N   UNL     1     -39.941  53.545 -51.224  1.00  0.00    -0.308 N 
HETATM    6  C   UNL     1     -40.069  52.644 -52.273  1.00  0.00     0.048 A 
HETATM    7  C   UNL     1     -40.760  53.033 -53.418  1.00  0.00     0.034 A 
HETATM    8  C   UNL     1     -39.503  51.372 -52.155  1.00  0.00     0.030 A 
HETATM    9  C   UNL     1     -39.649  50.454 -53.192  1.00  0.00     0.002 A 
HETATM   10  C   UNL     1     -40.340  50.817 -54.344  1.00  0.00     0.001 A 
HETATM   11  C   UNL     1     -40.881  52.101 -54.465  1.00  0.00     0.015 A 
HETATM   12  H   UNL     1     -39.403  53.300 -50.405  1.00  0.00     0.170 HD
ENDROOT
BRANCH   1  13
HETATM   13  C   UNL     1     -42.551  54.538 -54.415  1.00  0.00     0.279 C 
HETATM   14  N   UNL     1     -42.291  55.007 -55.695  1.00  0.00    -0.352 N 
HETATM   15  H   UNL     1     -41.317  55.169 -55.938  1.00  0.00     0.162 HD
HETATM   16  O   UNL     1     -43.677  54.210 -54.047  1.00  0.00    -0.268 OA
BRANCH  14  17
HETATM   17  C   UNL     1     -43.305  55.154 -56.706  1.00  0.00     0.161 C 
BRANCH  17  18
HETATM   18  C   UNL     1     -42.885  56.135 -57.766  1.00  0.00    -0.040 A 
HETATM   19  C   UNL     1     -42.412  57.405 -57.407  1.00  0.00     0.011 A 
HETATM   20  C   UNL     1     -41.993  58.314 -58.385  1.00  0.00     0.037 A 
HETATM   21  C   UNL     1     -42.048  57.968 -59.734  1.00  0.00     0.068 A 
HETATM   22  C   UNL     1     -42.556  56.720 -60.097  1.00  0.00     0.037 A 
HETATM   23  C   UNL     1     -42.972  55.807 -59.125  1.00  0.00     0.011 A 
BRANCH  21  24
HETATM   24  O   UNL     1     -41.652  58.756 -60.780  1.00  0.00    -0.356 OA
HETATM   25  C   UNL     1     -41.960  60.141 -60.682  1.00  0.00     0.210 C 
ENDBRANCH  21  24
ENDBRANCH  17  18
ENDBRANCH  14  17
ENDBRANCH   1  13
BRANCH   1  26
HETATM   26  O   UNL     1     -40.186  55.204 -54.126  1.00  0.00    -0.359 OA
HETATM   27  H   UNL     1     -40.578  55.525 -54.956  1.00  0.00     0.213 HD
ENDBRANCH   1  26
BRANCH   2  28
HETATM   28  C   UNL     1     -42.398  56.129 -51.957  1.00  0.00     0.120 A 
HETATM   29  C   UNL     1     -43.619  55.944 -51.301  1.00  0.00     0.146 A 
HETATM   30  F   UNL     1     -43.995  54.718 -50.905  1.00  0.00    -0.204 F 
HETATM   31  C   UNL     1     -44.511  56.999 -51.092  1.00  0.00     0.045 A 
HETATM   32  C   UNL     1     -44.192  58.278 -51.543  1.00  0.00     0.006 A 
HETATM   33  C   UNL     1     -42.984  58.492 -52.202  1.00  0.00     0.045 A 
HETATM   34  C   UNL     1     -42.103  57.427 -52.402  1.00  0.00     0.146 A 
HETATM   35  F   UNL     1     -40.917  57.701 -52.970  1.00  0.00    -0.204 F 
ENDBRANCH   2  28
TORSDOF 6
ENDMDL
MODEL 4
REMARK VINA RESULT:      -8.7      2.477      3.664
REMARK  6 active torsions:
REMARK  status: ('A' for Active; 'I' for Inactive)
REMARK    1  A    between atoms: O_2  and  C_3 
REMARK    2  A    between atoms: C_6  and  C_7 
REMARK    3  A    between atoms: C_7  and  N_8 
REMARK       I    between atoms: N_8  and  C_9 
REMARK    4  A    between atoms: C_9  and  C_10 
REMARK    5  A    between atoms: C_10  and  O_11 
REMARK    6  A    between atoms: N_12  and  C_13 
ROOT
HETATM    1  C   UNL     1     -43.377  56.902 -55.865  1.00  0.00     0.256 C 
HETATM    2  N   UNL     1     -42.565  57.845 -55.086  1.00  0.00    -0.248 N 
HETATM    3  C   UNL     1     -42.092  59.005 -55.677  1.00  0.00     0.330 C 
HETATM    4  O   UNL     1     -41.743  60.011 -55.060  1.00  0.00    -0.246 OA
HETATM    5  N   UNL     1     -42.008  59.023 -57.037  1.00  0.00    -0.308 N 
HETATM    6  C   UNL     1     -42.302  57.946 -57.864  1.00  0.00     0.048 A 
HETATM    7  C   UNL     1     -42.940  56.833 -57.322  1.00  0.00     0.034 A 
HETATM    8  C   UNL     1     -41.953  58.006 -59.215  1.00  0.00     0.030 A 
HETATM    9  C   UNL     1     -42.221  56.920 -60.044  1.00  0.00     0.002 A 
HETATM   10  C   UNL     1     -42.852  55.793 -59.526  1.00  0.00     0.001 A 
HETATM   11  C   UNL     1     -43.223  55.753 -58.178  1.00  0.00     0.015 A 
HETATM   12  H   UNL     1     -41.589  59.859 -57.419  1.00  0.00     0.170 HD
ENDROOT
BRANCH   1  13
HETATM   13  C   UNL     1     -43.385  55.434 -55.245  1.00  0.00     0.279 C 
HETATM   14  N   UNL     1     -42.143  54.816 -55.298  1.00  0.00    -0.352 N 
HETATM   15  H   UNL     1     -41.363  55.375 -55.633  1.00  0.00     0.162 HD
HETATM   16  O   UNL     1     -44.375  54.890 -54.761  1.00  0.00    -0.268 OA
BRANCH  14  17
HETATM   17  C   UNL     1     -41.898  53.488 -54.799  1.00  0.00     0.161 C 
BRANCH  17  18
HETATM   18  C   UNL     1     -41.557  53.507 -53.334  1.00  0.00    -0.040 A 
HETATM   19  C   UNL     1     -42.544  53.799 -52.381  1.00  0.00     0.011 A 
HETATM   20  C   UNL     1     -42.242  53.793 -51.015  1.00  0.00     0.037 A 
HETATM   21  C   UNL     1     -40.949  53.502 -50.584  1.00  0.00     0.068 A 
HETATM   22  C   UNL     1     -39.954  53.252 -51.531  1.00  0.00     0.037 A 
HETATM   23  C   UNL     1     -40.252  53.253 -52.896  1.00  0.00     0.011 A 
BRANCH  21  24
HETATM   24  O   UNL     1     -40.532  53.446 -49.282  1.00  0.00    -0.356 OA
HETATM   25  C   UNL     1     -40.802  54.589 -48.480  1.00  0.00     0.210 C 
ENDBRANCH  21  24
ENDBRANCH  17  18
ENDBRANCH  14  17
ENDBRANCH   1  13
BRANCH   1  26
HETATM   26  O   UNL     1     -44.717  57.416 -55.892  1.00  0.00    -0.359 OA
HETATM   27  H   UNL     1     -45.270  56.643 -55.682  1.00  0.00     0.213 HD
ENDBRANCH   1  26
BRANCH   2  28
HETATM   28  C   UNL     1     -42.387  57.696 -53.668  1.00  0.00     0.120 A 
HETATM   29  C   UNL     1     -41.196  57.234 -53.097  1.00  0.00     0.146 A 
HETATM   30  F   UNL     1     -40.182  56.835 -53.881  1.00  0.00    -0.204 F 
HETATM   31  C   UNL     1     -41.041  57.111 -51.715  1.00  0.00     0.045 A 
HETATM   32  C   UNL     1     -42.090  57.452 -50.864  1.00  0.00     0.006 A 
HETATM   33  C   UNL     1     -43.288  57.913 -51.404  1.00  0.00     0.045 A 
HETATM   34  C   UNL     1     -43.428  58.032 -52.788  1.00  0.00     0.146 A 
HETATM   35  F   UNL     1     -44.573  58.556 -53.254  1.00  0.00    -0.204 F 
ENDBRANCH   2  28
TORSDOF 6
ENDMDL
MODEL 5
REMARK VINA RESULT:      -8.3      2.939      6.394
REMARK  6 active torsions:
REMARK  status: ('A' for Active; 'I' for Inactive)
REMARK    1  A    between atoms: O_2  and  C_3 
REMARK    2  A    between atoms: C_6  and  C_7 
REMARK    3  A    between atoms: C_7  and  N_8 
REMARK       I    between atoms: N_8  and  C_9 
REMARK    4  A    between atoms: C_9  and  C_10 
REMARK    5  A    between atoms: C_10  and  O_11 
REMARK    6  A    between atoms: N_12  and  C_13 
ROOT
HETATM    1  C   UNL     1     -41.846  57.506 -52.906  1.00  0.00     0.256 C 
HETATM    2  N   UNL     1     -43.171  57.637 -52.289  1.00  0.00    -0.248 N 
HETATM    3  C   UNL     1     -43.697  56.591 -51.547  1.00  0.00     0.330 C 
HETATM    4  O   UNL     1     -44.585  56.711 -50.703  1.00  0.00    -0.246 OA
HETATM    5  N   UNL     1     -43.192  55.347 -51.779  1.00  0.00    -0.308 N 
HETATM    6  C   UNL     1     -42.239  55.045 -52.742  1.00  0.00     0.048 A 
HETATM    7  C   UNL     1     -41.569  56.086 -53.380  1.00  0.00     0.034 A 
HETATM    8  C   UNL     1     -41.975  53.708 -53.048  1.00  0.00     0.030 A 
HETATM    9  C   UNL     1     -41.039  53.397 -54.032  1.00  0.00     0.002 A 
HETATM   10  C   UNL     1     -40.360  54.420 -54.687  1.00  0.00     0.001 A 
HETATM   11  C   UNL     1     -40.611  55.755 -54.357  1.00  0.00     0.015 A 
HETATM   12  H   UNL     1     -43.655  54.607 -51.271  1.00  0.00     0.170 HD
ENDROOT
BRANCH   1  13
HETATM   13  C   UNL     1     -41.625  58.521 -54.115  1.00  0.00     0.279 C 
HETATM   14  N   UNL     1     -42.302  58.147 -55.268  1.00  0.00    -0.352 N 
HETATM   15  H   UNL     1     -42.921  57.344 -55.200  1.00  0.00     0.162 HD
HETATM   16  O   UNL     1     -40.933  59.535 -54.053  1.00  0.00    -0.268 OA
BRANCH  14  17
HETATM   17  C   UNL     1     -42.259  58.905 -56.491  1.00  0.00     0.161 C 
BRANCH  17  18
HETATM   18  C   UNL     1     -42.656  58.061 -57.672  1.00  0.00    -0.040 A 
HETATM   19  C   UNL     1     -42.829  56.678 -57.527  1.00  0.00     0.011 A 
HETATM   20  C   UNL     1     -43.224  55.889 -58.613  1.00  0.00     0.037 A 
HETATM   21  C   UNL     1     -43.444  56.473 -59.860  1.00  0.00     0.068 A 
HETATM   22  C   UNL     1     -43.232  57.843 -60.018  1.00  0.00     0.037 A 
HETATM   23  C   UNL     1     -42.842  58.635 -58.936  1.00  0.00     0.011 A 
BRANCH  21  24
HETATM   24  O   UNL     1     -43.849  55.818 -60.991  1.00  0.00    -0.356 OA
HETATM   25  C   UNL     1     -45.057  55.072 -60.893  1.00  0.00     0.210 C 
ENDBRANCH  21  24
ENDBRANCH  17  18
ENDBRANCH  14  17
ENDBRANCH   1  13
BRANCH   1  26
HETATM   26  O   UNL     1     -40.873  57.765 -51.883  1.00  0.00    -0.359 OA
HETATM   27  H   UNL     1     -40.841  56.936 -51.373  1.00  0.00     0.213 HD
ENDBRANCH   1  26
BRANCH   2  28
HETATM   28  C   UNL     1     -43.879  58.887 -52.277  1.00  0.00     0.120 A 
HETATM   29  C   UNL     1     -44.943  59.165 -53.142  1.00  0.00     0.146 A 
HETATM   30  F   UNL     1     -45.297  58.278 -54.084  1.00  0.00    -0.204 F 
HETATM   31  C   UNL     1     -45.626  60.383 -53.102  1.00  0.00     0.045 A 
HETATM   32  C   UNL     1     -45.251  61.360 -52.183  1.00  0.00     0.006 A 
HETATM   33  C   UNL     1     -44.195  61.113 -51.311  1.00  0.00     0.045 A 
HETATM   34  C   UNL     1     -43.523  59.890 -51.362  1.00  0.00     0.146 A 
HETATM   35  F   UNL     1     -42.564  59.669 -50.447  1.00  0.00    -0.204 F 
ENDBRANCH   2  28
TORSDOF 6
ENDMDL
MODEL 6
REMARK VINA RESULT:      -8.2      2.031      6.963
REMARK  6 active torsions:
REMARK  status: ('A' for Active; 'I' for Inactive)
REMARK    1  A    between atoms: O_2  and  C_3 
REMARK    2  A    between atoms: C_6  and  C_7 
REMARK    3  A    between atoms: C_7  and  N_8 
REMARK       I    between atoms: N_8  and  C_9 
REMARK    4  A    between atoms: C_9  and  C_10 
REMARK    5  A    between atoms: C_10  and  O_11 
REMARK    6  A    between atoms: N_12  and  C_13 
ROOT
HETATM    1  C   UNL     1     -41.130  54.663 -53.401  1.00  0.00     0.256 C 
HETATM    2  N   UNL     1     -41.390  55.198 -52.060  1.00  0.00    -0.248 N 
HETATM    3  C   UNL     1     -40.618  54.783 -50.986  1.00  0.00     0.330 C 
HETATM    4  O   UNL     1     -40.489  55.410 -49.935  1.00  0.00    -0.246 OA
HETATM    5  N   UNL     1     -39.965  53.594 -51.111  1.00  0.00    -0.308 N 
HETATM    6  C   UNL     1     -40.065  52.745 -52.206  1.00  0.00     0.048 A 
HETATM    7  C   UNL     1     -40.687  53.207 -53.364  1.00  0.00     0.034 A 
HETATM    8  C   UNL     1     -39.542  51.453 -52.120  1.00  0.00     0.030 A 
HETATM    9  C   UNL     1     -39.662  50.587 -53.204  1.00  0.00     0.002 A 
HETATM   10  C   UNL     1     -40.284  51.023 -54.370  1.00  0.00     0.001 A 
HETATM   11  C   UNL     1     -40.781  52.327 -54.458  1.00  0.00     0.015 A 
HETATM   12  H   UNL     1     -39.477  53.296 -50.278  1.00  0.00     0.170 HD
ENDROOT
BRANCH   1  13
HETATM   13  C   UNL     1     -42.382  54.809 -54.377  1.00  0.00     0.279 C 
HETATM   14  N   UNL     1     -42.161  55.707 -55.412  1.00  0.00    -0.352 N 
HETATM   15  H   UNL     1     -41.226  56.098 -55.493  1.00  0.00     0.162 HD
HETATM   16  O   UNL     1     -43.440  54.197 -54.246  1.00  0.00    -0.268 OA
BRANCH  14  17
HETATM   17  C   UNL     1     -43.142  56.008 -56.422  1.00  0.00     0.161 C 
BRANCH  17  18
HETATM   18  C   UNL     1     -43.795  57.340 -56.173  1.00  0.00    -0.040 A 
HETATM   19  C   UNL     1     -43.537  58.424 -57.023  1.00  0.00     0.011 A 
HETATM   20  C   UNL     1     -44.160  59.659 -56.816  1.00  0.00     0.037 A 
HETATM   21  C   UNL     1     -45.044  59.828 -55.752  1.00  0.00     0.068 A 
HETATM   22  C   UNL     1     -45.273  58.763 -54.879  1.00  0.00     0.037 A 
HETATM   23  C   UNL     1     -44.655  57.527 -55.085  1.00  0.00     0.011 A 
BRANCH  21  24
HETATM   24  O   UNL     1     -45.730  60.974 -55.453  1.00  0.00    -0.356 OA
HETATM   25  C   UNL     1     -45.788  61.337 -54.079  1.00  0.00     0.210 C 
ENDBRANCH  21  24
ENDBRANCH  17  18
ENDBRANCH  14  17
ENDBRANCH   1  13
BRANCH   1  26
HETATM   26  O   UNL     1     -40.016  55.388 -53.941  1.00  0.00    -0.359 OA
HETATM   27  H   UNL     1     -40.393  55.870 -54.698  1.00  0.00     0.213 HD
ENDBRANCH   1  26
BRANCH   2  28
HETATM   28  C   UNL     1     -42.308  56.283 -51.843  1.00  0.00     0.120 A 
HETATM   29  C   UNL     1     -42.008  57.608 -52.175  1.00  0.00     0.146 A 
HETATM   30  F   UNL     1     -40.793  57.928 -52.648  1.00  0.00    -0.204 F 
HETATM   31  C   UNL     1     -42.921  58.644 -51.969  1.00  0.00     0.045 A 
HETATM   32  C   UNL     1     -44.172  58.369 -51.419  1.00  0.00     0.006 A 
HETATM   33  C   UNL     1     -44.498  57.060 -51.078  1.00  0.00     0.045 A 
HETATM   34  C   UNL     1     -43.574  56.034 -51.290  1.00  0.00     0.146 A 
HETATM   35  F   UNL     1     -43.965  54.779 -51.019  1.00  0.00    -0.204 F 
ENDBRANCH   2  28
TORSDOF 6
ENDMDL
MODEL 7
REMARK VINA RESULT:      -8.1      2.787      7.645
REMARK  6 active torsions:
REMARK  status: ('A' for Active; 'I' for Inactive)
REMARK    1  A    between atoms: O_2  and  C_3 
REMARK    2  A    between atoms: C_6  and  C_7 
REMARK    3  A    between atoms: C_7  and  N_8 
REMARK       I    between atoms: N_8  and  C_9 
REMARK    4  A    between atoms: C_9  and  C_10 
REMARK    5  A    between atoms: C_10  and  O_11 
REMARK    6  A    between atoms: N_12  and  C_13 
ROOT
HETATM    1  C   UNL     1     -43.187  56.065 -53.987  1.00  0.00     0.256 C 
HETATM    2  N   UNL     1     -42.943  57.029 -55.067  1.00  0.00    -0.248 N 
HETATM    3  C   UNL     1     -42.389  56.605 -56.263  1.00  0.00     0.330 C 
HETATM    4  O   UNL     1     -42.485  57.210 -57.331  1.00  0.00    -0.246 OA
HETATM    5  N   UNL     1     -41.688  55.437 -56.246  1.00  0.00    -0.308 N 
HETATM    6  C   UNL     1     -41.438  54.678 -55.110  1.00  0.00     0.048 A 
HETATM    7  C   UNL     1     -42.120  54.980 -53.933  1.00  0.00     0.034 A 
HETATM    8  C   UNL     1     -40.512  53.634 -55.173  1.00  0.00     0.030 A 
HETATM    9  C   UNL     1     -40.237  52.887 -54.032  1.00  0.00     0.002 A 
HETATM   10  C   UNL     1     -40.901  53.172 -52.842  1.00  0.00     0.001 A 
HETATM   11  C   UNL     1     -41.846  54.201 -52.793  1.00  0.00     0.015 A 
HETATM   12  H   UNL     1     -41.240  55.205 -57.122  1.00  0.00     0.170 HD
ENDROOT
BRANCH   1  13
HETATM   13  C   UNL     1     -43.310  56.758 -52.557  1.00  0.00     0.279 C 
HETATM   14  N   UNL     1     -44.621  57.047 -52.204  1.00  0.00    -0.352 N 
HETATM   15  H   UNL     1     -45.350  56.718 -52.831  1.00  0.00     0.162 HD
HETATM   16  O   UNL     1     -42.355  57.014 -51.825  1.00  0.00    -0.268 OA
BRANCH  14  17
HETATM   17  C   UNL     1     -44.986  57.672 -50.960  1.00  0.00     0.161 C 
BRANCH  17  18
HETATM   18  C   UNL     1     -45.083  59.166 -51.105  1.00  0.00    -0.040 A 
HETATM   19  C   UNL     1     -46.296  59.764 -51.475  1.00  0.00     0.011 A 
HETATM   20  C   UNL     1     -46.403  61.154 -51.586  1.00  0.00     0.037 A 
HETATM   21  C   UNL     1     -45.297  61.965 -51.334  1.00  0.00     0.068 A 
HETATM   22  C   UNL     1     -44.077  61.372 -51.005  1.00  0.00     0.037 A 
HETATM   23  C   UNL     1     -43.967  59.984 -50.890  1.00  0.00     0.011 A 
BRANCH  21  24
HETATM   24  O   UNL     1     -45.277  63.332 -51.389  1.00  0.00    -0.356 OA
HETATM   25  C   UNL     1     -44.334  63.916 -52.280  1.00  0.00     0.210 C 
ENDBRANCH  21  24
ENDBRANCH  17  18
ENDBRANCH  14  17
ENDBRANCH   1  13
BRANCH   1  26
HETATM   26  O   UNL     1     -44.411  55.383 -54.294  1.00  0.00    -0.359 OA
HETATM   27  H   UNL     1     -45.063  56.099 -54.389  1.00  0.00     0.213 HD
ENDBRANCH   1  26
BRANCH   2  28
HETATM   28  C   UNL     1     -43.426  58.381 -54.996  1.00  0.00     0.120 A 
HETATM   29  C   UNL     1     -44.760  58.724 -55.244  1.00  0.00     0.146 A 
HETATM   30  F   UNL     1     -45.636  57.787 -55.640  1.00  0.00    -0.204 F 
HETATM   31  C   UNL     1     -45.210  60.043 -55.155  1.00  0.00     0.045 A 
HETATM   32  C   UNL     1     -44.321  61.059 -54.811  1.00  0.00     0.006 A 
HETATM   33  C   UNL     1     -42.988  60.748 -54.560  1.00  0.00     0.045 A 
HETATM   34  C   UNL     1     -42.553  59.424 -54.652  1.00  0.00     0.146 A 
HETATM   35  F   UNL     1     -41.277  59.165 -54.322  1.00  0.00    -0.204 F 
ENDBRANCH   2  28
TORSDOF 6
ENDMDL
MODEL 8
REMARK VINA RESULT:      -8.1      2.077      2.827
REMARK  6 active torsions:
REMARK  status: ('A' for Active; 'I' for Inactive)
REMARK    1  A    between atoms: O_2  and  C_3 
REMARK    2  A    between atoms: C_6  and  C_7 
REMARK    3  A    between atoms: C_7  and  N_8 
REMARK       I    between atoms: N_8  and  C_9 
REMARK    4  A    between atoms: C_9  and  C_10 
REMARK    5  A    between atoms: C_10  and  O_11 
REMARK    6  A    between atoms: N_12  and  C_13 
ROOT
HETATM    1  C   UNL     1     -43.259  56.456 -55.375  1.00  0.00     0.256 C 
HETATM    2  N   UNL     1     -43.284  57.702 -54.599  1.00  0.00    -0.248 N 
HETATM    3  C   UNL     1     -44.084  58.757 -55.008  1.00  0.00     0.330 C 
HETATM    4  O   UNL     1     -44.469  59.667 -54.274  1.00  0.00    -0.246 OA
HETATM    5  N   UNL     1     -44.462  58.782 -56.317  1.00  0.00    -0.308 N 
HETATM    6  C   UNL     1     -44.055  57.865 -57.277  1.00  0.00     0.048 A 
HETATM    7  C   UNL     1     -43.399  56.706 -56.870  1.00  0.00     0.034 A 
HETATM    8  C   UNL     1     -44.312  58.127 -58.625  1.00  0.00     0.030 A 
HETATM    9  C   UNL     1     -43.883  57.226 -59.596  1.00  0.00     0.002 A 
HETATM   10  C   UNL     1     -43.221  56.062 -59.215  1.00  0.00     0.001 A 
HETATM   11  C   UNL     1     -42.992  55.795 -57.862  1.00  0.00     0.015 A 
HETATM   12  H   UNL     1     -44.981  59.606 -56.586  1.00  0.00     0.170 HD
ENDROOT
BRANCH   1  13
HETATM   13  C   UNL     1     -41.950  55.587 -55.104  1.00  0.00     0.279 C 
HETATM   14  N   UNL     1     -42.233  54.270 -54.769  1.00  0.00    -0.352 N 
HETATM   15  H   UNL     1     -43.206  53.980 -54.816  1.00  0.00     0.162 HD
HETATM   16  O   UNL     1     -40.802  56.019 -55.183  1.00  0.00    -0.268 OA
BRANCH  14  17
HETATM   17  C   UNL     1     -41.217  53.292 -54.481  1.00  0.00     0.161 C 
BRANCH  17  18
HETATM   18  C   UNL     1     -41.001  53.146 -52.999  1.00  0.00    -0.040 A 
HETATM   19  C   UNL     1     -40.033  52.257 -52.509  1.00  0.00     0.011 A 
HETATM   20  C   UNL     1     -39.806  52.135 -51.134  1.00  0.00     0.037 A 
HETATM   21  C   UNL     1     -40.548  52.894 -50.231  1.00  0.00     0.068 A 
HETATM   22  C   UNL     1     -41.540  53.750 -50.712  1.00  0.00     0.037 A 
HETATM   23  C   UNL     1     -41.768  53.878 -52.085  1.00  0.00     0.011 A 
BRANCH  21  24
HETATM   24  O   UNL     1     -40.410  52.881 -48.870  1.00  0.00    -0.356 OA
HETATM   25  C   UNL     1     -40.506  54.139 -48.211  1.00  0.00     0.210 C 
ENDBRANCH  21  24
ENDBRANCH  17  18
ENDBRANCH  14  17
ENDBRANCH   1  13
BRANCH   1  26
HETATM   26  O   UNL     1     -44.420  55.699 -55.002  1.00  0.00    -0.359 OA
HETATM   27  H   UNL     1     -44.835  56.232 -54.302  1.00  0.00     0.213 HD
ENDBRANCH   1  26
BRANCH   2  28
HETATM   28  C   UNL     1     -42.639  57.808 -53.319  1.00  0.00     0.120 A 
HETATM   29  C   UNL     1     -43.152  57.216 -52.160  1.00  0.00     0.146 A 
HETATM   30  F   UNL     1     -44.331  56.576 -52.193  1.00  0.00    -0.204 F 
HETATM   31  C   UNL     1     -42.500  57.321 -50.929  1.00  0.00     0.045 A 
HETATM   32  C   UNL     1     -41.306  58.031 -50.833  1.00  0.00     0.006 A 
HETATM   33  C   UNL     1     -40.773  58.633 -51.970  1.00  0.00     0.045 A 
HETATM   34  C   UNL     1     -41.435  58.519 -53.194  1.00  0.00     0.146 A 
HETATM   35  F   UNL     1     -40.840  59.048 -54.275  1.00  0.00    -0.204 F 
ENDBRANCH   2  28
TORSDOF 6
ENDMDL
MODEL 9
REMARK VINA RESULT:      -8.0      3.212      6.825
REMARK  6 active torsions:
REMARK  status: ('A' for Active; 'I' for Inactive)
REMARK    1  A    between atoms: O_2  and  C_3 
REMARK    2  A    between atoms: C_6  and  C_7 
REMARK    3  A    between atoms: C_7  and  N_8 
REMARK       I    between atoms: N_8  and  C_9 
REMARK    4  A    between atoms: C_9  and  C_10 
REMARK    5  A    between atoms: C_10  and  O_11 
REMARK    6  A    between atoms: N_12  and  C_13 
ROOT
HETATM    1  C   UNL     1     -44.266  57.318 -54.425  1.00  0.00     0.256 C 
HETATM    2  N   UNL     1     -43.415  56.567 -53.494  1.00  0.00    -0.248 N 
HETATM    3  C   UNL     1     -43.671  56.610 -52.133  1.00  0.00     0.330 C 
HETATM    4  O   UNL     1     -43.289  55.765 -51.323  1.00  0.00    -0.246 OA
HETATM    5  N   UNL     1     -44.392  57.669 -51.667  1.00  0.00    -0.308 N 
HETATM    6  C   UNL     1     -44.834  58.731 -52.445  1.00  0.00     0.048 A 
HETATM    7  C   UNL     1     -44.746  58.635 -53.832  1.00  0.00     0.034 A 
HETATM    8  C   UNL     1     -45.353  59.867 -51.820  1.00  0.00     0.030 A 
HETATM    9  C   UNL     1     -45.774  60.947 -52.592  1.00  0.00     0.002 A 
HETATM   10  C   UNL     1     -45.692  60.878 -53.979  1.00  0.00     0.001 A 
HETATM   11  C   UNL     1     -45.195  59.726 -54.598  1.00  0.00     0.015 A 
HETATM   12  H   UNL     1     -44.490  57.697 -50.662  1.00  0.00     0.170 HD
ENDROOT
BRANCH   1  13
HETATM   13  C   UNL     1     -43.555  57.596 -55.824  1.00  0.00     0.279 C 
HETATM   14  N   UNL     1     -43.987  56.745 -56.832  1.00  0.00    -0.352 N 
HETATM   15  H   UNL     1     -44.751  56.114 -56.606  1.00  0.00     0.162 HD
HETATM   16  O   UNL     1     -42.711  58.470 -56.012  1.00  0.00    -0.268 OA
BRANCH  14  17
HETATM   17  C   UNL     1     -43.492  56.802 -58.183  1.00  0.00     0.161 C 
BRANCH  17  18
HETATM   18  C   UNL     1     -44.600  56.603 -59.181  1.00  0.00    -0.040 A 
HETATM   19  C   UNL     1     -45.776  57.361 -59.095  1.00  0.00     0.011 A 
HETATM   20  C   UNL     1     -46.800  57.202 -60.034  1.00  0.00     0.037 A 
HETATM   21  C   UNL     1     -46.665  56.277 -61.069  1.00  0.00     0.068 A 
HETATM   22  C   UNL     1     -45.513  55.491 -61.134  1.00  0.00     0.037 A 
HETATM   23  C   UNL     1     -44.486  55.649 -60.200  1.00  0.00     0.011 A 
BRANCH  21  24
HETATM   24  O   UNL     1     -47.580  56.041 -62.057  1.00  0.00    -0.356 OA
HETATM   25  C   UNL     1     -48.606  57.013 -62.216  1.00  0.00     0.210 C 
ENDBRANCH  21  24
ENDBRANCH  17  18
ENDBRANCH  14  17
ENDBRANCH   1  13
BRANCH   1  26
HETATM   26  O   UNL     1     -45.452  56.539 -54.639  1.00  0.00    -0.359 OA
HETATM   27  H   UNL     1     -45.118  55.682 -54.955  1.00  0.00     0.213 HD
ENDBRANCH   1  26
BRANCH   2  28
HETATM   28  C   UNL     1     -42.423  55.637 -53.959  1.00  0.00     0.120 A 
HETATM   29  C   UNL     1     -41.070  55.970 -54.082  1.00  0.00     0.146 A 
HETATM   30  F   UNL     1     -40.657  57.222 -53.835  1.00  0.00    -0.204 F 
HETATM   31  C   UNL     1     -40.121  55.045 -54.523  1.00  0.00     0.045 A 
HETATM   32  C   UNL     1     -40.514  53.750 -54.854  1.00  0.00     0.006 A 
HETATM   33  C   UNL     1     -41.855  53.391 -54.743  1.00  0.00     0.045 A 
HETATM   34  C   UNL     1     -42.792  54.326 -54.300  1.00  0.00     0.146 A 
HETATM   35  F   UNL     1     -44.057  53.908 -54.134  1.00  0.00    -0.204 F 
ENDBRANCH   2  28
TORSDOF 6
ENDMDL
MODEL 10
REMARK VINA RESULT:      -7.9      2.154      3.028
REMARK  6 active torsions:
REMARK  status: ('A' for Active; 'I' for Inactive)
REMARK    1  A    between atoms: O_2  and  C_3 
REMARK    2  A    between atoms: C_6  and  C_7 
REMARK    3  A    between atoms: C_7  and  N_8 
REMARK       I    between atoms: N_8  and  C_9 
REMARK    4  A    between atoms: C_9  and  C_10 
REMARK    5  A    between atoms: C_10  and  O_11 
REMARK    6  A    between atoms: N_12  and  C_13 
ROOT
HETATM    1  C   UNL     1     -44.223  57.668 -55.540  1.00  0.00     0.256 C 
HETATM    2  N   UNL     1     -43.839  58.653 -54.521  1.00  0.00    -0.248 N 
HETATM    3  C   UNL     1     -44.352  59.939 -54.573  1.00  0.00     0.330 C 
HETATM    4  O   UNL     1     -44.409  60.708 -53.613  1.00  0.00    -0.246 OA
HETATM    5  N   UNL     1     -44.820  60.376 -55.776  1.00  0.00    -0.308 N 
HETATM    6  C   UNL     1     -44.764  59.651 -56.959  1.00  0.00     0.048 A 
HETATM    7  C   UNL     1     -44.418  58.303 -56.910  1.00  0.00     0.034 A 
HETATM    8  C   UNL     1     -45.055  60.290 -58.167  1.00  0.00     0.030 A 
HETATM    9  C   UNL     1     -44.975  59.576 -59.360  1.00  0.00     0.002 A 
HETATM   10  C   UNL     1     -44.627  58.229 -59.338  1.00  0.00     0.001 A 
HETATM   11  C   UNL     1     -44.363  57.591 -58.122  1.00  0.00     0.015 A 
HETATM   12  H   UNL     1     -45.115  61.342 -55.783  1.00  0.00     0.170 HD
ENDROOT
BRANCH   1  13
HETATM   13  C   UNL     1     -43.184  56.465 -55.657  1.00  0.00     0.279 C 
HETATM   14  N   UNL     1     -43.700  55.256 -55.209  1.00  0.00    -0.352 N 
HETATM   15  H   UNL     1     -44.681  55.243 -54.946  1.00  0.00     0.162 HD
HETATM   16  O   UNL     1     -42.042  56.574 -56.099  1.00  0.00    -0.268 OA
BRANCH  14  17
HETATM   17  C   UNL     1     -42.952  54.026 -55.217  1.00  0.00     0.161 C 
BRANCH  17  18
HETATM   18  C   UNL     1     -42.209  53.828 -53.924  1.00  0.00    -0.040 A 
HETATM   19  C   UNL     1     -42.851  54.052 -52.697  1.00  0.00     0.011 A 
HETATM   20  C   UNL     1     -42.176  53.844 -51.489  1.00  0.00     0.037 A 
HETATM   21  C   UNL     1     -40.850  53.417 -51.492  1.00  0.00     0.068 A 
HETATM   22  C   UNL     1     -40.195  53.233 -52.711  1.00  0.00     0.037 A 
HETATM   23  C   UNL     1     -40.865  53.435 -53.919  1.00  0.00     0.011 A 
BRANCH  21  24
HETATM   24  O   UNL     1     -40.088  53.161 -50.384  1.00  0.00    -0.356 OA
HETATM   25  C   UNL     1     -40.034  54.188 -49.401  1.00  0.00     0.210 C 
ENDBRANCH  21  24
ENDBRANCH  17  18
ENDBRANCH  14  17
ENDBRANCH   1  13
BRANCH   1  26
HETATM   26  O   UNL     1     -45.510  57.152 -55.170  1.00  0.00    -0.359 OA
HETATM   27  H   UNL     1     -45.305  56.401 -54.586  1.00  0.00     0.213 HD
ENDBRANCH   1  26
BRANCH   2  28
HETATM   28  C   UNL     1     -43.082  58.281 -53.358  1.00  0.00     0.120 A 
HETATM   29  C   UNL     1     -43.655  57.644 -52.252  1.00  0.00     0.146 A 
HETATM   30  F   UNL     1     -44.977  57.421 -52.211  1.00  0.00    -0.204 F 
HETATM   31  C   UNL     1     -42.896  57.278 -51.138  1.00  0.00     0.045 A 
HETATM   32  C   UNL     1     -41.530  57.548 -51.108  1.00  0.00     0.006 A 
HETATM   33  C   UNL     1     -40.933  58.183 -52.194  1.00  0.00     0.045 A 
HETATM   34  C   UNL     1     -41.704  58.541 -53.301  1.00  0.00     0.146 A 
HETATM   35  F   UNL     1     -41.067  59.078 -54.355  1.00  0.00    -0.204 F 
ENDBRANCH   2  28
TORSDOF 6
ENDMDL
