MODEL 1
REMARK VINA RESULT:      -8.8      0.000      0.000
REMARK  8 active torsions:
REMARK  status: ('A' for Active; 'I' for Inactive)
REMARK    1  A    between atoms: N_2  and  C_3 
REMARK    2  A    between atoms: C_4  and  C_5 
REMARK       I    between atoms: C_5  and  N_6 
REMARK    3  A    between atoms: N_6  and  C_7 
REMARK    4  A    between atoms: C_7  and  C_8 
REMARK    5  A    between atoms: N_13  and  C_15 
REMARK    6  A    between atoms: C_15  and  C_16 
REMARK    7  A    between atoms: C_16  and  C_17 
REMARK    8  A    between atoms: C_17  and  C_18 
ROOT
HETATM    1  C   UNL     1     -43.732  60.729 -51.087  1.00  0.00     0.140 C 
HETATM    2  O   UNL     1     -43.439  59.683 -52.033  1.00  0.00    -0.373 OA
HETATM    3  C   UNL     1     -42.232  59.000 -51.642  1.00  0.00     0.064 C 
HETATM    4  C   UNL     1     -41.289  59.069 -52.848  1.00  0.00     0.066 C 
HETATM    5  C   UNL     1     -41.859  58.308 -54.043  1.00  0.00     0.237 C 
HETATM    6  N   UNL     1     -42.179  56.871 -53.678  1.00  0.00    -0.071 N 
HETATM    7  H   UNL     1     -42.714  56.508 -54.476  1.00  0.00     0.279 HD
HETATM    8  C   UNL     1     -43.159  56.834 -52.515  1.00  0.00     0.237 C 
HETATM    9  C   UNL     1     -42.562  57.541 -51.312  1.00  0.00     0.066 C 
HETATM   10  C   UNL     1     -41.682  59.741 -50.420  1.00  0.00     0.041 C 
HETATM   11  C   UNL     1     -42.388  61.077 -50.473  1.00  0.00     0.036 C 
ENDROOT
BRANCH   1  12
HETATM   12  C   UNL     1     -44.765  60.249 -50.050  1.00  0.00     0.155 C 
BRANCH  12  13
HETATM   13  N   UNL     1     -44.648  60.966 -48.791  1.00  0.00    -0.354 N 
HETATM   14  C   UNL     1     -45.435  60.679 -47.689  1.00  0.00     0.253 C 
HETATM   15  O   UNL     1     -46.269  59.782 -47.662  1.00  0.00    -0.268 OA
HETATM   16  H   UNL     1     -44.053  61.785 -48.761  1.00  0.00     0.162 HD
BRANCH  14  17
HETATM   17  C   UNL     1     -45.158  61.541 -46.503  1.00  0.00     0.053 A 
HETATM   18  C   UNL     1     -45.476  62.919 -46.484  1.00  0.00     0.025 A 
HETATM   19  C   UNL     1     -45.157  63.636 -45.312  1.00  0.00     0.025 A 
HETATM   20  C   UNL     1     -44.566  63.016 -44.206  1.00  0.00     0.002 A 
HETATM   21  C   UNL     1     -44.281  61.657 -44.238  1.00  0.00     0.001 A 
HETATM   22  C   UNL     1     -44.579  60.920 -45.380  1.00  0.00     0.019 A 
BRANCH  18  23
HETATM   23  N   UNL     1     -46.028  63.574 -47.615  1.00  0.00    -0.291 NA
HETATM   24  C   UNL     1     -45.070  64.524 -48.182  1.00  0.00     0.116 C 
HETATM   25  C   UNL     1     -47.374  64.115 -47.406  1.00  0.00     0.116 C 
ENDBRANCH  18  23
ENDBRANCH  14  17
ENDBRANCH  12  13
ENDBRANCH   1  12
BRANCH   6  26
HETATM   26  C   UNL     1     -40.941  56.009 -53.557  1.00  0.00     0.235 C 
BRANCH  26  27
HETATM   27  C   UNL     1     -41.233  54.540 -53.274  1.00  0.00     0.032 C 
BRANCH  27  28
HETATM   28  C   UNL     1     -40.638  53.575 -54.301  1.00  0.00     0.040 C 
BRANCH  28  29
HETATM   29  C   UNL     1     -40.225  52.287 -53.639  1.00  0.00    -0.058 A 
HETATM   30  C   UNL     1     -40.177  51.096 -54.379  1.00  0.00     0.007 A 
HETATM   31  C   UNL     1     -39.837  49.894 -53.759  1.00  0.00     0.001 A 
HETATM   32  C   UNL     1     -39.547  49.868 -52.396  1.00  0.00     0.000 A 
HETATM   33  C   UNL     1     -39.594  51.045 -51.653  1.00  0.00     0.001 A 
HETATM   34  C   UNL     1     -39.933  52.250 -52.270  1.00  0.00     0.007 A 
ENDBRANCH  28  29
ENDBRANCH  27  28
ENDBRANCH  26  27
ENDBRANCH   6  26
TORSDOF 8
ENDMDL
MODEL 2
REMARK VINA RESULT:      -8.7      5.459      8.876
REMARK  8 active torsions:
REMARK  status: ('A' for Active; 'I' for Inactive)
REMARK    1  A    between atoms: N_2  and  C_3 
REMARK    2  A    between atoms: C_4  and  C_5 
REMARK       I    between atoms: C_5  and  N_6 
REMARK    3  A    between atoms: N_6  and  C_7 
REMARK    4  A    between atoms: C_7  and  C_8 
REMARK    5  A    between atoms: N_13  and  C_15 
REMARK    6  A    between atoms: C_15  and  C_16 
REMARK    7  A    between atoms: C_16  and  C_17 
REMARK    8  A    between atoms: C_17  and  C_18 
ROOT
HETATM    1  C   UNL     1     -43.364  58.850 -54.552  1.00  0.00     0.140 C 
HETATM    2  O   UNL     1     -42.677  58.037 -53.580  1.00  0.00    -0.373 OA
HETATM    3  C   UNL     1     -43.351  56.771 -53.445  1.00  0.00     0.064 C 
HETATM    4  C   UNL     1     -43.681  56.617 -51.956  1.00  0.00     0.066 C 
HETATM    5  C   UNL     1     -42.411  56.534 -51.112  1.00  0.00     0.237 C 
HETATM    6  N   UNL     1     -41.503  55.417 -51.592  1.00  0.00    -0.071 N 
HETATM    7  H   UNL     1     -40.618  55.562 -51.090  1.00  0.00     0.279 HD
HETATM    8  C   UNL     1     -41.148  55.627 -53.056  1.00  0.00     0.237 C 
HETATM    9  C   UNL     1     -42.412  55.649 -53.897  1.00  0.00     0.066 C 
HETATM   10  C   UNL     1     -44.603  56.842 -54.322  1.00  0.00     0.041 C 
HETATM   11  C   UNL     1     -44.788  58.325 -54.552  1.00  0.00     0.036 C 
ENDROOT
BRANCH   1  12
HETATM   12  C   UNL     1     -42.680  58.744 -55.928  1.00  0.00     0.155 C 
BRANCH  12  13
HETATM   13  N   UNL     1     -43.457  57.949 -56.864  1.00  0.00    -0.354 N 
HETATM   14  C   UNL     1     -43.018  57.654 -58.143  1.00  0.00     0.253 C 
HETATM   15  O   UNL     1     -41.931  58.003 -58.588  1.00  0.00    -0.268 OA
HETATM   16  H   UNL     1     -44.407  57.705 -56.611  1.00  0.00     0.162 HD
BRANCH  14  17
HETATM   17  C   UNL     1     -43.975  56.832 -58.940  1.00  0.00     0.053 A 
HETATM   18  C   UNL     1     -45.311  57.239 -59.164  1.00  0.00     0.025 A 
HETATM   19  C   UNL     1     -46.127  56.374 -59.923  1.00  0.00     0.025 A 
HETATM   20  C   UNL     1     -45.640  55.173 -60.449  1.00  0.00     0.002 A 
HETATM   21  C   UNL     1     -44.319  54.802 -60.235  1.00  0.00     0.001 A 
HETATM   22  C   UNL     1     -43.487  55.629 -59.487  1.00  0.00     0.019 A 
BRANCH  18  23
HETATM   23  N   UNL     1     -45.834  58.429 -58.596  1.00  0.00    -0.291 NA
HETATM   24  C   UNL     1     -46.981  58.131 -57.737  1.00  0.00     0.116 C 
HETATM   25  C   UNL     1     -46.056  59.513 -59.556  1.00  0.00     0.116 C 
ENDBRANCH  18  23
ENDBRANCH  14  17
ENDBRANCH  12  13
ENDBRANCH   1  12
BRANCH   6  26
HETATM   26  C   UNL     1     -42.007  54.046 -51.199  1.00  0.00     0.235 C 
BRANCH  26  27
HETATM   27  C   UNL     1     -41.012  53.229 -50.383  1.00  0.00     0.032 C 
BRANCH  27  28
HETATM   28  C   UNL     1     -39.655  53.035 -51.062  1.00  0.00     0.040 C 
BRANCH  28  29
HETATM   29  C   UNL     1     -39.727  51.933 -52.086  1.00  0.00    -0.058 A 
HETATM   30  C   UNL     1     -40.031  52.228 -53.423  1.00  0.00     0.007 A 
HETATM   31  C   UNL     1     -40.142  51.204 -54.364  1.00  0.00     0.001 A 
HETATM   32  C   UNL     1     -39.955  49.878 -53.978  1.00  0.00     0.000 A 
HETATM   33  C   UNL     1     -39.655  49.575 -52.652  1.00  0.00     0.001 A 
HETATM   34  C   UNL     1     -39.543  50.597 -51.708  1.00  0.00     0.007 A 
ENDBRANCH  28  29
ENDBRANCH  27  28
ENDBRANCH  26  27
ENDBRANCH   6  26
TORSDOF 8
ENDMDL
MODEL 3
REMARK VINA RESULT:      -8.6      3.618      5.296
REMARK  8 active torsions:
REMARK  status: ('A' for Active; 'I' for Inactive)
REMARK    1  A    between atoms: N_2  and  C_3 
REMARK    2  A    between atoms: C_4  and  C_5 
REMARK       I    between atoms: C_5  and  N_6 
REMARK    3  A    between atoms: N_6  and  C_7 
REMARK    4  A    between atoms: C_7  and  C_8 
REMARK    5  A    between atoms: N_13  and  C_15 
REMARK    6  A    between atoms: C_15  and  C_16 
REMARK    7  A    between atoms: C_16  and  C_17 
REMARK    8  A    between atoms: C_17  and  C_18 
ROOT
HETATM    1  C   UNL     1     -43.457  56.426 -55.016  1.00  0.00     0.140 C 
HETATM    2  O   UNL     1     -43.404  56.172 -53.598  1.00  0.00    -0.373 OA
HETATM    3  C   UNL     1     -42.236  55.388 -53.290  1.00  0.00     0.064 C 
HETATM    4  C   UNL     1     -42.737  54.146 -52.544  1.00  0.00     0.066 C 
HETATM    5  C   UNL     1     -43.382  54.520 -51.212  1.00  0.00     0.237 C 
HETATM    6  N   UNL     1     -42.434  55.333 -50.350  1.00  0.00    -0.071 N 
HETATM    7  H   UNL     1     -43.013  55.681 -49.577  1.00  0.00     0.279 HD
HETATM    8  C   UNL     1     -41.997  56.586 -51.094  1.00  0.00     0.237 C 
HETATM    9  C   UNL     1     -41.304  56.205 -52.389  1.00  0.00     0.066 C 
HETATM   10  C   UNL     1     -41.569  55.046 -54.624  1.00  0.00     0.041 C 
HETATM   11  C   UNL     1     -42.664  55.290 -55.638  1.00  0.00     0.036 C 
ENDROOT
BRANCH   1  12
HETATM   12  C   UNL     1     -42.877  57.816 -55.340  1.00  0.00     0.155 C 
BRANCH  12  13
HETATM   13  N   UNL     1     -43.110  58.768 -54.267  1.00  0.00    -0.354 N 
HETATM   14  C   UNL     1     -42.100  59.532 -53.710  1.00  0.00     0.253 C 
HETATM   15  O   UNL     1     -40.934  59.501 -54.087  1.00  0.00    -0.268 OA
HETATM   16  H   UNL     1     -44.024  58.783 -53.831  1.00  0.00     0.162 HD
BRANCH  14  17
HETATM   17  C   UNL     1     -42.555  60.438 -52.615  1.00  0.00     0.053 A 
HETATM   18  C   UNL     1     -43.505  61.463 -52.833  1.00  0.00     0.025 A 
HETATM   19  C   UNL     1     -43.851  62.265 -51.725  1.00  0.00     0.025 A 
HETATM   20  C   UNL     1     -43.296  62.052 -50.459  1.00  0.00     0.002 A 
HETATM   21  C   UNL     1     -42.380  61.027 -50.262  1.00  0.00     0.001 A 
HETATM   22  C   UNL     1     -42.013  60.219 -51.334  1.00  0.00     0.019 A 
BRANCH  18  23
HETATM   23  N   UNL     1     -44.040  61.724 -54.121  1.00  0.00    -0.291 NA
HETATM   24  C   UNL     1     -43.463  62.947 -54.682  1.00  0.00     0.116 C 
HETATM   25  C   UNL     1     -45.501  61.646 -54.199  1.00  0.00     0.116 C 
ENDBRANCH  18  23
ENDBRANCH  14  17
ENDBRANCH  12  13
ENDBRANCH   1  12
BRANCH   6  26
HETATM   26  C   UNL     1     -41.341  54.490 -49.730  1.00  0.00     0.235 C 
BRANCH  26  27
HETATM   27  C   UNL     1     -41.107  53.160 -50.437  1.00  0.00     0.032 C 
BRANCH  27  28
HETATM   28  C   UNL     1     -39.737  53.040 -51.108  1.00  0.00     0.040 C 
BRANCH  28  29
HETATM   29  C   UNL     1     -39.719  51.882 -52.071  1.00  0.00    -0.058 A 
HETATM   30  C   UNL     1     -39.926  52.099 -53.441  1.00  0.00     0.007 A 
HETATM   31  C   UNL     1     -39.954  51.023 -54.329  1.00  0.00     0.001 A 
HETATM   32  C   UNL     1     -39.778  49.724 -53.858  1.00  0.00     0.000 A 
HETATM   33  C   UNL     1     -39.574  49.499 -52.498  1.00  0.00     0.001 A 
HETATM   34  C   UNL     1     -39.546  50.572 -51.607  1.00  0.00     0.007 A 
ENDBRANCH  28  29
ENDBRANCH  27  28
ENDBRANCH  26  27
ENDBRANCH   6  26
TORSDOF 8
ENDMDL
MODEL 4
REMARK VINA RESULT:      -8.5      5.426      8.879
REMARK  8 active torsions:
REMARK  status: ('A' for Active; 'I' for Inactive)
REMARK    1  A    between atoms: N_2  and  C_3 
REMARK    2  A    between atoms: C_4  and  C_5 
REMARK       I    between atoms: C_5  and  N_6 
REMARK    3  A    between atoms: N_6  and  C_7 
REMARK    4  A    between atoms: C_7  and  C_8 
REMARK    5  A    between atoms: N_13  and  C_15 
REMARK    6  A    between atoms: C_15  and  C_16 
REMARK    7  A    between atoms: C_16  and  C_17 
REMARK    8  A    between atoms: C_17  and  C_18 
ROOT
HETATM    1  C   UNL     1     -44.015  57.044 -55.561  1.00  0.00     0.140 C 
HETATM    2  O   UNL     1     -43.863  56.565 -54.211  1.00  0.00    -0.373 OA
HETATM    3  C   UNL     1     -42.494  56.176 -53.987  1.00  0.00     0.064 C 
HETATM    4  C   UNL     1     -42.535  54.722 -53.502  1.00  0.00     0.066 C 
HETATM    5  C   UNL     1     -43.253  54.605 -52.159  1.00  0.00     0.237 C 
HETATM    6  N   UNL     1     -42.626  55.514 -51.118  1.00  0.00    -0.071 N 
HETATM    7  H   UNL     1     -43.280  55.498 -50.326  1.00  0.00     0.279 HD
HETATM    8  C   UNL     1     -42.649  56.955 -51.603  1.00  0.00     0.237 C 
HETATM    9  C   UNL     1     -41.883  57.075 -52.908  1.00  0.00     0.066 C 
HETATM   10  C   UNL     1     -41.766  56.331 -55.325  1.00  0.00     0.041 C 
HETATM   11  C   UNL     1     -42.891  56.376 -56.334  1.00  0.00     0.036 C 
ENDROOT
BRANCH   1  12
HETATM   12  C   UNL     1     -43.945  58.583 -55.602  1.00  0.00     0.155 C 
BRANCH  12  13
HETATM   13  N   UNL     1     -43.558  59.077 -56.912  1.00  0.00    -0.354 N 
HETATM   14  C   UNL     1     -42.343  59.695 -57.152  1.00  0.00     0.253 C 
HETATM   15  O   UNL     1     -41.476  59.849 -56.299  1.00  0.00    -0.268 OA
HETATM   16  H   UNL     1     -44.254  59.078 -57.648  1.00  0.00     0.162 HD
BRANCH  14  17
HETATM   17  C   UNL     1     -42.152  60.134 -58.565  1.00  0.00     0.053 A 
HETATM   18  C   UNL     1     -42.475  59.302 -59.662  1.00  0.00     0.025 A 
HETATM   19  C   UNL     1     -42.241  59.820 -60.953  1.00  0.00     0.025 A 
HETATM   20  C   UNL     1     -41.728  61.107 -61.149  1.00  0.00     0.002 A 
HETATM   21  C   UNL     1     -41.436  61.916 -60.058  1.00  0.00     0.001 A 
HETATM   22  C   UNL     1     -41.651  61.435 -58.770  1.00  0.00     0.019 A 
BRANCH  18  23
HETATM   23  N   UNL     1     -42.949  57.977 -59.480  1.00  0.00    -0.291 NA
HETATM   24  C   UNL     1     -41.948  57.005 -59.923  1.00  0.00     0.116 C 
HETATM   25  C   UNL     1     -44.300  57.740 -59.994  1.00  0.00     0.116 C 
ENDBRANCH  18  23
ENDBRANCH  14  17
ENDBRANCH  12  13
ENDBRANCH   1  12
BRANCH   6  26
HETATM   26  C   UNL     1     -41.305  54.987 -50.603  1.00  0.00     0.235 C 
BRANCH  26  27
HETATM   27  C   UNL     1     -41.170  53.470 -50.678  1.00  0.00     0.032 C 
BRANCH  27  28
HETATM   28  C   UNL     1     -39.767  52.984 -51.044  1.00  0.00     0.040 C 
BRANCH  28  29
HETATM   29  C   UNL     1     -39.838  51.890 -52.076  1.00  0.00    -0.058 A 
HETATM   30  C   UNL     1     -39.576  50.560 -51.716  1.00  0.00     0.007 A 
HETATM   31  C   UNL     1     -39.597  49.551 -52.679  1.00  0.00     0.001 A 
HETATM   32  C   UNL     1     -39.876  49.860 -54.009  1.00  0.00     0.000 A 
HETATM   33  C   UNL     1     -40.135  51.179 -54.376  1.00  0.00     0.001 A 
HETATM   34  C   UNL     1     -40.114  52.191 -53.416  1.00  0.00     0.007 A 
ENDBRANCH  28  29
ENDBRANCH  27  28
ENDBRANCH  26  27
ENDBRANCH   6  26
TORSDOF 8
ENDMDL
MODEL 5
REMARK VINA RESULT:      -8.4      5.550      9.071
REMARK  8 active torsions:
REMARK  status: ('A' for Active; 'I' for Inactive)
REMARK    1  A    between atoms: N_2  and  C_3 
REMARK    2  A    between atoms: C_4  and  C_5 
REMARK       I    between atoms: C_5  and  N_6 
REMARK    3  A    between atoms: N_6  and  C_7 
REMARK    4  A    between atoms: C_7  and  C_8 
REMARK    5  A    between atoms: N_13  and  C_15 
REMARK    6  A    between atoms: C_15  and  C_16 
REMARK    7  A    between atoms: C_16  and  C_17 
REMARK    8  A    between atoms: C_17  and  C_18 
ROOT
HETATM    1  C   UNL     1     -43.776  58.420 -54.506  1.00  0.00     0.140 C 
HETATM    2  O   UNL     1     -43.033  57.258 -54.922  1.00  0.00    -0.373 OA
HETATM    3  C   UNL     1     -43.037  56.277 -53.866  1.00  0.00     0.064 C 
HETATM    4  C   UNL     1     -41.567  55.955 -53.574  1.00  0.00     0.066 C 
HETATM    5  C   UNL     1     -40.891  55.304 -54.779  1.00  0.00     0.237 C 
HETATM    6  N   UNL     1     -41.645  54.068 -55.232  1.00  0.00    -0.071 N 
HETATM    7  H   UNL     1     -41.225  53.819 -56.136  1.00  0.00     0.279 HD
HETATM    8  C   UNL     1     -43.084  54.428 -55.567  1.00  0.00     0.237 C 
HETATM    9  C   UNL     1     -43.767  55.020 -54.348  1.00  0.00     0.066 C 
HETATM   10  C   UNL     1     -43.749  56.917 -52.672  1.00  0.00     0.041 C 
HETATM   11  C   UNL     1     -43.709  58.395 -52.989  1.00  0.00     0.036 C 
ENDROOT
BRANCH   1  12
HETATM   12  C   UNL     1     -45.218  58.364 -55.048  1.00  0.00     0.155 C 
BRANCH  12  13
HETATM   13  N   UNL     1     -45.288  57.718 -56.347  1.00  0.00    -0.354 N 
HETATM   14  C   UNL     1     -45.786  58.350 -57.473  1.00  0.00     0.253 C 
HETATM   15  O   UNL     1     -46.179  59.511 -57.486  1.00  0.00    -0.268 OA
HETATM   16  H   UNL     1     -45.076  56.729 -56.402  1.00  0.00     0.162 HD
BRANCH  14  17
HETATM   17  C   UNL     1     -45.776  57.502 -58.701  1.00  0.00     0.053 A 
HETATM   18  C   UNL     1     -44.574  57.119 -59.341  1.00  0.00     0.025 A 
HETATM   19  C   UNL     1     -44.688  56.327 -60.502  1.00  0.00     0.025 A 
HETATM   20  C   UNL     1     -45.931  55.919 -60.997  1.00  0.00     0.002 A 
HETATM   21  C   UNL     1     -47.099  56.288 -60.342  1.00  0.00     0.001 A 
HETATM   22  C   UNL     1     -47.023  57.074 -59.196  1.00  0.00     0.019 A 
BRANCH  18  23
HETATM   23  N   UNL     1     -43.308  57.566 -58.882  1.00  0.00    -0.291 NA
HETATM   24  C   UNL     1     -42.660  58.409 -59.888  1.00  0.00     0.116 C 
HETATM   25  C   UNL     1     -42.456  56.511 -58.328  1.00  0.00     0.116 C 
ENDBRANCH  18  23
ENDBRANCH  14  17
ENDBRANCH  12  13
ENDBRANCH   1  12
BRANCH   6  26
HETATM   26  C   UNL     1     -41.432  52.886 -54.312  1.00  0.00     0.235 C 
BRANCH  26  27
HETATM   27  C   UNL     1     -40.084  52.886 -53.602  1.00  0.00     0.032 C 
BRANCH  27  28
HETATM   28  C   UNL     1     -40.101  52.221 -52.225  1.00  0.00     0.040 C 
BRANCH  28  29
HETATM   29  C   UNL     1     -40.539  53.201 -51.168  1.00  0.00    -0.058 A 
HETATM   30  C   UNL     1     -41.883  53.589 -51.077  1.00  0.00     0.007 A 
HETATM   31  C   UNL     1     -42.283  54.531 -50.128  1.00  0.00     0.001 A 
HETATM   32  C   UNL     1     -41.345  55.095 -49.266  1.00  0.00     0.000 A 
HETATM   33  C   UNL     1     -40.006  54.718 -49.351  1.00  0.00     0.001 A 
HETATM   34  C   UNL     1     -39.603  53.776 -50.299  1.00  0.00     0.007 A 
ENDBRANCH  28  29
ENDBRANCH  27  28
ENDBRANCH  26  27
ENDBRANCH   6  26
TORSDOF 8
ENDMDL
MODEL 6
REMARK VINA RESULT:      -8.4      3.942      7.291
REMARK  8 active torsions:
REMARK  status: ('A' for Active; 'I' for Inactive)
REMARK    1  A    between atoms: N_2  and  C_3 
REMARK    2  A    between atoms: C_4  and  C_5 
REMARK       I    between atoms: C_5  and  N_6 
REMARK    3  A    between atoms: N_6  and  C_7 
REMARK    4  A    between atoms: C_7  and  C_8 
REMARK    5  A    between atoms: N_13  and  C_15 
REMARK    6  A    between atoms: C_15  and  C_16 
REMARK    7  A    between atoms: C_16  and  C_17 
REMARK    8  A    between atoms: C_17  and  C_18 
ROOT
HETATM    1  C   UNL     1     -42.716  61.138 -52.906  1.00  0.00     0.140 C 
HETATM    2  O   UNL     1     -41.944  59.983 -52.522  1.00  0.00    -0.373 OA
HETATM    3  C   UNL     1     -42.519  59.388 -51.342  1.00  0.00     0.064 C 
HETATM    4  C   UNL     1     -41.394  59.320 -50.303  1.00  0.00     0.066 C 
HETATM    5  C   UNL     1     -40.269  58.394 -50.762  1.00  0.00     0.237 C 
HETATM    6  N   UNL     1     -40.796  57.011 -51.092  1.00  0.00    -0.071 N 
HETATM    7  H   UNL     1     -40.012  56.533 -51.555  1.00  0.00     0.279 HD
HETATM    8  C   UNL     1     -41.871  57.104 -52.164  1.00  0.00     0.237 C 
HETATM    9  C   UNL     1     -43.013  57.977 -51.678  1.00  0.00     0.066 C 
HETATM   10  C   UNL     1     -43.671  60.296 -50.906  1.00  0.00     0.041 C 
HETATM   11  C   UNL     1     -43.385  61.596 -51.623  1.00  0.00     0.036 C 
ENDROOT
BRANCH   1  12
HETATM   12  C   UNL     1     -43.722  60.773 -54.015  1.00  0.00     0.155 C 
BRANCH  12  13
HETATM   13  N   UNL     1     -43.398  59.508 -54.651  1.00  0.00    -0.354 N 
HETATM   14  C   UNL     1     -44.348  58.538 -54.920  1.00  0.00     0.253 C 
HETATM   15  O   UNL     1     -45.542  58.669 -54.679  1.00  0.00    -0.268 OA
HETATM   16  H   UNL     1     -42.421  59.279 -54.793  1.00  0.00     0.162 HD
BRANCH  14  17
HETATM   17  C   UNL     1     -43.799  57.312 -55.569  1.00  0.00     0.053 A 
HETATM   18  C   UNL     1     -43.279  57.325 -56.885  1.00  0.00     0.025 A 
HETATM   19  C   UNL     1     -42.799  56.102 -57.398  1.00  0.00     0.025 A 
HETATM   20  C   UNL     1     -42.816  54.927 -56.640  1.00  0.00     0.002 A 
HETATM   21  C   UNL     1     -43.311  54.940 -55.343  1.00  0.00     0.001 A 
HETATM   22  C   UNL     1     -43.798  56.128 -54.806  1.00  0.00     0.019 A 
BRANCH  18  23
HETATM   23  N   UNL     1     -43.301  58.497 -57.684  1.00  0.00    -0.291 NA
HETATM   24  C   UNL     1     -44.362  58.417 -58.690  1.00  0.00     0.116 C 
HETATM   25  C   UNL     1     -41.993  58.899 -58.207  1.00  0.00     0.116 C 
ENDBRANCH  18  23
ENDBRANCH  14  17
ENDBRANCH  12  13
ENDBRANCH   1  12
BRANCH   6  26
HETATM   26  C   UNL     1     -41.130  56.203 -49.857  1.00  0.00     0.235 C 
BRANCH  26  27
HETATM   27  C   UNL     1     -41.495  54.752 -50.145  1.00  0.00     0.032 C 
BRANCH  27  28
HETATM   28  C   UNL     1     -40.296  53.803 -50.198  1.00  0.00     0.040 C 
BRANCH  28  29
HETATM   29  C   UNL     1     -40.246  53.086 -51.522  1.00  0.00    -0.058 A 
HETATM   30  C   UNL     1     -39.646  51.823 -51.619  1.00  0.00     0.007 A 
HETATM   31  C   UNL     1     -39.559  51.176 -52.852  1.00  0.00     0.001 A 
HETATM   32  C   UNL     1     -40.066  51.786 -53.998  1.00  0.00     0.000 A 
HETATM   33  C   UNL     1     -40.662  53.042 -53.911  1.00  0.00     0.001 A 
HETATM   34  C   UNL     1     -40.751  53.692 -52.680  1.00  0.00     0.007 A 
ENDBRANCH  28  29
ENDBRANCH  27  28
ENDBRANCH  26  27
ENDBRANCH   6  26
TORSDOF 8
ENDMDL
MODEL 7
REMARK VINA RESULT:      -8.4      5.695      8.918
REMARK  8 active torsions:
REMARK  status: ('A' for Active; 'I' for Inactive)
REMARK    1  A    between atoms: N_2  and  C_3 
REMARK    2  A    between atoms: C_4  and  C_5 
REMARK       I    between atoms: C_5  and  N_6 
REMARK    3  A    between atoms: N_6  and  C_7 
REMARK    4  A    between atoms: C_7  and  C_8 
REMARK    5  A    between atoms: N_13  and  C_15 
REMARK    6  A    between atoms: C_15  and  C_16 
REMARK    7  A    between atoms: C_16  and  C_17 
REMARK    8  A    between atoms: C_17  and  C_18 
ROOT
HETATM    1  C   UNL     1     -43.937  55.592 -54.879  1.00  0.00     0.140 C 
HETATM    2  O   UNL     1     -43.646  55.679 -53.470  1.00  0.00    -0.373 OA
HETATM    3  C   UNL     1     -42.465  54.910 -53.171  1.00  0.00     0.064 C 
HETATM    4  C   UNL     1     -42.865  53.919 -52.073  1.00  0.00     0.066 C 
HETATM    5  C   UNL     1     -43.256  54.644 -50.787  1.00  0.00     0.237 C 
HETATM    6  N   UNL     1     -42.149  55.568 -50.317  1.00  0.00    -0.071 N 
HETATM    7  H   UNL     1     -42.574  56.131 -49.570  1.00  0.00     0.279 HD
HETATM    8  C   UNL     1     -41.813  56.575 -51.406  1.00  0.00     0.237 C 
HETATM    9  C   UNL     1     -41.367  55.849 -52.663  1.00  0.00     0.066 C 
HETATM   10  C   UNL     1     -42.051  54.215 -54.471  1.00  0.00     0.041 C 
HETATM   11  C   UNL     1     -43.299  54.288 -55.322  1.00  0.00     0.036 C 
ENDROOT
BRANCH   1  12
HETATM   12  C   UNL     1     -43.382  56.821 -55.624  1.00  0.00     0.155 C 
BRANCH  12  13
HETATM   13  N   UNL     1     -44.259  57.249 -56.701  1.00  0.00    -0.354 N 
HETATM   14  C   UNL     1     -44.041  56.911 -58.025  1.00  0.00     0.253 C 
HETATM   15  O   UNL     1     -43.118  56.200 -58.404  1.00  0.00    -0.268 OA
HETATM   16  H   UNL     1     -44.988  57.919 -56.486  1.00  0.00     0.162 HD
BRANCH  14  17
HETATM   17  C   UNL     1     -45.058  57.462 -58.968  1.00  0.00     0.053 A 
HETATM   18  C   UNL     1     -45.145  58.843 -59.258  1.00  0.00     0.025 A 
HETATM   19  C   UNL     1     -46.154  59.249 -60.156  1.00  0.00     0.025 A 
HETATM   20  C   UNL     1     -47.024  58.330 -60.752  1.00  0.00     0.002 A 
HETATM   21  C   UNL     1     -46.908  56.976 -60.470  1.00  0.00     0.001 A 
HETATM   22  C   UNL     1     -45.926  56.540 -59.585  1.00  0.00     0.019 A 
BRANCH  18  23
HETATM   23  N   UNL     1     -44.304  59.794 -58.623  1.00  0.00    -0.291 NA
HETATM   24  C   UNL     1     -45.100  60.807 -57.928  1.00  0.00     0.116 C 
HETATM   25  C   UNL     1     -43.243  60.332 -59.479  1.00  0.00     0.116 C 
ENDBRANCH  18  23
ENDBRANCH  14  17
ENDBRANCH  12  13
ENDBRANCH   1  12
BRANCH   6  26
HETATM   26  C   UNL     1     -40.990  54.821 -49.694  1.00  0.00     0.235 C 
BRANCH  26  27
HETATM   27  C   UNL     1     -40.816  53.400 -50.216  1.00  0.00     0.032 C 
BRANCH  27  28
HETATM   28  C   UNL     1     -39.471  53.145 -50.900  1.00  0.00     0.040 C 
BRANCH  28  29
HETATM   29  C   UNL     1     -39.568  51.969 -51.837  1.00  0.00    -0.058 A 
HETATM   30  C   UNL     1     -39.792  52.173 -53.206  1.00  0.00     0.007 A 
HETATM   31  C   UNL     1     -39.926  51.084 -54.068  1.00  0.00     0.001 A 
HETATM   32  C   UNL     1     -39.841  49.785 -53.571  1.00  0.00     0.000 A 
HETATM   33  C   UNL     1     -39.621  49.574 -52.212  1.00  0.00     0.001 A 
HETATM   34  C   UNL     1     -39.486  50.660 -51.346  1.00  0.00     0.007 A 
ENDBRANCH  28  29
ENDBRANCH  27  28
ENDBRANCH  26  27
ENDBRANCH   6  26
TORSDOF 8
ENDMDL
MODEL 8
REMARK VINA RESULT:      -8.4      5.927      9.305
REMARK  8 active torsions:
REMARK  status: ('A' for Active; 'I' for Inactive)
REMARK    1  A    between atoms: N_2  and  C_3 
REMARK    2  A    between atoms: C_4  and  C_5 
REMARK       I    between atoms: C_5  and  N_6 
REMARK    3  A    between atoms: N_6  and  C_7 
REMARK    4  A    between atoms: C_7  and  C_8 
REMARK    5  A    between atoms: N_13  and  C_15 
REMARK    6  A    between atoms: C_15  and  C_16 
REMARK    7  A    between atoms: C_16  and  C_17 
REMARK    8  A    between atoms: C_17  and  C_18 
ROOT
HETATM    1  C   UNL     1     -43.321  56.349 -56.046  1.00  0.00     0.140 C 
HETATM    2  O   UNL     1     -43.144  56.360 -54.616  1.00  0.00    -0.373 OA
HETATM    3  C   UNL     1     -42.074  55.466 -54.253  1.00  0.00     0.064 C 
HETATM    4  C   UNL     1     -42.662  54.486 -53.231  1.00  0.00     0.066 C 
HETATM    5  C   UNL     1     -43.089  55.205 -51.954  1.00  0.00     0.237 C 
HETATM    6  N   UNL     1     -41.940  55.996 -51.357  1.00  0.00    -0.071 N 
HETATM    7  H   UNL     1     -42.370  56.575 -50.625  1.00  0.00     0.279 HD
HETATM    8  C   UNL     1     -41.414  56.998 -52.374  1.00  0.00     0.237 C 
HETATM    9  C   UNL     1     -40.937  56.272 -53.618  1.00  0.00     0.066 C 
HETATM   10  C   UNL     1     -41.621  54.775 -55.541  1.00  0.00     0.041 C 
HETATM   11  C   UNL     1     -42.778  55.002 -56.488  1.00  0.00     0.036 C 
ENDROOT
BRANCH   1  12
HETATM   12  C   UNL     1     -42.586  57.539 -56.693  1.00  0.00     0.155 C 
BRANCH  12  13
HETATM   13  N   UNL     1     -43.400  58.203 -57.696  1.00  0.00    -0.354 N 
HETATM   14  C   UNL     1     -43.279  57.947 -59.050  1.00  0.00     0.253 C 
HETATM   15  O   UNL     1     -42.506  57.121 -59.521  1.00  0.00    -0.268 OA
HETATM   16  H   UNL     1     -43.993  58.970 -57.400  1.00  0.00     0.162 HD
BRANCH  14  17
HETATM   17  C   UNL     1     -44.205  58.745 -59.905  1.00  0.00     0.053 A 
HETATM   18  C   UNL     1     -45.608  58.569 -59.865  1.00  0.00     0.025 A 
HETATM   19  C   UNL     1     -46.382  59.372 -60.728  1.00  0.00     0.025 A 
HETATM   20  C   UNL     1     -45.797  60.317 -61.578  1.00  0.00     0.002 A 
HETATM   21  C   UNL     1     -44.420  60.489 -61.588  1.00  0.00     0.001 A 
HETATM   22  C   UNL     1     -43.625  59.710 -60.752  1.00  0.00     0.019 A 
BRANCH  18  23
HETATM   23  N   UNL     1     -46.213  57.580 -59.046  1.00  0.00    -0.291 NA
HETATM   24  C   UNL     1     -46.843  56.544 -59.866  1.00  0.00     0.116 C 
HETATM   25  C   UNL     1     -47.061  58.114 -57.977  1.00  0.00     0.116 C 
ENDBRANCH  18  23
ENDBRANCH  14  17
ENDBRANCH  12  13
ENDBRANCH   1  12
BRANCH   6  26
HETATM   26  C   UNL     1     -40.918  55.116 -50.673  1.00  0.00     0.235 C 
BRANCH  26  27
HETATM   27  C   UNL     1     -41.137  53.624 -50.893  1.00  0.00     0.032 C 
BRANCH  27  28
HETATM   28  C   UNL     1     -39.855  52.791 -50.855  1.00  0.00     0.040 C 
BRANCH  28  29
HETATM   29  C   UNL     1     -39.825  51.810 -51.998  1.00  0.00    -0.058 A 
HETATM   30  C   UNL     1     -40.070  52.245 -53.308  1.00  0.00     0.007 A 
HETATM   31  C   UNL     1     -40.087  51.332 -54.363  1.00  0.00     0.001 A 
HETATM   32  C   UNL     1     -39.864  49.978 -54.118  1.00  0.00     0.000 A 
HETATM   33  C   UNL     1     -39.622  49.537 -52.819  1.00  0.00     0.001 A 
HETATM   34  C   UNL     1     -39.604  50.447 -51.762  1.00  0.00     0.007 A 
ENDBRANCH  28  29
ENDBRANCH  27  28
ENDBRANCH  26  27
ENDBRANCH   6  26
TORSDOF 8
ENDMDL
MODEL 9
REMARK VINA RESULT:      -8.2      5.028      8.394
REMARK  8 active torsions:
REMARK  status: ('A' for Active; 'I' for Inactive)
REMARK    1  A    between atoms: N_2  and  C_3 
REMARK    2  A    between atoms: C_4  and  C_5 
REMARK       I    between atoms: C_5  and  N_6 
REMARK    3  A    between atoms: N_6  and  C_7 
REMARK    4  A    between atoms: C_7  and  C_8 
REMARK    5  A    between atoms: N_13  and  C_15 
REMARK    6  A    between atoms: C_15  and  C_16 
REMARK    7  A    between atoms: C_16  and  C_17 
REMARK    8  A    between atoms: C_17  and  C_18 
ROOT
HETATM    1  C   UNL     1     -44.377  57.639 -54.220  1.00  0.00     0.140 C 
HETATM    2  O   UNL     1     -43.896  57.351 -52.893  1.00  0.00    -0.373 OA
HETATM    3  C   UNL     1     -42.752  56.479 -52.971  1.00  0.00     0.064 C 
HETATM    4  C   UNL     1     -43.081  55.260 -52.103  1.00  0.00     0.066 C 
HETATM    5  C   UNL     1     -43.239  55.650 -50.635  1.00  0.00     0.237 C 
HETATM    6  N   UNL     1     -42.008  56.373 -50.122  1.00  0.00    -0.071 N 
HETATM    7  H   UNL     1     -42.284  56.745 -49.205  1.00  0.00     0.279 HD
HETATM    8  C   UNL     1     -41.739  57.608 -50.968  1.00  0.00     0.237 C 
HETATM    9  C   UNL     1     -41.524  57.207 -52.416  1.00  0.00     0.066 C 
HETATM   10  C   UNL     1     -42.571  56.120 -54.448  1.00  0.00     0.041 C 
HETATM   11  C   UNL     1     -43.910  56.464 -55.060  1.00  0.00     0.036 C 
ENDROOT
BRANCH   1  12
HETATM   12  C   UNL     1     -43.828  58.992 -54.714  1.00  0.00     0.155 C 
BRANCH  12  13
HETATM   13  N   UNL     1     -43.485  58.958 -56.126  1.00  0.00    -0.354 N 
HETATM   14  C   UNL     1     -42.302  59.477 -56.622  1.00  0.00     0.253 C 
HETATM   15  O   UNL     1     -41.430  59.976 -55.922  1.00  0.00    -0.268 OA
HETATM   16  H   UNL     1     -44.193  58.653 -56.783  1.00  0.00     0.162 HD
BRANCH  14  17
HETATM   17  C   UNL     1     -42.155  59.347 -58.102  1.00  0.00     0.053 A 
HETATM   18  C   UNL     1     -42.101  60.474 -58.955  1.00  0.00     0.025 A 
HETATM   19  C   UNL     1     -41.972  60.228 -60.337  1.00  0.00     0.025 A 
HETATM   20  C   UNL     1     -41.884  58.929 -60.850  1.00  0.00     0.002 A 
HETATM   21  C   UNL     1     -41.918  57.837 -59.994  1.00  0.00     0.001 A 
HETATM   22  C   UNL     1     -42.049  58.043 -58.623  1.00  0.00     0.019 A 
BRANCH  18  23
HETATM   23  N   UNL     1     -42.239  61.795 -58.456  1.00  0.00    -0.291 NA
HETATM   24  C   UNL     1     -43.336  62.491 -59.132  1.00  0.00     0.116 C 
HETATM   25  C   UNL     1     -40.987  62.552 -58.386  1.00  0.00     0.116 C 
ENDBRANCH  18  23
ENDBRANCH  14  17
ENDBRANCH  12  13
ENDBRANCH   1  12
BRANCH   6  26
HETATM   26  C   UNL     1     -40.841  55.441 -49.881  1.00  0.00     0.235 C 
BRANCH  26  27
HETATM   27  C   UNL     1     -41.136  53.981 -50.206  1.00  0.00     0.032 C 
BRANCH  27  28
HETATM   28  C   UNL     1     -39.892  53.145 -50.512  1.00  0.00     0.040 C 
BRANCH  28  29
HETATM   29  C   UNL     1     -40.024  52.470 -51.852  1.00  0.00    -0.058 A 
HETATM   30  C   UNL     1     -39.517  51.177 -52.045  1.00  0.00     0.007 A 
HETATM   31  C   UNL     1     -39.598  50.567 -53.297  1.00  0.00     0.001 A 
HETATM   32  C   UNL     1     -40.181  51.243 -54.367  1.00  0.00     0.000 A 
HETATM   33  C   UNL     1     -40.685  52.530 -54.185  1.00  0.00     0.001 A 
HETATM   34  C   UNL     1     -40.606  53.143 -52.934  1.00  0.00     0.007 A 
ENDBRANCH  28  29
ENDBRANCH  27  28
ENDBRANCH  26  27
ENDBRANCH   6  26
TORSDOF 8
ENDMDL
MODEL 10
REMARK VINA RESULT:      -8.2      5.218      8.849
REMARK  8 active torsions:
REMARK  status: ('A' for Active; 'I' for Inactive)
REMARK    1  A    between atoms: N_2  and  C_3 
REMARK    2  A    between atoms: C_4  and  C_5 
REMARK       I    between atoms: C_5  and  N_6 
REMARK    3  A    between atoms: N_6  and  C_7 
REMARK    4  A    between atoms: C_7  and  C_8 
REMARK    5  A    between atoms: N_13  and  C_15 
REMARK    6  A    between atoms: C_15  and  C_16 
REMARK    7  A    between atoms: C_16  and  C_17 
REMARK    8  A    between atoms: C_17  and  C_18 
ROOT
HETATM    1  C   UNL     1     -43.518  60.148 -55.563  1.00  0.00     0.140 C 
HETATM    2  O   UNL     1     -42.991  58.854 -55.213  1.00  0.00    -0.373 OA
HETATM    3  C   UNL     1     -43.122  58.645 -53.794  1.00  0.00     0.064 C 
HETATM    4  C   UNL     1     -41.717  58.317 -53.276  1.00  0.00     0.066 C 
HETATM    5  C   UNL     1     -41.199  57.009 -53.869  1.00  0.00     0.237 C 
HETATM    6  N   UNL     1     -42.161  55.866 -53.606  1.00  0.00    -0.071 N 
HETATM    7  H   UNL     1     -41.818  55.093 -54.190  1.00  0.00     0.279 HD
HETATM    8  C   UNL     1     -43.531  56.196 -54.179  1.00  0.00     0.237 C 
HETATM    9  C   UNL     1     -44.066  57.465 -53.542  1.00  0.00     0.066 C 
HETATM   10  C   UNL     1     -43.679  59.944 -53.206  1.00  0.00     0.041 C 
HETATM   11  C   UNL     1     -43.406  60.965 -54.288  1.00  0.00     0.036 C 
ENDROOT
BRANCH   1  12
HETATM   12  C   UNL     1     -44.966  60.025 -56.076  1.00  0.00     0.155 C 
BRANCH  12  13
HETATM   13  N   UNL     1     -45.125  58.912 -56.996  1.00  0.00    -0.354 N 
HETATM   14  C   UNL     1     -45.518  59.079 -58.313  1.00  0.00     0.253 C 
HETATM   15  O   UNL     1     -45.733  60.170 -58.827  1.00  0.00    -0.268 OA
HETATM   16  H   UNL     1     -45.063  57.971 -56.626  1.00  0.00     0.162 HD
BRANCH  14  17
HETATM   17  C   UNL     1     -45.628  57.804 -59.081  1.00  0.00     0.053 A 
HETATM   18  C   UNL     1     -44.524  56.940 -59.269  1.00  0.00     0.025 A 
HETATM   19  C   UNL     1     -44.745  55.769 -60.023  1.00  0.00     0.025 A 
HETATM   20  C   UNL     1     -46.003  55.458 -60.551  1.00  0.00     0.002 A 
HETATM   21  C   UNL     1     -47.079  56.309 -60.337  1.00  0.00     0.001 A 
HETATM   22  C   UNL     1     -46.896  57.476 -59.601  1.00  0.00     0.019 A 
BRANCH  18  23
HETATM   23  N   UNL     1     -43.231  57.265 -58.783  1.00  0.00    -0.291 NA
HETATM   24  C   UNL     1     -42.301  57.483 -59.893  1.00  0.00     0.116 C 
HETATM   25  C   UNL     1     -42.733  56.369 -57.736  1.00  0.00     0.116 C 
ENDBRANCH  18  23
ENDBRANCH  14  17
ENDBRANCH  12  13
ENDBRANCH   1  12
BRANCH   6  26
HETATM   26  C   UNL     1     -42.117  55.383 -52.173  1.00  0.00     0.235 C 
BRANCH  26  27
HETATM   27  C   UNL     1     -41.371  54.067 -51.985  1.00  0.00     0.032 C 
BRANCH  27  28
HETATM   28  C   UNL     1     -40.561  53.626 -53.204  1.00  0.00     0.040 C 
BRANCH  28  29
HETATM   29  C   UNL     1     -40.230  52.159 -53.118  1.00  0.00    -0.058 A 
HETATM   30  C   UNL     1     -39.769  51.608 -51.914  1.00  0.00     0.007 A 
HETATM   31  C   UNL     1     -39.420  50.259 -51.844  1.00  0.00     0.001 A 
HETATM   32  C   UNL     1     -39.523  49.451 -52.974  1.00  0.00     0.000 A 
HETATM   33  C   UNL     1     -39.976  49.991 -54.176  1.00  0.00     0.001 A 
HETATM   34  C   UNL     1     -40.327  51.339 -54.250  1.00  0.00     0.007 A 
ENDBRANCH  28  29
ENDBRANCH  27  28
ENDBRANCH  26  27
ENDBRANCH   6  26
TORSDOF 8
ENDMDL
