MODEL 1
REMARK VINA RESULT:      -8.0      0.000      0.000
REMARK  4 active torsions:
REMARK  status: ('A' for Active; 'I' for Inactive)
REMARK    1  A    between atoms: N_4  and  C_5 
REMARK    2  A    between atoms: C_13  and  C_14 
REMARK    3  A    between atoms: N_15  and  C_17 
REMARK    4  A    between atoms: C_17  and  C_18 
ROOT
HETATM    1  C   UNL     1     -40.888  54.665 -48.296  1.00  0.00     0.095 C 
HETATM    2  C   UNL     1     -41.237  55.025 -49.686  1.00  0.00     0.144 A 
HETATM    3  N   UNL     1     -41.038  56.244 -50.197  1.00  0.00    -0.156 NA
HETATM    4  N   UNL     1     -41.404  56.090 -51.482  1.00  0.00    -0.247 N 
HETATM    5  C   UNL     1     -41.863  54.814 -51.698  1.00  0.00     0.156 A 
HETATM    6  N   UNL     1     -41.789  54.137 -50.565  1.00  0.00    -0.215 NA
ENDROOT
BRANCH   5   7
HETATM    7  C   UNL     1     -42.333  54.209 -52.991  1.00  0.00     0.259 C 
HETATM    8  N   UNL     1     -41.273  54.427 -54.077  1.00  0.00    -0.056 N 
HETATM    9  H   UNL     1     -41.060  55.434 -53.984  1.00  0.00     0.281 HD
HETATM   10  C   UNL     1     -41.713  54.229 -55.502  1.00  0.00     0.236 C 
HETATM   11  C   UNL     1     -42.974  55.020 -55.790  1.00  0.00     0.028 C 
HETATM   12  C   UNL     1     -44.076  54.629 -54.822  1.00  0.00     0.004 C 
HETATM   13  C   UNL     1     -43.642  54.917 -53.394  1.00  0.00     0.041 C 
BRANCH   8  14
HETATM   14  C   UNL     1     -39.925  53.768 -53.797  1.00  0.00     0.274 C 
BRANCH  14  15
HETATM   15  C   UNL     1     -39.916  52.292 -53.469  1.00  0.00    -0.033 A 
HETATM   16  C   UNL     1     -40.152  51.297 -54.429  1.00  0.00     0.009 A 
HETATM   17  C   UNL     1     -40.092  49.941 -54.092  1.00  0.00     0.001 A 
HETATM   18  C   UNL     1     -39.762  49.557 -52.797  1.00  0.00     0.000 A 
HETATM   19  C   UNL     1     -39.491  50.526 -51.837  1.00  0.00     0.001 A 
HETATM   20  C   UNL     1     -39.569  51.882 -52.168  1.00  0.00     0.009 A 
ENDBRANCH  14  15
ENDBRANCH   8  14
ENDBRANCH   5   7
BRANCH   4  21
HETATM   21  C   UNL     1     -41.286  57.230 -52.386  1.00  0.00     0.115 C 
HETATM   22  C   UNL     1     -40.342  58.325 -51.861  1.00  0.00     0.055 C 
HETATM   23  C   UNL     1     -40.943  59.202 -50.764  1.00  0.00     0.236 C 
HETATM   24  N   UNL     1     -42.287  59.738 -51.197  1.00  0.00    -0.075 N 
HETATM   25  H   UNL     1     -42.140  60.362 -52.003  1.00  0.00     0.279 HD
HETATM   26  C   UNL     1     -42.886  60.613 -50.116  1.00  0.00     0.269 C 
HETATM   27  C   UNL     1     -43.253  58.655 -51.599  1.00  0.00     0.236 C 
HETATM   28  C   UNL     1     -42.655  57.826 -52.729  1.00  0.00     0.055 C 
ENDBRANCH   4  21
TORSDOF 4
ENDMDL
MODEL 2
REMARK VINA RESULT:      -7.6      2.387      4.156
REMARK  4 active torsions:
REMARK  status: ('A' for Active; 'I' for Inactive)
REMARK    1  A    between atoms: N_4  and  C_5 
REMARK    2  A    between atoms: C_13  and  C_14 
REMARK    3  A    between atoms: N_15  and  C_17 
REMARK    4  A    between atoms: C_17  and  C_18 
ROOT
HETATM    1  C   UNL     1     -43.228  55.494 -57.736  1.00  0.00     0.095 C 
HETATM    2  C   UNL     1     -42.804  56.115 -56.464  1.00  0.00     0.144 A 
HETATM    3  N   UNL     1     -42.434  57.395 -56.364  1.00  0.00    -0.156 NA
HETATM    4  N   UNL     1     -42.230  57.542 -55.043  1.00  0.00    -0.247 N 
HETATM    5  C   UNL     1     -42.424  56.349 -54.394  1.00  0.00     0.156 A 
HETATM    6  N   UNL     1     -42.760  55.430 -55.282  1.00  0.00    -0.215 NA
ENDROOT
BRANCH   5   7
HETATM    7  C   UNL     1     -42.337  56.075 -52.919  1.00  0.00     0.259 C 
HETATM    8  N   UNL     1     -41.972  54.604 -52.688  1.00  0.00    -0.056 N 
HETATM    9  H   UNL     1     -42.637  54.108 -53.303  1.00  0.00     0.281 HD
HETATM   10  C   UNL     1     -42.202  54.057 -51.306  1.00  0.00     0.236 C 
HETATM   11  C   UNL     1     -43.612  54.358 -50.837  1.00  0.00     0.028 C 
HETATM   12  C   UNL     1     -43.876  55.853 -50.881  1.00  0.00     0.004 C 
HETATM   13  C   UNL     1     -43.720  56.368 -52.303  1.00  0.00     0.041 C 
BRANCH   8  14
HETATM   14  C   UNL     1     -40.615  54.186 -53.250  1.00  0.00     0.274 C 
BRANCH  14  15
HETATM   15  C   UNL     1     -40.255  52.718 -53.206  1.00  0.00    -0.033 A 
HETATM   16  C   UNL     1     -39.755  52.091 -52.056  1.00  0.00     0.009 A 
HETATM   17  C   UNL     1     -39.476  50.721 -52.045  1.00  0.00     0.001 A 
HETATM   18  C   UNL     1     -39.721  49.949 -53.175  1.00  0.00     0.000 A 
HETATM   19  C   UNL     1     -40.248  50.543 -54.316  1.00  0.00     0.001 A 
HETATM   20  C   UNL     1     -40.511  51.916 -54.334  1.00  0.00     0.009 A 
ENDBRANCH  14  15
ENDBRANCH   8  14
ENDBRANCH   5   7
BRANCH   4  21
HETATM   21  C   UNL     1     -41.839  58.854 -54.535  1.00  0.00     0.115 C 
HETATM   22  C   UNL     1     -42.657  59.299 -53.311  1.00  0.00     0.055 C 
HETATM   23  C   UNL     1     -44.062  59.798 -53.639  1.00  0.00     0.236 C 
HETATM   24  N   UNL     1     -44.009  60.845 -54.725  1.00  0.00    -0.075 N 
HETATM   25  H   UNL     1     -43.502  61.663 -54.359  1.00  0.00     0.279 HD
HETATM   26  C   UNL     1     -45.399  61.348 -55.052  1.00  0.00     0.269 C 
HETATM   27  C   UNL     1     -43.310  60.368 -55.971  1.00  0.00     0.236 C 
HETATM   28  C   UNL     1     -41.893  59.926 -55.630  1.00  0.00     0.055 C 
ENDBRANCH   4  21
TORSDOF 4
ENDMDL
MODEL 3
REMARK VINA RESULT:      -7.5      2.200      3.828
REMARK  4 active torsions:
REMARK  status: ('A' for Active; 'I' for Inactive)
REMARK    1  A    between atoms: N_4  and  C_5 
REMARK    2  A    between atoms: C_13  and  C_14 
REMARK    3  A    between atoms: N_15  and  C_17 
REMARK    4  A    between atoms: C_17  and  C_18 
ROOT
HETATM    1  C   UNL     1     -40.259  59.111 -50.862  1.00  0.00     0.095 C 
HETATM    2  C   UNL     1     -41.513  58.600 -51.456  1.00  0.00     0.144 A 
HETATM    3  N   UNL     1     -42.721  59.067 -51.127  1.00  0.00    -0.156 NA
HETATM    4  N   UNL     1     -43.535  58.396 -51.962  1.00  0.00    -0.247 N 
HETATM    5  C   UNL     1     -42.814  57.511 -52.723  1.00  0.00     0.156 A 
HETATM    6  N   UNL     1     -41.537  57.608 -52.397  1.00  0.00    -0.215 NA
ENDROOT
BRANCH   5   7
HETATM    7  C   UNL     1     -43.320  56.596 -53.802  1.00  0.00     0.259 C 
HETATM    8  N   UNL     1     -42.715  55.199 -53.619  1.00  0.00    -0.056 N 
HETATM    9  H   UNL     1     -41.711  55.404 -53.496  1.00  0.00     0.281 HD
HETATM   10  C   UNL     1     -42.805  54.263 -54.793  1.00  0.00     0.236 C 
HETATM   11  C   UNL     1     -42.288  54.930 -56.052  1.00  0.00     0.028 C 
HETATM   12  C   UNL     1     -43.052  56.213 -56.323  1.00  0.00     0.004 C 
HETATM   13  C   UNL     1     -42.878  57.178 -55.160  1.00  0.00     0.041 C 
BRANCH   8  14
HETATM   14  C   UNL     1     -43.084  54.509 -52.308  1.00  0.00     0.274 C 
BRANCH  14  15
HETATM   15  C   UNL     1     -41.992  54.316 -51.280  1.00  0.00    -0.033 A 
HETATM   16  C   UNL     1     -40.810  53.611 -51.550  1.00  0.00     0.009 A 
HETATM   17  C   UNL     1     -39.805  53.492 -50.585  1.00  0.00     0.001 A 
HETATM   18  C   UNL     1     -39.951  54.103 -49.345  1.00  0.00     0.000 A 
HETATM   19  C   UNL     1     -41.101  54.836 -49.067  1.00  0.00     0.001 A 
HETATM   20  C   UNL     1     -42.114  54.940 -50.025  1.00  0.00     0.009 A 
ENDBRANCH  14  15
ENDBRANCH   8  14
ENDBRANCH   5   7
BRANCH   4  21
HETATM   21  C   UNL     1     -44.967  58.676 -51.919  1.00  0.00     0.115 C 
HETATM   22  C   UNL     1     -45.422  59.676 -52.995  1.00  0.00     0.055 C 
HETATM   23  C   UNL     1     -45.085  61.133 -52.684  1.00  0.00     0.236 C 
HETATM   24  N   UNL     1     -45.561  61.499 -51.299  1.00  0.00    -0.075 N 
HETATM   25  H   UNL     1     -46.589  61.443 -51.287  1.00  0.00     0.279 HD
HETATM   26  C   UNL     1     -45.235  62.944 -50.986  1.00  0.00     0.269 C 
HETATM   27  C   UNL     1     -45.020  60.589 -50.229  1.00  0.00     0.236 C 
HETATM   28  C   UNL     1     -45.412  59.149 -50.530  1.00  0.00     0.055 C 
ENDBRANCH   4  21
TORSDOF 4
ENDMDL
MODEL 4
REMARK VINA RESULT:      -7.4      1.903      3.338
REMARK  4 active torsions:
REMARK  status: ('A' for Active; 'I' for Inactive)
REMARK    1  A    between atoms: N_4  and  C_5 
REMARK    2  A    between atoms: C_13  and  C_14 
REMARK    3  A    between atoms: N_15  and  C_17 
REMARK    4  A    between atoms: C_17  and  C_18 
ROOT
HETATM    1  C   UNL     1     -40.345  58.397 -50.851  1.00  0.00     0.095 C 
HETATM    2  C   UNL     1     -41.613  58.108 -51.553  1.00  0.00     0.144 A 
HETATM    3  N   UNL     1     -42.791  58.610 -51.171  1.00  0.00    -0.156 NA
HETATM    4  N   UNL     1     -43.625  58.170 -52.129  1.00  0.00    -0.247 N 
HETATM    5  C   UNL     1     -42.951  57.377 -53.023  1.00  0.00     0.156 A 
HETATM    6  N   UNL     1     -41.683  57.305 -52.657  1.00  0.00    -0.215 NA
ENDROOT
BRANCH   5   7
HETATM    7  C   UNL     1     -43.490  56.714 -54.259  1.00  0.00     0.259 C 
HETATM    8  N   UNL     1     -42.771  55.379 -54.483  1.00  0.00    -0.056 N 
HETATM    9  H   UNL     1     -41.777  55.640 -54.386  1.00  0.00     0.281 HD
HETATM   10  C   UNL     1     -42.903  54.759 -55.848  1.00  0.00     0.236 C 
HETATM   11  C   UNL     1     -42.558  55.763 -56.930  1.00  0.00     0.028 C 
HETATM   12  C   UNL     1     -43.435  56.996 -56.806  1.00  0.00     0.004 C 
HETATM   13  C   UNL     1     -43.222  57.654 -55.452  1.00  0.00     0.041 C 
BRANCH   8  14
HETATM   14  C   UNL     1     -42.963  54.354 -53.368  1.00  0.00     0.274 C 
BRANCH  14  15
HETATM   15  C   UNL     1     -41.748  53.587 -52.898  1.00  0.00    -0.033 A 
HETATM   16  C   UNL     1     -41.315  53.590 -51.564  1.00  0.00     0.009 A 
HETATM   17  C   UNL     1     -40.211  52.832 -51.162  1.00  0.00     0.001 A 
HETATM   18  C   UNL     1     -39.541  52.032 -52.081  1.00  0.00     0.000 A 
HETATM   19  C   UNL     1     -39.973  51.987 -53.403  1.00  0.00     0.001 A 
HETATM   20  C   UNL     1     -41.066  52.759 -53.809  1.00  0.00     0.009 A 
ENDBRANCH  14  15
ENDBRANCH   8  14
ENDBRANCH   5   7
BRANCH   4  21
HETATM   21  C   UNL     1     -45.031  58.559 -52.066  1.00  0.00     0.115 C 
HETATM   22  C   UNL     1     -45.395  59.678 -53.057  1.00  0.00     0.055 C 
HETATM   23  C   UNL     1     -44.947  61.073 -52.624  1.00  0.00     0.236 C 
HETATM   24  N   UNL     1     -45.405  61.359 -51.214  1.00  0.00    -0.075 N 
HETATM   25  H   UNL     1     -46.435  61.384 -51.209  1.00  0.00     0.279 HD
HETATM   26  C   UNL     1     -44.968  62.743 -50.781  1.00  0.00     0.269 C 
HETATM   27  C   UNL     1     -44.947  60.323 -50.222  1.00  0.00     0.236 C 
HETATM   28  C   UNL     1     -45.450  58.948 -50.644  1.00  0.00     0.055 C 
ENDBRANCH   4  21
TORSDOF 4
ENDMDL
MODEL 5
REMARK VINA RESULT:      -7.3      3.794      5.794
REMARK  4 active torsions:
REMARK  status: ('A' for Active; 'I' for Inactive)
REMARK    1  A    between atoms: N_4  and  C_5 
REMARK    2  A    between atoms: C_13  and  C_14 
REMARK    3  A    between atoms: N_15  and  C_17 
REMARK    4  A    between atoms: C_17  and  C_18 
ROOT
HETATM    1  C   UNL     1     -43.406  55.522 -58.016  1.00  0.00     0.095 C 
HETATM    2  C   UNL     1     -43.087  56.646 -57.111  1.00  0.00     0.144 A 
HETATM    3  N   UNL     1     -42.537  57.790 -57.531  1.00  0.00    -0.156 NA
HETATM    4  N   UNL     1     -42.516  58.537 -56.413  1.00  0.00    -0.247 N 
HETATM    5  C   UNL     1     -42.994  57.815 -55.348  1.00  0.00     0.156 A 
HETATM    6  N   UNL     1     -43.334  56.609 -55.767  1.00  0.00    -0.215 NA
ENDROOT
BRANCH   5   7
HETATM    7  C   UNL     1     -43.178  58.275 -53.929  1.00  0.00     0.259 C 
HETATM    8  N   UNL     1     -42.711  57.177 -52.967  1.00  0.00    -0.056 N 
HETATM    9  H   UNL     1     -43.182  56.337 -53.339  1.00  0.00     0.281 HD
HETATM   10  C   UNL     1     -43.156  57.297 -51.534  1.00  0.00     0.236 C 
HETATM   11  C   UNL     1     -44.655  57.506 -51.453  1.00  0.00     0.028 C 
HETATM   12  C   UNL     1     -45.063  58.730 -52.253  1.00  0.00     0.004 C 
HETATM   13  C   UNL     1     -44.679  58.550 -53.713  1.00  0.00     0.041 C 
BRANCH   8  14
HETATM   14  C   UNL     1     -41.232  56.814 -53.078  1.00  0.00     0.274 C 
BRANCH  14  15
HETATM   15  C   UNL     1     -40.881  55.395 -53.466  1.00  0.00    -0.033 A 
HETATM   16  C   UNL     1     -41.090  54.300 -52.616  1.00  0.00     0.009 A 
HETATM   17  C   UNL     1     -40.791  52.998 -53.030  1.00  0.00     0.001 A 
HETATM   18  C   UNL     1     -40.308  52.767 -54.313  1.00  0.00     0.000 A 
HETATM   19  C   UNL     1     -40.125  53.835 -55.186  1.00  0.00     0.001 A 
HETATM   20  C   UNL     1     -40.406  55.139 -54.766  1.00  0.00     0.009 A 
ENDBRANCH  14  15
ENDBRANCH   8  14
ENDBRANCH   5   7
BRANCH   4  21
HETATM   21  C   UNL     1     -42.003  59.901 -56.491  1.00  0.00     0.115 C 
HETATM   22  C   UNL     1     -42.976  60.948 -55.920  1.00  0.00     0.055 C 
HETATM   23  C   UNL     1     -44.145  61.289 -56.842  1.00  0.00     0.236 C 
HETATM   24  N   UNL     1     -43.643  61.640 -58.222  1.00  0.00    -0.075 N 
HETATM   25  H   UNL     1     -43.083  62.502 -58.151  1.00  0.00     0.279 HD
HETATM   26  C   UNL     1     -44.797  61.985 -59.139  1.00  0.00     0.269 C 
HETATM   27  C   UNL     1     -42.786  60.562 -58.830  1.00  0.00     0.236 C 
HETATM   28  C   UNL     1     -41.598  60.274 -57.921  1.00  0.00     0.055 C 
ENDBRANCH   4  21
TORSDOF 4
ENDMDL
MODEL 6
REMARK VINA RESULT:      -7.3      3.733      6.889
REMARK  4 active torsions:
REMARK  status: ('A' for Active; 'I' for Inactive)
REMARK    1  A    between atoms: N_4  and  C_5 
REMARK    2  A    between atoms: C_13  and  C_14 
REMARK    3  A    between atoms: N_15  and  C_17 
REMARK    4  A    between atoms: C_17  and  C_18 
ROOT
HETATM    1  C   UNL     1     -46.648  59.696 -57.078  1.00  0.00     0.095 C 
HETATM    2  C   UNL     1     -45.355  59.002 -56.907  1.00  0.00     0.144 A 
HETATM    3  N   UNL     1     -44.761  58.312 -57.886  1.00  0.00    -0.156 NA
HETATM    4  N   UNL     1     -43.595  57.945 -57.325  1.00  0.00    -0.247 N 
HETATM    5  C   UNL     1     -43.539  58.368 -56.020  1.00  0.00     0.156 A 
HETATM    6  N   UNL     1     -44.656  59.015 -55.733  1.00  0.00    -0.215 NA
ENDROOT
BRANCH   5   7
HETATM    7  C   UNL     1     -42.408  58.205 -55.044  1.00  0.00     0.259 C 
HETATM    8  N   UNL     1     -42.831  57.252 -53.920  1.00  0.00    -0.056 N 
HETATM    9  H   UNL     1     -43.751  57.629 -53.640  1.00  0.00     0.281 HD
HETATM   10  C   UNL     1     -41.987  57.257 -52.675  1.00  0.00     0.236 C 
HETATM   11  C   UNL     1     -41.796  58.671 -52.161  1.00  0.00     0.028 C 
HETATM   12  C   UNL     1     -41.180  59.546 -53.237  1.00  0.00     0.004 C 
HETATM   13  C   UNL     1     -42.090  59.594 -54.454  1.00  0.00     0.041 C 
BRANCH   8  14
HETATM   14  C   UNL     1     -43.169  55.835 -54.376  1.00  0.00     0.274 C 
BRANCH  14  15
HETATM   15  C   UNL     1     -42.092  54.780 -54.262  1.00  0.00    -0.033 A 
HETATM   16  C   UNL     1     -42.146  53.736 -53.328  1.00  0.00     0.009 A 
HETATM   17  C   UNL     1     -41.149  52.756 -53.283  1.00  0.00     0.001 A 
HETATM   18  C   UNL     1     -40.099  52.786 -54.194  1.00  0.00     0.000 A 
HETATM   19  C   UNL     1     -40.044  53.793 -55.152  1.00  0.00     0.001 A 
HETATM   20  C   UNL     1     -41.030  54.784 -55.184  1.00  0.00     0.009 A 
ENDBRANCH  14  15
ENDBRANCH   8  14
ENDBRANCH   5   7
BRANCH   4  21
HETATM   21  C   UNL     1     -42.640  57.186 -58.125  1.00  0.00     0.115 C 
HETATM   22  C   UNL     1     -42.569  57.653 -59.589  1.00  0.00     0.055 C 
HETATM   23  C   UNL     1     -43.735  57.184 -60.457  1.00  0.00     0.236 C 
HETATM   24  N   UNL     1     -43.924  55.692 -60.322  1.00  0.00    -0.075 N 
HETATM   25  H   UNL     1     -43.089  55.226 -60.703  1.00  0.00     0.279 HD
HETATM   26  C   UNL     1     -45.076  55.219 -61.185  1.00  0.00     0.269 C 
HETATM   27  C   UNL     1     -44.112  55.247 -58.896  1.00  0.00     0.236 C 
HETATM   28  C   UNL     1     -42.915  55.679 -58.060  1.00  0.00     0.055 C 
ENDBRANCH   4  21
TORSDOF 4
ENDMDL
MODEL 7
REMARK VINA RESULT:      -7.2      4.028      6.618
REMARK  4 active torsions:
REMARK  status: ('A' for Active; 'I' for Inactive)
REMARK    1  A    between atoms: N_4  and  C_5 
REMARK    2  A    between atoms: C_13  and  C_14 
REMARK    3  A    between atoms: N_15  and  C_17 
REMARK    4  A    between atoms: C_17  and  C_18 
ROOT
HETATM    1  C   UNL     1     -47.369  58.383 -57.727  1.00  0.00     0.095 C 
HETATM    2  C   UNL     1     -46.008  58.086 -57.232  1.00  0.00     0.144 A 
HETATM    3  N   UNL     1     -44.967  57.870 -58.041  1.00  0.00    -0.156 NA
HETATM    4  N   UNL     1     -43.943  57.740 -57.178  1.00  0.00    -0.247 N 
HETATM    5  C   UNL     1     -44.396  57.821 -55.885  1.00  0.00     0.156 A 
HETATM    6  N   UNL     1     -45.703  58.013 -55.901  1.00  0.00    -0.215 NA
ENDROOT
BRANCH   5   7
HETATM    7  C   UNL     1     -43.587  57.765 -54.619  1.00  0.00     0.259 C 
HETATM    8  N   UNL     1     -44.071  56.598 -53.751  1.00  0.00    -0.056 N 
HETATM    9  H   UNL     1     -45.096  56.730 -53.746  1.00  0.00     0.281 HD
HETATM   10  C   UNL     1     -43.648  56.606 -52.308  1.00  0.00     0.236 C 
HETATM   11  C   UNL     1     -43.960  57.942 -51.664  1.00  0.00     0.028 C 
HETATM   12  C   UNL     1     -43.292  59.068 -52.432  1.00  0.00     0.004 C 
HETATM   13  C   UNL     1     -43.798  59.093 -53.865  1.00  0.00     0.041 C 
BRANCH   8  14
HETATM   14  C   UNL     1     -43.911  55.218 -54.386  1.00  0.00     0.274 C 
BRANCH  14  15
HETATM   15  C   UNL     1     -42.549  54.565 -54.321  1.00  0.00    -0.033 A 
HETATM   16  C   UNL     1     -42.196  53.640 -53.328  1.00  0.00     0.009 A 
HETATM   17  C   UNL     1     -40.939  53.026 -53.329  1.00  0.00     0.001 A 
HETATM   18  C   UNL     1     -40.027  53.302 -54.341  1.00  0.00     0.000 A 
HETATM   19  C   UNL     1     -40.369  54.191 -55.355  1.00  0.00     0.001 A 
HETATM   20  C   UNL     1     -41.618  54.819 -55.345  1.00  0.00     0.009 A 
ENDBRANCH  14  15
ENDBRANCH   8  14
ENDBRANCH   5   7
BRANCH   4  21
HETATM   21  C   UNL     1     -42.601  57.524 -57.710  1.00  0.00     0.115 C 
HETATM   22  C   UNL     1     -41.731  58.792 -57.694  1.00  0.00     0.055 C 
HETATM   23  C   UNL     1     -42.056  59.793 -58.802  1.00  0.00     0.236 C 
HETATM   24  N   UNL     1     -42.070  59.104 -60.145  1.00  0.00    -0.075 N 
HETATM   25  H   UNL     1     -41.118  58.767 -60.344  1.00  0.00     0.279 HD
HETATM   26  C   UNL     1     -42.386  60.091 -61.249  1.00  0.00     0.269 C 
HETATM   27  C   UNL     1     -43.013  57.931 -60.197  1.00  0.00     0.236 C 
HETATM   28  C   UNL     1     -42.639  56.922 -59.119  1.00  0.00     0.055 C 
ENDBRANCH   4  21
TORSDOF 4
ENDMDL
MODEL 8
REMARK VINA RESULT:      -7.1      2.791      6.231
REMARK  4 active torsions:
REMARK  status: ('A' for Active; 'I' for Inactive)
REMARK    1  A    between atoms: N_4  and  C_5 
REMARK    2  A    between atoms: C_13  and  C_14 
REMARK    3  A    between atoms: N_15  and  C_17 
REMARK    4  A    between atoms: C_17  and  C_18 
ROOT
HETATM    1  C   UNL     1     -39.975  54.085 -55.209  1.00  0.00     0.095 C 
HETATM    2  C   UNL     1     -40.994  54.918 -54.537  1.00  0.00     0.144 A 
HETATM    3  N   UNL     1     -41.613  54.549 -53.411  1.00  0.00    -0.156 NA
HETATM    4  N   UNL     1     -42.364  55.626 -53.119  1.00  0.00    -0.247 N 
HETATM    5  C   UNL     1     -42.226  56.583 -54.094  1.00  0.00     0.156 A 
HETATM    6  N   UNL     1     -41.384  56.139 -55.011  1.00  0.00    -0.215 NA
ENDROOT
BRANCH   5   7
HETATM    7  C   UNL     1     -42.854  57.947 -54.143  1.00  0.00     0.259 C 
HETATM    8  N   UNL     1     -43.194  58.305 -55.595  1.00  0.00    -0.056 N 
HETATM    9  H   UNL     1     -42.317  58.083 -56.093  1.00  0.00     0.281 HD
HETATM   10  C   UNL     1     -43.479  59.753 -55.887  1.00  0.00     0.236 C 
HETATM   11  C   UNL     1     -42.376  60.638 -55.342  1.00  0.00     0.028 C 
HETATM   12  C   UNL     1     -42.201  60.409 -53.851  1.00  0.00     0.004 C 
HETATM   13  C   UNL     1     -41.831  58.958 -53.587  1.00  0.00     0.041 C 
BRANCH   8  14
HETATM   14  C   UNL     1     -44.207  57.377 -56.262  1.00  0.00     0.274 C 
BRANCH  14  15
HETATM   15  C   UNL     1     -44.018  57.064 -57.729  1.00  0.00    -0.033 A 
HETATM   16  C   UNL     1     -43.084  56.126 -58.193  1.00  0.00     0.009 A 
HETATM   17  C   UNL     1     -42.971  55.835 -59.556  1.00  0.00     0.001 A 
HETATM   18  C   UNL     1     -43.812  56.453 -60.475  1.00  0.00     0.000 A 
HETATM   19  C   UNL     1     -44.769  57.361 -60.034  1.00  0.00     0.001 A 
HETATM   20  C   UNL     1     -44.870  57.667 -58.673  1.00  0.00     0.009 A 
ENDBRANCH  14  15
ENDBRANCH   8  14
ENDBRANCH   5   7
BRANCH   4  21
HETATM   21  C   UNL     1     -43.174  55.607 -51.905  1.00  0.00     0.115 C 
HETATM   22  C   UNL     1     -42.689  56.603 -50.838  1.00  0.00     0.055 C 
HETATM   23  C   UNL     1     -41.449  56.148 -50.069  1.00  0.00     0.236 C 
HETATM   24  N   UNL     1     -41.649  54.752 -49.528  1.00  0.00    -0.075 N 
HETATM   25  H   UNL     1     -42.410  54.781 -48.836  1.00  0.00     0.279 HD
HETATM   26  C   UNL     1     -40.426  54.297 -48.760  1.00  0.00     0.269 C 
HETATM   27  C   UNL     1     -42.009  53.752 -50.594  1.00  0.00     0.236 C 
HETATM   28  C   UNL     1     -43.276  54.198 -51.312  1.00  0.00     0.055 C 
ENDBRANCH   4  21
TORSDOF 4
ENDMDL
MODEL 9
REMARK VINA RESULT:      -7.1      3.253      6.125
REMARK  4 active torsions:
REMARK  status: ('A' for Active; 'I' for Inactive)
REMARK    1  A    between atoms: N_4  and  C_5 
REMARK    2  A    between atoms: C_13  and  C_14 
REMARK    3  A    between atoms: N_15  and  C_17 
REMARK    4  A    between atoms: C_17  and  C_18 
ROOT
HETATM    1  C   UNL     1     -45.837  60.838 -54.900  1.00  0.00     0.095 C 
HETATM    2  C   UNL     1     -44.649  59.963 -54.979  1.00  0.00     0.144 A 
HETATM    3  N   UNL     1     -44.194  59.450 -56.127  1.00  0.00    -0.156 NA
HETATM    4  N   UNL     1     -43.072  58.815 -55.744  1.00  0.00    -0.247 N 
HETATM    5  C   UNL     1     -42.910  58.910 -54.384  1.00  0.00     0.156 A 
HETATM    6  N   UNL     1     -43.913  59.609 -53.883  1.00  0.00    -0.215 NA
ENDROOT
BRANCH   5   7
HETATM    7  C   UNL     1     -41.779  58.379 -53.550  1.00  0.00     0.259 C 
HETATM    8  N   UNL     1     -42.289  57.246 -52.652  1.00  0.00    -0.056 N 
HETATM    9  H   UNL     1     -43.138  57.657 -52.232  1.00  0.00     0.281 HD
HETATM   10  C   UNL     1     -41.410  56.848 -51.498  1.00  0.00     0.236 C 
HETATM   11  C   UNL     1     -41.008  58.062 -50.685  1.00  0.00     0.028 C 
HETATM   12  C   UNL     1     -40.316  59.085 -51.567  1.00  0.00     0.004 C 
HETATM   13  C   UNL     1     -41.253  59.535 -52.677  1.00  0.00     0.041 C 
BRANCH   8  14
HETATM   14  C   UNL     1     -42.834  56.032 -53.401  1.00  0.00     0.274 C 
BRANCH  14  15
HETATM   15  C   UNL     1     -41.864  54.930 -53.761  1.00  0.00    -0.033 A 
HETATM   16  C   UNL     1     -41.956  53.633 -53.236  1.00  0.00     0.009 A 
HETATM   17  C   UNL     1     -41.063  52.631 -53.629  1.00  0.00     0.001 A 
HETATM   18  C   UNL     1     -40.083  52.900 -54.577  1.00  0.00     0.000 A 
HETATM   19  C   UNL     1     -39.995  54.171 -55.137  1.00  0.00     0.001 A 
HETATM   20  C   UNL     1     -40.875  55.178 -54.731  1.00  0.00     0.009 A 
ENDBRANCH  14  15
ENDBRANCH   8  14
ENDBRANCH   5   7
BRANCH   4  21
HETATM   21  C   UNL     1     -42.263  58.148 -56.759  1.00  0.00     0.115 C 
HETATM   22  C   UNL     1     -41.975  59.034 -57.983  1.00  0.00     0.055 C 
HETATM   23  C   UNL     1     -43.149  59.174 -58.950  1.00  0.00     0.236 C 
HETATM   24  N   UNL     1     -43.691  57.814 -59.320  1.00  0.00    -0.075 N 
HETATM   25  H   UNL     1     -42.961  57.308 -59.840  1.00  0.00     0.279 HD
HETATM   26  C   UNL     1     -44.853  57.945 -60.282  1.00  0.00     0.269 C 
HETATM   27  C   UNL     1     -44.085  56.990 -58.123  1.00  0.00     0.236 C 
HETATM   28  C   UNL     1     -42.886  56.819 -57.199  1.00  0.00     0.055 C 
ENDBRANCH   4  21
TORSDOF 4
ENDMDL
MODEL 10
REMARK VINA RESULT:      -7.1      3.420      6.351
REMARK  4 active torsions:
REMARK  status: ('A' for Active; 'I' for Inactive)
REMARK    1  A    between atoms: N_4  and  C_5 
REMARK    2  A    between atoms: C_13  and  C_14 
REMARK    3  A    between atoms: N_15  and  C_17 
REMARK    4  A    between atoms: C_17  and  C_18 
ROOT
HETATM    1  C   UNL     1     -41.094  60.822 -58.047  1.00  0.00     0.095 C 
HETATM    2  C   UNL     1     -41.897  60.054 -57.072  1.00  0.00     0.144 A 
HETATM    3  N   UNL     1     -42.718  59.060 -57.424  1.00  0.00    -0.156 NA
HETATM    4  N   UNL     1     -43.152  58.600 -56.236  1.00  0.00    -0.247 N 
HETATM    5  C   UNL     1     -42.634  59.355 -55.214  1.00  0.00     0.156 A 
HETATM    6  N   UNL     1     -41.860  60.296 -55.727  1.00  0.00    -0.215 NA
ENDROOT
BRANCH   5   7
HETATM    7  C   UNL     1     -42.831  59.166 -53.736  1.00  0.00     0.259 C 
HETATM    8  N   UNL     1     -42.561  57.704 -53.364  1.00  0.00    -0.056 N 
HETATM    9  H   UNL     1     -43.116  57.187 -54.065  1.00  0.00     0.281 HD
HETATM   10  C   UNL     1     -43.060  57.243 -52.021  1.00  0.00     0.236 C 
HETATM   11  C   UNL     1     -44.522  57.601 -51.840  1.00  0.00     0.028 C 
HETATM   12  C   UNL     1     -44.726  59.095 -52.012  1.00  0.00     0.004 C 
HETATM   13  C   UNL     1     -44.294  59.523 -53.405  1.00  0.00     0.041 C 
BRANCH   8  14
HETATM   14  C   UNL     1     -41.137  57.225 -53.640  1.00  0.00     0.274 C 
BRANCH  14  15
HETATM   15  C   UNL     1     -40.909  55.738 -53.789  1.00  0.00    -0.033 A 
HETATM   16  C   UNL     1     -40.438  55.156 -54.975  1.00  0.00     0.009 A 
HETATM   17  C   UNL     1     -40.200  53.781 -55.058  1.00  0.00     0.001 A 
HETATM   18  C   UNL     1     -40.396  52.969 -53.946  1.00  0.00     0.000 A 
HETATM   19  C   UNL     1     -40.830  53.530 -52.749  1.00  0.00     0.001 A 
HETATM   20  C   UNL     1     -41.086  54.902 -52.671  1.00  0.00     0.009 A 
ENDBRANCH  14  15
ENDBRANCH   8  14
ENDBRANCH   5   7
BRANCH   4  21
HETATM   21  C   UNL     1     -44.063  57.460 -56.217  1.00  0.00     0.115 C 
HETATM   22  C   UNL     1     -43.413  56.156 -56.710  1.00  0.00     0.055 C 
HETATM   23  C   UNL     1     -43.260  56.063 -58.227  1.00  0.00     0.236 C 
HETATM   24  N   UNL     1     -44.575  56.361 -58.908  1.00  0.00    -0.075 N 
HETATM   25  H   UNL     1     -45.245  55.624 -58.650  1.00  0.00     0.279 HD
HETATM   26  C   UNL     1     -44.432  56.265 -60.412  1.00  0.00     0.269 C 
HETATM   27  C   UNL     1     -45.154  57.694 -58.514  1.00  0.00     0.236 C 
HETATM   28  C   UNL     1     -45.347  57.746 -57.003  1.00  0.00     0.055 C 
ENDBRANCH   4  21
TORSDOF 4
ENDMDL
