MODEL 1
REMARK VINA RESULT:      -8.4      0.000      0.000
REMARK  3 active torsions:
REMARK  status: ('A' for Active; 'I' for Inactive)
REMARK    1  A    between atoms: N_1  and  C_5 
REMARK    2  A    between atoms: C_8  and  C_10 
REMARK       I    between atoms: C_10  and  N_12 
REMARK    3  A    between atoms: N_12  and  C_13 
ROOT
HETATM    1  C   UNL     1     -40.563  54.017 -53.045  1.00  0.00     0.057 A 
HETATM    2  C   UNL     1     -40.429  53.299 -51.851  1.00  0.00     0.043 A 
HETATM    3  C   UNL     1     -40.117  51.930 -51.877  1.00  0.00    -0.017 A 
HETATM    4  C   UNL     1     -39.993  51.159 -50.636  1.00  0.00     0.029 A 
HETATM    5  C   UNL     1     -39.703  49.854 -50.700  1.00  0.00     0.092 A 
HETATM    6  N   UNL     1     -39.512  49.222 -51.900  1.00  0.00    -0.333 N 
HETATM    7  C   UNL     1     -39.602  49.838 -53.129  1.00  0.00     0.256 A 
HETATM    8  O   UNL     1     -39.422  49.236 -54.179  1.00  0.00    -0.267 OA
HETATM    9  C   UNL     1     -39.930  51.286 -53.110  1.00  0.00     0.044 A 
HETATM   10  C   UNL     1     -40.058  51.987 -54.310  1.00  0.00     0.044 A 
HETATM   11  C   UNL     1     -40.379  53.342 -54.271  1.00  0.00     0.061 A 
HETATM   12 CL   UNL     1     -40.535  54.189 -55.774  1.00  0.00    -0.082 Cl
HETATM   13  H   UNL     1     -39.293  48.231 -51.924  1.00  0.00     0.168 HD
ENDROOT
BRANCH   1  14
HETATM   14  N   UNL     1     -40.901  55.392 -53.094  1.00  0.00    -0.325 N 
HETATM   15  C   UNL     1     -42.140  55.965 -53.245  1.00  0.00     0.226 C 
HETATM   16  O   UNL     1     -43.227  55.387 -53.260  1.00  0.00    -0.273 OA
HETATM   17  H   UNL     1     -40.102  56.012 -52.970  1.00  0.00     0.169 HD
BRANCH  15  18
HETATM   18  C   UNL     1     -42.088  57.494 -53.285  1.00  0.00     0.080 C 
HETATM   19  C   UNL     1     -41.058  58.020 -52.288  1.00  0.00     0.016 C 
HETATM   20  C   UNL     1     -41.789  58.033 -50.941  1.00  0.00     0.033 C 
HETATM   21  C   UNL     1     -43.283  58.127 -51.266  1.00  0.00     0.184 C 
HETATM   22  C   UNL     1     -43.385  58.143 -52.793  1.00  0.00     0.046 C 
BRANCH  21  23
HETATM   23  N   UNL     1     -43.989  56.935 -50.733  1.00  0.00    -0.075 N 
HETATM   24  H   UNL     1     -44.995  57.091 -50.595  1.00  0.00     0.274 HD
HETATM   25  H   UNL     1     -43.877  56.115 -51.342  1.00  0.00     0.274 HD
HETATM   26  H   UNL     1     -43.593  56.653 -49.810  1.00  0.00     0.274 HD
ENDBRANCH  21  23
ENDBRANCH  15  18
ENDBRANCH   1  14
TORSDOF 3
ENDMDL
MODEL 2
REMARK VINA RESULT:      -8.3      1.102      1.460
REMARK  3 active torsions:
REMARK  status: ('A' for Active; 'I' for Inactive)
REMARK    1  A    between atoms: N_1  and  C_5 
REMARK    2  A    between atoms: C_8  and  C_10 
REMARK       I    between atoms: C_10  and  N_12 
REMARK    3  A    between atoms: N_12  and  C_13 
ROOT
HETATM    1  C   UNL     1     -40.753  53.981 -52.869  1.00  0.00     0.057 A 
HETATM    2  C   UNL     1     -40.495  53.182 -51.749  1.00  0.00     0.043 A 
HETATM    3  C   UNL     1     -40.126  51.836 -51.907  1.00  0.00    -0.017 A 
HETATM    4  C   UNL     1     -39.873  50.979 -50.744  1.00  0.00     0.029 A 
HETATM    5  C   UNL     1     -39.531  49.699 -50.933  1.00  0.00     0.092 A 
HETATM    6  N   UNL     1     -39.407  49.171 -52.191  1.00  0.00    -0.333 N 
HETATM    7  C   UNL     1     -39.619  49.873 -53.356  1.00  0.00     0.256 A 
HETATM    8  O   UNL     1     -39.495  49.363 -54.462  1.00  0.00    -0.267 OA
HETATM    9  C   UNL     1     -40.008  51.298 -53.198  1.00  0.00     0.044 A 
HETATM   10  C   UNL     1     -40.259  52.081 -54.325  1.00  0.00     0.044 A 
HETATM   11  C   UNL     1     -40.635  53.411 -54.155  1.00  0.00     0.061 A 
HETATM   12 CL   UNL     1     -40.944  54.362 -55.570  1.00  0.00    -0.082 Cl
HETATM   13  H   UNL     1     -39.147  48.197 -52.310  1.00  0.00     0.168 HD
ENDROOT
BRANCH   1  14
HETATM   14  N   UNL     1     -41.153  55.338 -52.782  1.00  0.00    -0.325 N 
HETATM   15  C   UNL     1     -42.330  55.854 -52.297  1.00  0.00     0.226 C 
HETATM   16  O   UNL     1     -43.234  55.236 -51.735  1.00  0.00    -0.273 OA
HETATM   17  H   UNL     1     -40.443  55.993 -53.105  1.00  0.00     0.169 HD
BRANCH  15  18
HETATM   18  C   UNL     1     -42.401  57.378 -52.407  1.00  0.00     0.080 C 
HETATM   19  C   UNL     1     -43.462  57.934 -51.461  1.00  0.00     0.016 C 
HETATM   20  C   UNL     1     -44.785  57.771 -52.218  1.00  0.00     0.033 C 
HETATM   21  C   UNL     1     -44.424  57.732 -53.706  1.00  0.00     0.184 C 
HETATM   22  C   UNL     1     -42.900  57.850 -53.777  1.00  0.00     0.046 C 
BRANCH  21  23
HETATM   23  N   UNL     1     -44.849  56.436 -54.292  1.00  0.00    -0.075 N 
HETATM   24  H   UNL     1     -44.417  56.246 -55.205  1.00  0.00     0.274 HD
HETATM   25  H   UNL     1     -44.641  55.644 -53.672  1.00  0.00     0.274 HD
HETATM   26  H   UNL     1     -45.883  56.416 -54.432  1.00  0.00     0.274 HD
ENDBRANCH  21  23
ENDBRANCH  15  18
ENDBRANCH   1  14
TORSDOF 3
ENDMDL
MODEL 3
REMARK VINA RESULT:      -8.2      1.636      2.229
REMARK  3 active torsions:
REMARK  status: ('A' for Active; 'I' for Inactive)
REMARK    1  A    between atoms: N_1  and  C_5 
REMARK    2  A    between atoms: C_8  and  C_10 
REMARK       I    between atoms: C_10  and  N_12 
REMARK    3  A    between atoms: N_12  and  C_13 
ROOT
HETATM    1  C   UNL     1     -40.700  54.266 -52.662  1.00  0.00     0.057 A 
HETATM    2  C   UNL     1     -40.603  53.311 -53.681  1.00  0.00     0.043 A 
HETATM    3  C   UNL     1     -40.223  51.992 -53.383  1.00  0.00    -0.017 A 
HETATM    4  C   UNL     1     -40.096  50.984 -54.441  1.00  0.00     0.029 A 
HETATM    5  C   UNL     1     -39.724  49.739 -54.121  1.00  0.00     0.092 A 
HETATM    6  N   UNL     1     -39.464  49.382 -52.824  1.00  0.00    -0.333 N 
HETATM    7  C   UNL     1     -39.548  50.237 -51.748  1.00  0.00     0.256 A 
HETATM    8  O   UNL     1     -39.309  49.876 -50.603  1.00  0.00    -0.267 OA
HETATM    9  C   UNL     1     -39.950  51.633 -52.053  1.00  0.00     0.044 A 
HETATM   10  C   UNL     1     -40.044  52.572 -51.026  1.00  0.00     0.044 A 
HETATM   11  C   UNL     1     -40.412  53.880 -51.335  1.00  0.00     0.061 A 
HETATM   12 CL   UNL     1     -40.518  55.027 -50.042  1.00  0.00    -0.082 Cl
HETATM   13  H   UNL     1     -39.183  48.432 -52.606  1.00  0.00     0.168 HD
ENDROOT
BRANCH   1  14
HETATM   14  N   UNL     1     -41.053  55.619 -52.893  1.00  0.00    -0.325 N 
HETATM   15  C   UNL     1     -42.290  56.145 -53.175  1.00  0.00     0.226 C 
HETATM   16  O   UNL     1     -43.367  55.548 -53.174  1.00  0.00    -0.273 OA
HETATM   17  H   UNL     1     -40.270  56.264 -52.805  1.00  0.00     0.169 HD
BRANCH  15  18
HETATM   18  C   UNL     1     -42.256  57.659 -53.397  1.00  0.00     0.080 C 
HETATM   19  C   UNL     1     -41.207  58.308 -52.498  1.00  0.00     0.016 C 
HETATM   20  C   UNL     1     -41.902  58.474 -51.142  1.00  0.00     0.033 C 
HETATM   21  C   UNL     1     -43.404  58.517 -51.435  1.00  0.00     0.184 C 
HETATM   22  C   UNL     1     -43.547  58.351 -52.949  1.00  0.00     0.046 C 
BRANCH  21  23
HETATM   23  N   UNL     1     -44.083  57.391 -50.745  1.00  0.00    -0.075 N 
HETATM   24  H   UNL     1     -44.222  57.558 -49.741  1.00  0.00     0.274 HD
HETATM   25  H   UNL     1     -44.998  57.178 -51.160  1.00  0.00     0.274 HD
HETATM   26  H   UNL     1     -43.525  56.513 -50.835  1.00  0.00     0.274 HD
ENDBRANCH  21  23
ENDBRANCH  15  18
ENDBRANCH   1  14
TORSDOF 3
ENDMDL
MODEL 4
REMARK VINA RESULT:      -7.4      4.270      5.664
REMARK  3 active torsions:
REMARK  status: ('A' for Active; 'I' for Inactive)
REMARK    1  A    between atoms: N_1  and  C_5 
REMARK    2  A    between atoms: C_8  and  C_10 
REMARK       I    between atoms: C_10  and  N_12 
REMARK    3  A    between atoms: N_12  and  C_13 
ROOT
HETATM    1  C   UNL     1     -43.001  55.264 -55.383  1.00  0.00     0.057 A 
HETATM    2  C   UNL     1     -42.019  54.271 -55.492  1.00  0.00     0.043 A 
HETATM    3  C   UNL     1     -41.439  53.717 -54.339  1.00  0.00    -0.017 A 
HETATM    4  C   UNL     1     -40.395  52.692 -54.436  1.00  0.00     0.029 A 
HETATM    5  C   UNL     1     -39.860  52.193 -53.316  1.00  0.00     0.092 A 
HETATM    6  N   UNL     1     -40.269  52.614 -52.078  1.00  0.00    -0.333 N 
HETATM    7  C   UNL     1     -41.238  53.568 -51.860  1.00  0.00     0.256 A 
HETATM    8  O   UNL     1     -41.576  53.914 -50.736  1.00  0.00    -0.267 OA
HETATM    9  C   UNL     1     -41.858  54.158 -53.074  1.00  0.00     0.044 A 
HETATM   10  C   UNL     1     -42.836  55.145 -52.947  1.00  0.00     0.044 A 
HETATM   11  C   UNL     1     -43.396  55.694 -54.098  1.00  0.00     0.061 A 
HETATM   12 CL   UNL     1     -44.607  56.919 -53.915  1.00  0.00    -0.082 Cl
HETATM   13  H   UNL     1     -39.848  52.221 -51.243  1.00  0.00     0.168 HD
ENDROOT
BRANCH   1  14
HETATM   14  N   UNL     1     -43.610  55.884 -56.503  1.00  0.00    -0.325 N 
HETATM   15  C   UNL     1     -43.177  56.973 -57.218  1.00  0.00     0.226 C 
HETATM   16  O   UNL     1     -42.105  57.566 -57.092  1.00  0.00    -0.273 OA
HETATM   17  H   UNL     1     -44.463  55.422 -56.809  1.00  0.00     0.169 HD
BRANCH  15  18
HETATM   18  C   UNL     1     -44.136  57.364 -58.344  1.00  0.00     0.080 C 
HETATM   19  C   UNL     1     -44.648  56.121 -59.067  1.00  0.00     0.016 C 
HETATM   20  C   UNL     1     -43.542  55.767 -60.068  1.00  0.00     0.033 C 
HETATM   21  C   UNL     1     -42.779  57.067 -60.337  1.00  0.00     0.184 C 
HETATM   22  C   UNL     1     -43.443  58.139 -59.470  1.00  0.00     0.046 C 
BRANCH  21  23
HETATM   23  N   UNL     1     -41.360  56.909 -59.932  1.00  0.00    -0.075 N 
HETATM   24  H   UNL     1     -41.020  57.681 -59.345  1.00  0.00     0.274 HD
HETATM   25  H   UNL     1     -41.198  56.031 -59.424  1.00  0.00     0.274 HD
HETATM   26  H   UNL     1     -40.739  56.865 -60.769  1.00  0.00     0.274 HD
ENDBRANCH  21  23
ENDBRANCH  15  18
ENDBRANCH   1  14
TORSDOF 3
ENDMDL
MODEL 5
REMARK VINA RESULT:      -7.3      1.484      2.093
REMARK  3 active torsions:
REMARK  status: ('A' for Active; 'I' for Inactive)
REMARK    1  A    between atoms: N_1  and  C_5 
REMARK    2  A    between atoms: C_8  and  C_10 
REMARK       I    between atoms: C_10  and  N_12 
REMARK    3  A    between atoms: N_12  and  C_13 
ROOT
HETATM    1  C   UNL     1     -41.423  53.914 -52.883  1.00  0.00     0.057 A 
HETATM    2  C   UNL     1     -40.863  53.186 -51.825  1.00  0.00     0.043 A 
HETATM    3  C   UNL     1     -40.332  51.905 -52.048  1.00  0.00    -0.017 A 
HETATM    4  C   UNL     1     -39.762  51.122 -50.947  1.00  0.00     0.029 A 
HETATM    5  C   UNL     1     -39.272  49.902 -51.194  1.00  0.00     0.092 A 
HETATM    6  N   UNL     1     -39.286  49.368 -52.456  1.00  0.00    -0.333 N 
HETATM    7  C   UNL     1     -39.793  50.005 -53.567  1.00  0.00     0.256 A 
HETATM    8  O   UNL     1     -39.784  49.493 -54.678  1.00  0.00    -0.267 OA
HETATM    9  C   UNL     1     -40.356  51.361 -53.341  1.00  0.00     0.044 A 
HETATM   10  C   UNL     1     -40.907  52.073 -54.407  1.00  0.00     0.044 A 
HETATM   11  C   UNL     1     -41.441  53.337 -54.172  1.00  0.00     0.061 A 
HETATM   12 CL   UNL     1     -42.122  54.200 -55.511  1.00  0.00    -0.082 Cl
HETATM   13  H   UNL     1     -38.909  48.440 -52.619  1.00  0.00     0.168 HD
ENDROOT
BRANCH   1  14
HETATM   14  N   UNL     1     -41.998  55.199 -52.727  1.00  0.00    -0.325 N 
HETATM   15  C   UNL     1     -41.489  56.417 -53.106  1.00  0.00     0.226 C 
HETATM   16  O   UNL     1     -40.468  56.622 -53.763  1.00  0.00    -0.273 OA
HETATM   17  H   UNL     1     -42.922  55.182 -52.299  1.00  0.00     0.169 HD
BRANCH  15  18
HETATM   18  C   UNL     1     -42.401  57.586 -52.729  1.00  0.00     0.080 C 
HETATM   19  C   UNL     1     -43.868  57.180 -52.843  1.00  0.00     0.016 C 
HETATM   20  C   UNL     1     -44.203  57.337 -54.330  1.00  0.00     0.033 C 
HETATM   21  C   UNL     1     -43.207  58.360 -54.886  1.00  0.00     0.184 C 
HETATM   22  C   UNL     1     -42.305  58.755 -53.715  1.00  0.00     0.046 C 
BRANCH  21  23
HETATM   23  N   UNL     1     -42.390  57.735 -55.956  1.00  0.00    -0.075 N 
HETATM   24  H   UNL     1     -42.476  56.712 -55.982  1.00  0.00     0.274 HD
HETATM   25  H   UNL     1     -42.629  58.097 -56.887  1.00  0.00     0.274 HD
HETATM   26  H   UNL     1     -41.378  57.954 -55.823  1.00  0.00     0.274 HD
ENDBRANCH  21  23
ENDBRANCH  15  18
ENDBRANCH   1  14
TORSDOF 3
ENDMDL
MODEL 6
REMARK VINA RESULT:      -7.1      3.149      4.300
REMARK  3 active torsions:
REMARK  status: ('A' for Active; 'I' for Inactive)
REMARK    1  A    between atoms: N_1  and  C_5 
REMARK    2  A    between atoms: C_8  and  C_10 
REMARK       I    between atoms: C_10  and  N_12 
REMARK    3  A    between atoms: N_12  and  C_13 
ROOT
HETATM    1  C   UNL     1     -41.390  55.509 -54.153  1.00  0.00     0.057 A 
HETATM    2  C   UNL     1     -40.955  54.290 -54.688  1.00  0.00     0.043 A 
HETATM    3  C   UNL     1     -40.523  53.257 -53.840  1.00  0.00    -0.017 A 
HETATM    4  C   UNL     1     -40.044  51.983 -54.384  1.00  0.00     0.029 A 
HETATM    5  C   UNL     1     -39.633  51.024 -53.547  1.00  0.00     0.092 A 
HETATM    6  N   UNL     1     -39.655  51.203 -52.189  1.00  0.00    -0.333 N 
HETATM    7  C   UNL     1     -40.081  52.352 -51.561  1.00  0.00     0.256 A 
HETATM    8  O   UNL     1     -40.086  52.471 -50.343  1.00  0.00    -0.267 OA
HETATM    9  C   UNL     1     -40.540  53.450 -52.450  1.00  0.00     0.044 A 
HETATM   10  C   UNL     1     -40.973  54.657 -51.900  1.00  0.00     0.044 A 
HETATM   11  C   UNL     1     -41.389  55.678 -52.751  1.00  0.00     0.061 A 
HETATM   12 CL   UNL     1     -41.918  57.168 -52.045  1.00  0.00    -0.082 Cl
HETATM   13  H   UNL     1     -39.338  50.461 -51.573  1.00  0.00     0.168 HD
ENDROOT
BRANCH   1  14
HETATM   14  N   UNL     1     -41.815  56.602 -54.949  1.00  0.00    -0.325 N 
HETATM   15  C   UNL     1     -43.094  56.962 -55.295  1.00  0.00     0.226 C 
HETATM   16  O   UNL     1     -44.142  56.462 -54.886  1.00  0.00    -0.273 OA
HETATM   17  H   UNL     1     -41.051  57.194 -55.268  1.00  0.00     0.169 HD
BRANCH  15  18
HETATM   18  C   UNL     1     -43.140  58.192 -56.204  1.00  0.00     0.080 C 
HETATM   19  C   UNL     1     -44.510  58.318 -56.866  1.00  0.00     0.016 C 
HETATM   20  C   UNL     1     -44.450  57.372 -58.070  1.00  0.00     0.033 C 
HETATM   21  C   UNL     1     -42.968  57.227 -58.427  1.00  0.00     0.184 C 
HETATM   22  C   UNL     1     -42.201  58.074 -57.409  1.00  0.00     0.046 C 
BRANCH  21  23
HETATM   23  N   UNL     1     -42.557  55.806 -58.303  1.00  0.00    -0.075 N 
HETATM   24  H   UNL     1     -42.935  55.350 -57.463  1.00  0.00     0.274 HD
HETATM   25  H   UNL     1     -42.838  55.250 -59.119  1.00  0.00     0.274 HD
HETATM   26  H   UNL     1     -41.518  55.725 -58.254  1.00  0.00     0.274 HD
ENDBRANCH  21  23
ENDBRANCH  15  18
ENDBRANCH   1  14
TORSDOF 3
ENDMDL
MODEL 7
REMARK VINA RESULT:      -7.1      1.490      1.596
REMARK  3 active torsions:
REMARK  status: ('A' for Active; 'I' for Inactive)
REMARK    1  A    between atoms: N_1  and  C_5 
REMARK    2  A    between atoms: C_8  and  C_10 
REMARK       I    between atoms: C_10  and  N_12 
REMARK    3  A    between atoms: N_12  and  C_13 
ROOT
HETATM    1  C   UNL     1     -41.581  54.798 -53.319  1.00  0.00     0.057 A 
HETATM    2  C   UNL     1     -41.113  54.159 -52.164  1.00  0.00     0.043 A 
HETATM    3  C   UNL     1     -40.551  52.874 -52.243  1.00  0.00    -0.017 A 
HETATM    4  C   UNL     1     -40.075  52.183 -51.041  1.00  0.00     0.029 A 
HETATM    5  C   UNL     1     -39.552  50.956 -51.153  1.00  0.00     0.092 A 
HETATM    6  N   UNL     1     -39.447  50.332 -52.367  1.00  0.00    -0.333 N 
HETATM    7  C   UNL     1     -39.858  50.878 -53.563  1.00  0.00     0.256 A 
HETATM    8  O   UNL     1     -39.743  50.286 -54.628  1.00  0.00    -0.267 OA
HETATM    9  C   UNL     1     -40.452  52.237 -53.490  1.00  0.00     0.044 A 
HETATM   10  C   UNL     1     -40.912  52.860 -54.650  1.00  0.00     0.044 A 
HETATM   11  C   UNL     1     -41.477  54.129 -54.558  1.00  0.00     0.061 A 
HETATM   12 CL   UNL     1     -42.044  54.881 -56.012  1.00  0.00    -0.082 Cl
HETATM   13  H   UNL     1     -39.047  49.401 -52.428  1.00  0.00     0.168 HD
ENDROOT
BRANCH   1  14
HETATM   14  N   UNL     1     -42.181  56.081 -53.310  1.00  0.00    -0.325 N 
HETATM   15  C   UNL     1     -41.581  57.308 -53.456  1.00  0.00     0.226 C 
HETATM   16  O   UNL     1     -40.403  57.529 -53.737  1.00  0.00    -0.273 OA
HETATM   17  H   UNL     1     -43.194  56.057 -53.206  1.00  0.00     0.169 HD
BRANCH  15  18
HETATM   18  C   UNL     1     -42.571  58.471 -53.352  1.00  0.00     0.080 C 
HETATM   19  C   UNL     1     -41.826  59.794 -53.194  1.00  0.00     0.016 C 
HETATM   20  C   UNL     1     -41.494  59.881 -51.700  1.00  0.00     0.033 C 
HETATM   21  C   UNL     1     -42.527  59.006 -50.983  1.00  0.00     0.184 C 
HETATM   22  C   UNL     1     -43.418  58.415 -52.077  1.00  0.00     0.046 C 
BRANCH  21  23
HETATM   23  N   UNL     1     -41.837  57.910 -50.256  1.00  0.00    -0.075 N 
HETATM   24  H   UNL     1     -41.792  58.065 -49.242  1.00  0.00     0.274 HD
HETATM   25  H   UNL     1     -42.284  56.999 -50.417  1.00  0.00     0.274 HD
HETATM   26  H   UNL     1     -40.856  57.803 -50.594  1.00  0.00     0.274 HD
ENDBRANCH  21  23
ENDBRANCH  15  18
ENDBRANCH   1  14
TORSDOF 3
ENDMDL
MODEL 8
REMARK VINA RESULT:      -6.8      4.937      7.477
REMARK  3 active torsions:
REMARK  status: ('A' for Active; 'I' for Inactive)
REMARK    1  A    between atoms: N_1  and  C_5 
REMARK    2  A    between atoms: C_8  and  C_10 
REMARK       I    between atoms: C_10  and  N_12 
REMARK    3  A    between atoms: N_12  and  C_13 
ROOT
HETATM    1  C   UNL     1     -42.536  56.383 -56.728  1.00  0.00     0.057 A 
HETATM    2  C   UNL     1     -43.036  55.400 -57.590  1.00  0.00     0.043 A 
HETATM    3  C   UNL     1     -43.767  55.764 -58.733  1.00  0.00    -0.017 A 
HETATM    4  C   UNL     1     -44.315  54.746 -59.635  1.00  0.00     0.029 A 
HETATM    5  C   UNL     1     -45.013  55.130 -60.711  1.00  0.00     0.092 A 
HETATM    6  N   UNL     1     -45.223  56.454 -60.992  1.00  0.00    -0.333 N 
HETATM    7  C   UNL     1     -44.759  57.497 -60.222  1.00  0.00     0.256 A 
HETATM    8  O   UNL     1     -44.968  58.668 -60.511  1.00  0.00    -0.267 OA
HETATM    9  C   UNL     1     -43.985  57.122 -59.012  1.00  0.00     0.044 A 
HETATM   10  C   UNL     1     -43.492  58.115 -58.165  1.00  0.00     0.044 A 
HETATM   11  C   UNL     1     -42.778  57.742 -57.029  1.00  0.00     0.061 A 
HETATM   12 CL   UNL     1     -42.179  58.992 -55.991  1.00  0.00    -0.082 Cl
HETATM   13  H   UNL     1     -45.756  56.721 -61.813  1.00  0.00     0.168 HD
ENDROOT
BRANCH   1  14
HETATM   14  N   UNL     1     -41.813  56.088 -55.546  1.00  0.00    -0.325 N 
HETATM   15  C   UNL     1     -42.233  56.177 -54.241  1.00  0.00     0.226 C 
HETATM   16  O   UNL     1     -43.370  56.431 -53.843  1.00  0.00    -0.273 OA
HETATM   17  H   UNL     1     -40.872  55.741 -55.720  1.00  0.00     0.169 HD
BRANCH  15  18
HETATM   18  C   UNL     1     -41.140  55.802 -53.237  1.00  0.00     0.080 C 
HETATM   19  C   UNL     1     -40.529  54.449 -53.593  1.00  0.00     0.016 C 
HETATM   20  C   UNL     1     -41.494  53.416 -53.000  1.00  0.00     0.033 C 
HETATM   21  C   UNL     1     -42.228  54.124 -51.857  1.00  0.00     0.184 C 
HETATM   22  C   UNL     1     -41.689  55.556 -51.829  1.00  0.00     0.046 C 
BRANCH  21  23
HETATM   23  N   UNL     1     -43.686  54.146 -52.135  1.00  0.00    -0.075 N 
HETATM   24  H   UNL     1     -44.232  53.592 -51.464  1.00  0.00     0.274 HD
HETATM   25  H   UNL     1     -44.064  55.102 -52.139  1.00  0.00     0.274 HD
HETATM   26  H   UNL     1     -43.887  53.763 -53.084  1.00  0.00     0.274 HD
ENDBRANCH  21  23
ENDBRANCH  15  18
ENDBRANCH   1  14
TORSDOF 3
ENDMDL
MODEL 9
REMARK VINA RESULT:      -6.7      2.866      3.720
REMARK  3 active torsions:
REMARK  status: ('A' for Active; 'I' for Inactive)
REMARK    1  A    between atoms: N_1  and  C_5 
REMARK    2  A    between atoms: C_8  and  C_10 
REMARK       I    between atoms: C_10  and  N_12 
REMARK    3  A    between atoms: N_12  and  C_13 
ROOT
HETATM    1  C   UNL     1     -41.241  55.616 -53.468  1.00  0.00     0.057 A 
HETATM    2  C   UNL     1     -41.432  55.987 -52.131  1.00  0.00     0.043 A 
HETATM    3  C   UNL     1     -41.139  55.084 -51.096  1.00  0.00    -0.017 A 
HETATM    4  C   UNL     1     -41.352  55.448 -49.692  1.00  0.00     0.029 A 
HETATM    5  C   UNL     1     -41.070  54.559 -48.732  1.00  0.00     0.092 A 
HETATM    6  N   UNL     1     -40.579  53.316 -49.031  1.00  0.00    -0.333 N 
HETATM    7  C   UNL     1     -40.338  52.860 -50.308  1.00  0.00     0.256 A 
HETATM    8  O   UNL     1     -39.897  51.740 -50.532  1.00  0.00    -0.267 OA
HETATM    9  C   UNL     1     -40.644  53.808 -51.409  1.00  0.00     0.044 A 
HETATM   10  C   UNL     1     -40.446  53.423 -52.735  1.00  0.00     0.044 A 
HETATM   11  C   UNL     1     -40.750  54.323 -53.754  1.00  0.00     0.061 A 
HETATM   12 CL   UNL     1     -40.499  53.821 -55.392  1.00  0.00    -0.082 Cl
HETATM   13  H   UNL     1     -40.373  52.658 -48.287  1.00  0.00     0.168 HD
ENDROOT
BRANCH   1  14
HETATM   14  N   UNL     1     -41.539  56.466 -54.562  1.00  0.00    -0.325 N 
HETATM   15  C   UNL     1     -42.625  56.431 -55.401  1.00  0.00     0.226 C 
HETATM   16  O   UNL     1     -43.620  55.713 -55.299  1.00  0.00    -0.273 OA
HETATM   17  H   UNL     1     -40.853  57.205 -54.701  1.00  0.00     0.169 HD
BRANCH  15  18
HETATM   18  C   UNL     1     -42.568  57.503 -56.492  1.00  0.00     0.080 C 
HETATM   19  C   UNL     1     -42.362  58.884 -55.875  1.00  0.00     0.016 C 
HETATM   20  C   UNL     1     -43.762  59.332 -55.442  1.00  0.00     0.033 C 
HETATM   21  C   UNL     1     -44.749  58.561 -56.324  1.00  0.00     0.184 C 
HETATM   22  C   UNL     1     -43.900  57.668 -57.231  1.00  0.00     0.046 C 
BRANCH  21  23
HETATM   23  N   UNL     1     -45.627  57.717 -55.476  1.00  0.00    -0.075 N 
HETATM   24  H   UNL     1     -46.080  58.242 -54.718  1.00  0.00     0.274 HD
HETATM   25  H   UNL     1     -46.363  57.253 -56.023  1.00  0.00     0.274 HD
HETATM   26  H   UNL     1     -45.081  56.947 -55.032  1.00  0.00     0.274 HD
ENDBRANCH  21  23
ENDBRANCH  15  18
ENDBRANCH   1  14
TORSDOF 3
ENDMDL
MODEL 10
REMARK VINA RESULT:      -6.7      1.974      2.632
REMARK  3 active torsions:
REMARK  status: ('A' for Active; 'I' for Inactive)
REMARK    1  A    between atoms: N_1  and  C_5 
REMARK    2  A    between atoms: C_8  and  C_10 
REMARK       I    between atoms: C_10  and  N_12 
REMARK    3  A    between atoms: N_12  and  C_13 
ROOT
HETATM    1  C   UNL     1     -42.170  55.271 -52.436  1.00  0.00     0.057 A 
HETATM    2  C   UNL     1     -41.554  54.489 -51.451  1.00  0.00     0.043 A 
HETATM    3  C   UNL     1     -40.881  53.307 -51.801  1.00  0.00    -0.017 A 
HETATM    4  C   UNL     1     -40.248  52.467 -50.780  1.00  0.00     0.029 A 
HETATM    5  C   UNL     1     -39.622  51.343 -51.150  1.00  0.00     0.092 A 
HETATM    6  N   UNL     1     -39.553  50.962 -52.464  1.00  0.00    -0.333 N 
HETATM    7  C   UNL     1     -40.107  51.667 -53.510  1.00  0.00     0.256 A 
HETATM    8  O   UNL     1     -40.021  51.291 -54.671  1.00  0.00    -0.267 OA
HETATM    9  C   UNL     1     -40.820  52.918 -53.149  1.00  0.00     0.044 A 
HETATM   10  C   UNL     1     -41.427  53.686 -54.143  1.00  0.00     0.044 A 
HETATM   11  C   UNL     1     -42.101  54.850 -53.783  1.00  0.00     0.061 A 
HETATM   12 CL   UNL     1     -42.849  55.785 -55.035  1.00  0.00    -0.082 Cl
HETATM   13  H   UNL     1     -39.073  50.106 -52.720  1.00  0.00     0.168 HD
ENDROOT
BRANCH   1  14
HETATM   14  N   UNL     1     -42.887  56.459 -52.152  1.00  0.00    -0.325 N 
HETATM   15  C   UNL     1     -42.410  57.650 -51.662  1.00  0.00     0.226 C 
HETATM   16  O   UNL     1     -41.232  57.956 -51.473  1.00  0.00    -0.273 OA
HETATM   17  H   UNL     1     -43.878  56.401 -52.377  1.00  0.00     0.169 HD
BRANCH  15  18
HETATM   18  C   UNL     1     -43.511  58.692 -51.455  1.00  0.00     0.080 C 
HETATM   19  C   UNL     1     -44.617  58.516 -52.492  1.00  0.00     0.016 C 
HETATM   20  C   UNL     1     -44.101  59.239 -53.741  1.00  0.00     0.033 C 
HETATM   21  C   UNL     1     -43.093  60.281 -53.245  1.00  0.00     0.184 C 
HETATM   22  C   UNL     1     -43.031  60.122 -51.724  1.00  0.00     0.046 C 
BRANCH  21  23
HETATM   23  N   UNL     1     -41.757  60.005 -53.829  1.00  0.00    -0.075 N 
HETATM   24  H   UNL     1     -41.508  60.650 -54.589  1.00  0.00     0.274 HD
HETATM   25  H   UNL     1     -41.011  60.044 -53.124  1.00  0.00     0.274 HD
HETATM   26  H   UNL     1     -41.718  59.039 -54.222  1.00  0.00     0.274 HD
ENDBRANCH  21  23
ENDBRANCH  15  18
ENDBRANCH   1  14
TORSDOF 3
ENDMDL
