MODEL 1
REMARK VINA RESULT:      -8.9      0.000      0.000
REMARK  6 active torsions:
REMARK  status: ('A' for Active; 'I' for Inactive)
REMARK    1  A    between atoms: C_6  and  C_7 
REMARK    2  A    between atoms: C_7  and  N_8 
REMARK    3  A    between atoms: C_12  and  C_13 
REMARK    4  A    between atoms: C_13  and  C_14 
REMARK    5  A    between atoms: N_23  and  C_24 
REMARK    6  A    between atoms: C_24  and  C_25 
ROOT
HETATM    1  C   UNL     1     -43.721  59.167 -52.374  1.00  0.00     0.164 C 
HETATM    2  N   UNL     1     -44.798  58.404 -51.770  1.00  0.00    -0.319 N 
HETATM    3  C   UNL     1     -45.681  59.214 -51.087  1.00  0.00     0.326 C 
HETATM    4  O   UNL     1     -46.587  58.762 -50.411  1.00  0.00    -0.247 OA
HETATM    5  N   UNL     1     -45.347  60.512 -51.298  1.00  0.00    -0.265 N 
HETATM    6  C   UNL     1     -44.132  60.592 -51.924  1.00  0.00     0.263 C 
HETATM    7  O   UNL     1     -43.495  61.614 -52.127  1.00  0.00    -0.270 OA
HETATM    8  H   UNL     1     -44.686  57.460 -51.420  1.00  0.00     0.166 HD
ENDROOT
BRANCH   1   9
HETATM    9  C   UNL     1     -43.779  59.116 -53.956  1.00  0.00     0.033 C 
HETATM   10  C   UNL     1     -44.944  58.288 -54.552  1.00  0.00     0.036 C 
HETATM   11  C   UNL     1     -44.767  56.774 -54.465  1.00  0.00     0.235 C 
HETATM   12  N   UNL     1     -43.463  56.367 -55.113  1.00  0.00    -0.067 N 
HETATM   13  H   UNL     1     -43.569  56.556 -56.116  1.00  0.00     0.280 HD
HETATM   14  C   UNL     1     -42.267  57.141 -54.617  1.00  0.00     0.235 C 
HETATM   15  C   UNL     1     -42.502  58.638 -54.680  1.00  0.00     0.036 C 
BRANCH  12  16
HETATM   16  C   UNL     1     -43.165  54.875 -54.991  1.00  0.00     0.273 C 
BRANCH  16  17
HETATM   17  C   UNL     1     -42.455  54.427 -53.739  1.00  0.00    -0.027 A 
HETATM   18  C   UNL     1     -41.087  54.070 -53.749  1.00  0.00    -0.054 A 
HETATM   19  C   UNL     1     -40.476  53.651 -52.556  1.00  0.00     0.014 A 
HETATM   20  C   UNL     1     -40.247  54.105 -55.001  1.00  0.00     0.049 C 
HETATM   21  C   UNL     1     -41.197  53.563 -51.361  1.00  0.00    -0.061 A 
HETATM   22  C   UNL     1     -40.505  53.131 -50.100  1.00  0.00     0.048 C 
HETATM   23  C   UNL     1     -42.546  53.916 -51.357  1.00  0.00     0.007 A 
HETATM   24  C   UNL     1     -43.173  54.332 -52.533  1.00  0.00     0.010 A 
ENDBRANCH  16  17
ENDBRANCH  12  16
ENDBRANCH   1   9
BRANCH   1  25
HETATM   25  C   UNL     1     -42.377  58.792 -51.740  1.00  0.00     0.072 A 
HETATM   26  N   UNL     1     -41.342  59.656 -51.884  1.00  0.00    -0.262 NA
HETATM   27  C   UNL     1     -40.144  59.314 -51.352  1.00  0.00     0.117 A 
HETATM   28  C   UNL     1     -39.906  58.122 -50.696  1.00  0.00     0.019 A 
HETATM   29  C   UNL     1     -40.958  57.228 -50.569  1.00  0.00     0.003 A 
HETATM   30  C   UNL     1     -42.205  57.561 -51.094  1.00  0.00     0.030 A 
ENDBRANCH   1  25
BRANCH   5  31
HETATM   31  C   UNL     1     -46.095  61.652 -50.788  1.00  0.00     0.168 C 
BRANCH  31  32
HETATM   32  C   UNL     1     -45.702  62.003 -49.349  1.00  0.00     0.140 C 
HETATM   33  O   UNL     1     -46.796  61.755 -48.436  1.00  0.00    -0.384 OA
HETATM   34  C   UNL     1     -46.221  61.426 -47.155  1.00  0.00     0.168 C 
HETATM   35  C   UNL     1     -44.713  61.385 -47.326  1.00  0.00     0.029 C 
HETATM   36  C   UNL     1     -44.553  61.172 -48.811  1.00  0.00     0.036 C 
ENDBRANCH  31  32
ENDBRANCH   5  31
TORSDOF 6
ENDMDL
MODEL 2
REMARK VINA RESULT:      -8.5      2.751      4.900
REMARK  6 active torsions:
REMARK  status: ('A' for Active; 'I' for Inactive)
REMARK    1  A    between atoms: C_6  and  C_7 
REMARK    2  A    between atoms: C_7  and  N_8 
REMARK    3  A    between atoms: C_12  and  C_13 
REMARK    4  A    between atoms: C_13  and  C_14 
REMARK    5  A    between atoms: N_23  and  C_24 
REMARK    6  A    between atoms: C_24  and  C_25 
ROOT
HETATM    1  C   UNL     1     -43.297  58.323 -56.255  1.00  0.00     0.164 C 
HETATM    2  N   UNL     1     -42.021  58.534 -55.595  1.00  0.00    -0.319 N 
HETATM    3  C   UNL     1     -42.105  59.498 -54.612  1.00  0.00     0.326 C 
HETATM    4  O   UNL     1     -41.124  59.909 -54.020  1.00  0.00    -0.247 OA
HETATM    5  N   UNL     1     -43.402  59.869 -54.463  1.00  0.00    -0.265 N 
HETATM    6  C   UNL     1     -44.162  59.343 -55.473  1.00  0.00     0.263 C 
HETATM    7  O   UNL     1     -45.335  59.603 -55.700  1.00  0.00    -0.270 OA
HETATM    8  H   UNL     1     -41.127  58.443 -56.064  1.00  0.00     0.166 HD
ENDROOT
BRANCH   1   9
HETATM    9  C   UNL     1     -43.871  56.874 -55.974  1.00  0.00     0.033 C 
HETATM   10  C   UNL     1     -44.186  56.559 -54.491  1.00  0.00     0.036 C 
HETATM   11  C   UNL     1     -42.963  56.292 -53.617  1.00  0.00     0.235 C 
HETATM   12  N   UNL     1     -42.133  55.178 -54.214  1.00  0.00    -0.067 N 
HETATM   13  H   UNL     1     -42.697  54.324 -54.134  1.00  0.00     0.280 HD
HETATM   14  C   UNL     1     -41.797  55.380 -55.670  1.00  0.00     0.235 C 
HETATM   15  C   UNL     1     -43.034  55.685 -56.494  1.00  0.00     0.036 C 
BRANCH  12  16
HETATM   16  C   UNL     1     -40.841  54.908 -53.447  1.00  0.00     0.273 C 
BRANCH  16  17
HETATM   17  C   UNL     1     -40.472  53.463 -53.230  1.00  0.00    -0.027 A 
HETATM   18  C   UNL     1     -40.139  52.967 -51.949  1.00  0.00    -0.054 A 
HETATM   19  C   UNL     1     -39.795  51.613 -51.802  1.00  0.00     0.014 A 
HETATM   20  C   UNL     1     -40.121  53.839 -50.718  1.00  0.00     0.049 C 
HETATM   21  C   UNL     1     -39.758  50.749 -52.901  1.00  0.00    -0.061 A 
HETATM   22  C   UNL     1     -39.406  49.302 -52.704  1.00  0.00     0.048 C 
HETATM   23  C   UNL     1     -40.087  51.243 -54.163  1.00  0.00     0.007 A 
HETATM   24  C   UNL     1     -40.429  52.587 -54.330  1.00  0.00     0.010 A 
ENDBRANCH  16  17
ENDBRANCH  12  16
ENDBRANCH   1   9
BRANCH   1  25
HETATM   25  C   UNL     1     -43.214  58.737 -57.728  1.00  0.00     0.072 A 
HETATM   26  N   UNL     1     -44.170  58.280 -58.573  1.00  0.00    -0.262 NA
HETATM   27  C   UNL     1     -44.082  58.619 -59.882  1.00  0.00     0.117 A 
HETATM   28  C   UNL     1     -43.058  59.378 -60.413  1.00  0.00     0.019 A 
HETATM   29  C   UNL     1     -42.067  59.825 -59.554  1.00  0.00     0.003 A 
HETATM   30  C   UNL     1     -42.141  59.504 -58.200  1.00  0.00     0.030 A 
ENDBRANCH   1  25
BRANCH   5  31
HETATM   31  C   UNL     1     -43.882  60.819 -53.470  1.00  0.00     0.168 C 
BRANCH  31  32
HETATM   32  C   UNL     1     -44.117  60.159 -52.107  1.00  0.00     0.140 C 
HETATM   33  O   UNL     1     -44.439  61.146 -51.100  1.00  0.00    -0.384 OA
HETATM   34  C   UNL     1     -45.284  60.505 -50.123  1.00  0.00     0.168 C 
HETATM   35  C   UNL     1     -45.559  59.094 -50.610  1.00  0.00     0.029 C 
HETATM   36  C   UNL     1     -45.289  59.195 -52.091  1.00  0.00     0.036 C 
ENDBRANCH  31  32
ENDBRANCH   5  31
TORSDOF 6
ENDMDL
MODEL 3
REMARK VINA RESULT:      -8.4      2.537      5.504
REMARK  6 active torsions:
REMARK  status: ('A' for Active; 'I' for Inactive)
REMARK    1  A    between atoms: C_6  and  C_7 
REMARK    2  A    between atoms: C_7  and  N_8 
REMARK    3  A    between atoms: C_12  and  C_13 
REMARK    4  A    between atoms: C_13  and  C_14 
REMARK    5  A    between atoms: N_23  and  C_24 
REMARK    6  A    between atoms: C_24  and  C_25 
ROOT
HETATM    1  C   UNL     1     -42.972  59.439 -52.406  1.00  0.00     0.164 C 
HETATM    2  N   UNL     1     -43.920  58.381 -52.701  1.00  0.00    -0.319 N 
HETATM    3  C   UNL     1     -44.359  58.434 -54.008  1.00  0.00     0.326 C 
HETATM    4  O   UNL     1     -45.245  57.710 -54.425  1.00  0.00    -0.247 OA
HETATM    5  N   UNL     1     -43.664  59.392 -54.671  1.00  0.00    -0.265 N 
HETATM    6  C   UNL     1     -42.925  60.135 -53.789  1.00  0.00     0.263 C 
HETATM    7  O   UNL     1     -42.303  61.153 -54.054  1.00  0.00    -0.270 OA
HETATM    8  H   UNL     1     -44.571  58.007 -52.020  1.00  0.00     0.166 HD
ENDROOT
BRANCH   1   9
HETATM    9  C   UNL     1     -41.529  58.866 -52.094  1.00  0.00     0.033 C 
HETATM   10  C   UNL     1     -40.929  57.946 -53.186  1.00  0.00     0.036 C 
HETATM   11  C   UNL     1     -41.524  56.541 -53.240  1.00  0.00     0.235 C 
HETATM   12  N   UNL     1     -41.407  55.877 -51.886  1.00  0.00    -0.067 N 
HETATM   13  H   UNL     1     -40.405  55.725 -51.725  1.00  0.00     0.280 HD
HETATM   14  C   UNL     1     -41.942  56.712 -50.749  1.00  0.00     0.235 C 
HETATM   15  C   UNL     1     -41.358  58.112 -50.759  1.00  0.00     0.036 C 
BRANCH  12  16
HETATM   16  C   UNL     1     -42.060  54.498 -51.829  1.00  0.00     0.273 C 
BRANCH  16  17
HETATM   17  C   UNL     1     -41.295  53.360 -52.453  1.00  0.00    -0.027 A 
HETATM   18  C   UNL     1     -40.350  52.610 -51.716  1.00  0.00    -0.054 A 
HETATM   19  C   UNL     1     -39.657  51.564 -52.348  1.00  0.00     0.014 A 
HETATM   20  C   UNL     1     -40.036  52.894 -50.268  1.00  0.00     0.049 C 
HETATM   21  C   UNL     1     -39.870  51.260 -53.696  1.00  0.00    -0.061 A 
HETATM   22  C   UNL     1     -39.126  50.122 -54.333  1.00  0.00     0.048 C 
HETATM   23  C   UNL     1     -40.803  52.003 -54.418  1.00  0.00     0.007 A 
HETATM   24  C   UNL     1     -41.500  53.049 -53.809  1.00  0.00     0.010 A 
ENDBRANCH  16  17
ENDBRANCH  12  16
ENDBRANCH   1   9
BRANCH   1  25
HETATM   25  C   UNL     1     -43.551  60.402 -51.363  1.00  0.00     0.072 A 
HETATM   26  N   UNL     1     -44.814  60.179 -50.924  1.00  0.00    -0.262 NA
HETATM   27  C   UNL     1     -45.341  61.046 -50.026  1.00  0.00     0.117 A 
HETATM   28  C   UNL     1     -44.679  62.162 -49.554  1.00  0.00     0.019 A 
HETATM   29  C   UNL     1     -43.396  62.403 -50.021  1.00  0.00     0.003 A 
HETATM   30  C   UNL     1     -42.824  61.519 -50.933  1.00  0.00     0.030 A 
ENDBRANCH   1  25
BRANCH   5  31
HETATM   31  C   UNL     1     -43.810  59.688 -56.089  1.00  0.00     0.168 C 
BRANCH  31  32
HETATM   32  C   UNL     1     -42.929  58.787 -56.960  1.00  0.00     0.140 C 
HETATM   33  O   UNL     1     -43.691  57.687 -57.509  1.00  0.00    -0.384 OA
HETATM   34  C   UNL     1     -43.085  57.328 -58.768  1.00  0.00     0.168 C 
HETATM   35  C   UNL     1     -41.964  58.315 -59.034  1.00  0.00     0.029 C 
HETATM   36  C   UNL     1     -42.343  59.492 -58.170  1.00  0.00     0.036 C 
ENDBRANCH  31  32
ENDBRANCH   5  31
TORSDOF 6
ENDMDL
MODEL 4
REMARK VINA RESULT:      -8.3      1.208      2.057
REMARK  6 active torsions:
REMARK  status: ('A' for Active; 'I' for Inactive)
REMARK    1  A    between atoms: C_6  and  C_7 
REMARK    2  A    between atoms: C_7  and  N_8 
REMARK    3  A    between atoms: C_12  and  C_13 
REMARK    4  A    between atoms: C_13  and  C_14 
REMARK    5  A    between atoms: N_23  and  C_24 
REMARK    6  A    between atoms: C_24  and  C_25 
ROOT
HETATM    1  C   UNL     1     -43.680  59.179 -52.383  1.00  0.00     0.164 C 
HETATM    2  N   UNL     1     -44.770  58.435 -51.778  1.00  0.00    -0.319 N 
HETATM    3  C   UNL     1     -45.640  59.261 -51.096  1.00  0.00     0.326 C 
HETATM    4  O   UNL     1     -46.554  58.825 -50.420  1.00  0.00    -0.247 OA
HETATM    5  N   UNL     1     -45.285  60.553 -51.309  1.00  0.00    -0.265 N 
HETATM    6  C   UNL     1     -44.068  60.611 -51.934  1.00  0.00     0.263 C 
HETATM    7  O   UNL     1     -43.414  61.623 -52.139  1.00  0.00    -0.270 OA
HETATM    8  H   UNL     1     -44.674  57.489 -51.426  1.00  0.00     0.166 HD
ENDROOT
BRANCH   1   9
HETATM    9  C   UNL     1     -43.738  59.126 -53.964  1.00  0.00     0.033 C 
HETATM   10  C   UNL     1     -44.910  58.308 -54.560  1.00  0.00     0.036 C 
HETATM   11  C   UNL     1     -44.745  56.792 -54.471  1.00  0.00     0.235 C 
HETATM   12  N   UNL     1     -43.445  56.374 -55.118  1.00  0.00    -0.067 N 
HETATM   13  H   UNL     1     -43.548  56.562 -56.122  1.00  0.00     0.280 HD
HETATM   14  C   UNL     1     -42.243  57.139 -54.622  1.00  0.00     0.235 C 
HETATM   15  C   UNL     1     -42.465  58.637 -54.688  1.00  0.00     0.036 C 
BRANCH  12  16
HETATM   16  C   UNL     1     -43.159  54.880 -54.994  1.00  0.00     0.273 C 
BRANCH  16  17
HETATM   17  C   UNL     1     -42.454  54.427 -53.741  1.00  0.00    -0.027 A 
HETATM   18  C   UNL     1     -41.081  54.090 -53.742  1.00  0.00    -0.054 A 
HETATM   19  C   UNL     1     -40.475  53.666 -52.548  1.00  0.00     0.014 A 
HETATM   20  C   UNL     1     -40.230  54.151 -54.986  1.00  0.00     0.049 C 
HETATM   21  C   UNL     1     -41.205  53.554 -51.362  1.00  0.00    -0.061 A 
HETATM   22  C   UNL     1     -40.519  53.117 -50.099  1.00  0.00     0.048 C 
HETATM   23  C   UNL     1     -42.559  53.887 -51.365  1.00  0.00     0.007 A 
HETATM   24  C   UNL     1     -43.181  54.308 -52.543  1.00  0.00     0.010 A 
ENDBRANCH  16  17
ENDBRANCH  12  16
ENDBRANCH   1   9
BRANCH   1  25
HETATM   25  C   UNL     1     -42.343  58.783 -51.747  1.00  0.00     0.072 A 
HETATM   26  N   UNL     1     -41.294  59.629 -51.892  1.00  0.00    -0.262 NA
HETATM   27  C   UNL     1     -40.102  59.268 -51.358  1.00  0.00     0.117 A 
HETATM   28  C   UNL     1     -39.885  58.073 -50.700  1.00  0.00     0.019 A 
HETATM   29  C   UNL     1     -40.951  57.197 -50.573  1.00  0.00     0.003 A 
HETATM   30  C   UNL     1     -42.192  57.550 -51.099  1.00  0.00     0.030 A 
ENDBRANCH   1  25
BRANCH   5  31
HETATM   31  C   UNL     1     -46.014  61.706 -50.802  1.00  0.00     0.168 C 
BRANCH  31  32
HETATM   32  C   UNL     1     -47.164  62.116 -51.729  1.00  0.00     0.140 C 
HETATM   33  O   UNL     1     -47.435  63.532 -51.625  1.00  0.00    -0.384 OA
HETATM   34  C   UNL     1     -47.953  63.966 -52.900  1.00  0.00     0.168 C 
HETATM   35  C   UNL     1     -47.905  62.777 -53.842  1.00  0.00     0.029 C 
HETATM   36  C   UNL     1     -46.873  61.884 -53.200  1.00  0.00     0.036 C 
ENDBRANCH  31  32
ENDBRANCH   5  31
TORSDOF 6
ENDMDL
MODEL 5
REMARK VINA RESULT:      -8.2     18.227     21.343
REMARK  6 active torsions:
REMARK  status: ('A' for Active; 'I' for Inactive)
REMARK    1  A    between atoms: C_6  and  C_7 
REMARK    2  A    between atoms: C_7  and  N_8 
REMARK    3  A    between atoms: C_12  and  C_13 
REMARK    4  A    between atoms: C_13  and  C_14 
REMARK    5  A    between atoms: N_23  and  C_24 
REMARK    6  A    between atoms: C_24  and  C_25 
ROOT
HETATM    1  C   UNL     1     -35.790  39.462 -57.210  1.00  0.00     0.164 C 
HETATM    2  N   UNL     1     -36.466  39.164 -55.960  1.00  0.00    -0.319 N 
HETATM    3  C   UNL     1     -35.891  38.094 -55.308  1.00  0.00     0.326 C 
HETATM    4  O   UNL     1     -36.378  37.608 -54.303  1.00  0.00    -0.247 OA
HETATM    5  N   UNL     1     -34.768  37.720 -55.971  1.00  0.00    -0.265 N 
HETATM    6  C   UNL     1     -34.695  38.366 -57.176  1.00  0.00     0.263 C 
HETATM    7  O   UNL     1     -33.882  38.145 -58.061  1.00  0.00    -0.270 OA
HETATM    8  H   UNL     1     -37.460  39.301 -55.816  1.00  0.00     0.166 HD
ENDROOT
BRANCH   1   9
HETATM    9  C   UNL     1     -35.074  40.874 -57.168  1.00  0.00     0.033 C 
HETATM   10  C   UNL     1     -33.917  41.003 -56.147  1.00  0.00     0.036 C 
HETATM   11  C   UNL     1     -34.356  41.134 -54.691  1.00  0.00     0.235 C 
HETATM   12  N   UNL     1     -35.308  42.299 -54.539  1.00  0.00    -0.067 N 
HETATM   13  H   UNL     1     -34.757  43.146 -54.718  1.00  0.00     0.280 HD
HETATM   14  C   UNL     1     -36.459  42.277 -55.514  1.00  0.00     0.235 C 
HETATM   15  C   UNL     1     -35.980  42.103 -56.943  1.00  0.00     0.036 C 
BRANCH  12  16
HETATM   16  C   UNL     1     -35.867  42.445 -53.126  1.00  0.00     0.273 C 
BRANCH  16  17
HETATM   17  C   UNL     1     -35.383  41.453 -52.101  1.00  0.00    -0.027 A 
HETATM   18  C   UNL     1     -36.170  40.344 -51.712  1.00  0.00    -0.054 A 
HETATM   19  C   UNL     1     -35.676  39.453 -50.745  1.00  0.00     0.014 A 
HETATM   20  C   UNL     1     -37.541  40.080 -52.284  1.00  0.00     0.049 C 
HETATM   21  C   UNL     1     -34.428  39.649 -50.146  1.00  0.00    -0.061 A 
HETATM   22  C   UNL     1     -33.922  38.665 -49.131  1.00  0.00     0.048 C 
HETATM   23  C   UNL     1     -33.655  40.744 -50.533  1.00  0.00     0.007 A 
HETATM   24  C   UNL     1     -34.130  41.643 -51.490  1.00  0.00     0.010 A 
ENDBRANCH  16  17
ENDBRANCH  12  16
ENDBRANCH   1   9
BRANCH   1  25
HETATM   25  C   UNL     1     -36.727  39.220 -58.398  1.00  0.00     0.072 A 
HETATM   26  N   UNL     1     -36.419  39.806 -59.581  1.00  0.00    -0.262 NA
HETATM   27  C   UNL     1     -37.262  39.620 -60.625  1.00  0.00     0.117 A 
HETATM   28  C   UNL     1     -38.433  38.893 -60.548  1.00  0.00     0.019 A 
HETATM   29  C   UNL     1     -38.761  38.314 -59.332  1.00  0.00     0.003 A 
HETATM   30  C   UNL     1     -37.904  38.476 -58.246  1.00  0.00     0.030 A 
ENDBRANCH   1  25
BRANCH   5  31
HETATM   31  C   UNL     1     -33.863  36.666 -55.537  1.00  0.00     0.168 C 
BRANCH  31  32
HETATM   32  C   UNL     1     -32.706  37.210 -54.692  1.00  0.00     0.140 C 
HETATM   33  O   UNL     1     -31.903  38.145 -55.449  1.00  0.00    -0.384 OA
HETATM   34  C   UNL     1     -31.342  39.088 -54.512  1.00  0.00     0.168 C 
HETATM   35  C   UNL     1     -31.904  38.762 -53.141  1.00  0.00     0.029 C 
HETATM   36  C   UNL     1     -33.158  37.990 -53.470  1.00  0.00     0.036 C 
ENDBRANCH  31  32
ENDBRANCH   5  31
TORSDOF 6
ENDMDL
MODEL 6
REMARK VINA RESULT:      -8.1      1.512      2.248
REMARK  6 active torsions:
REMARK  status: ('A' for Active; 'I' for Inactive)
REMARK    1  A    between atoms: C_6  and  C_7 
REMARK    2  A    between atoms: C_7  and  N_8 
REMARK    3  A    between atoms: C_12  and  C_13 
REMARK    4  A    between atoms: C_13  and  C_14 
REMARK    5  A    between atoms: N_23  and  C_24 
REMARK    6  A    between atoms: C_24  and  C_25 
ROOT
HETATM    1  C   UNL     1     -43.275  59.118 -51.846  1.00  0.00     0.164 C 
HETATM    2  N   UNL     1     -44.704  58.981 -52.066  1.00  0.00    -0.319 N 
HETATM    3  C   UNL     1     -45.431  59.838 -51.267  1.00  0.00     0.326 C 
HETATM    4  O   UNL     1     -46.647  59.800 -51.212  1.00  0.00    -0.247 OA
HETATM    5  N   UNL     1     -44.579  60.658 -50.603  1.00  0.00    -0.265 N 
HETATM    6  C   UNL     1     -43.289  60.227 -50.764  1.00  0.00     0.263 C 
HETATM    7  O   UNL     1     -42.307  60.666 -50.182  1.00  0.00    -0.270 OA
HETATM    8  H   UNL     1     -45.150  58.105 -52.313  1.00  0.00     0.166 HD
ENDROOT
BRANCH   1   9
HETATM    9  C   UNL     1     -42.535  59.687 -53.124  1.00  0.00     0.033 C 
HETATM   10  C   UNL     1     -43.400  59.785 -54.405  1.00  0.00     0.036 C 
HETATM   11  C   UNL     1     -43.671  58.453 -55.100  1.00  0.00     0.235 C 
HETATM   12  N   UNL     1     -42.366  57.757 -55.413  1.00  0.00    -0.067 N 
HETATM   13  H   UNL     1     -41.899  58.328 -56.127  1.00  0.00     0.280 HD
HETATM   14  C   UNL     1     -41.438  57.639 -54.230  1.00  0.00     0.235 C 
HETATM   15  C   UNL     1     -41.231  58.976 -53.544  1.00  0.00     0.036 C 
BRANCH  12  16
HETATM   16  C   UNL     1     -42.549  56.373 -56.031  1.00  0.00     0.273 C 
BRANCH  16  17
HETATM   17  C   UNL     1     -41.918  55.217 -55.299  1.00  0.00    -0.027 A 
HETATM   18  C   UNL     1     -42.664  54.399 -54.419  1.00  0.00    -0.054 A 
HETATM   19  C   UNL     1     -42.025  53.339 -53.755  1.00  0.00     0.014 A 
HETATM   20  C   UNL     1     -44.130  54.626 -54.145  1.00  0.00     0.049 C 
HETATM   21  C   UNL     1     -40.662  53.085 -53.934  1.00  0.00    -0.061 A 
HETATM   22  C   UNL     1     -40.016  51.930 -53.224  1.00  0.00     0.048 C 
HETATM   23  C   UNL     1     -39.930  53.895 -54.803  1.00  0.00     0.007 A 
HETATM   24  C   UNL     1     -40.546  54.956 -55.469  1.00  0.00     0.010 A 
ENDBRANCH  16  17
ENDBRANCH  12  16
ENDBRANCH   1   9
BRANCH   1  25
HETATM   25  C   UNL     1     -42.697  57.827 -51.255  1.00  0.00     0.072 A 
HETATM   26  N   UNL     1     -41.444  57.868 -50.741  1.00  0.00    -0.262 NA
HETATM   27  C   UNL     1     -40.918  56.722 -50.246  1.00  0.00     0.117 A 
HETATM   28  C   UNL     1     -41.571  55.506 -50.263  1.00  0.00     0.019 A 
HETATM   29  C   UNL     1     -42.843  55.458 -50.812  1.00  0.00     0.003 A 
HETATM   30  C   UNL     1     -43.415  56.625 -51.313  1.00  0.00     0.030 A 
ENDBRANCH   1  25
BRANCH   5  31
HETATM   31  C   UNL     1     -44.990  61.738 -49.718  1.00  0.00     0.168 C 
BRANCH  31  32
HETATM   32  C   UNL     1     -45.533  61.215 -48.383  1.00  0.00     0.140 C 
HETATM   33  O   UNL     1     -44.477  61.094 -47.403  1.00  0.00    -0.384 OA
HETATM   34  C   UNL     1     -45.071  61.291 -46.103  1.00  0.00     0.168 C 
HETATM   35  C   UNL     1     -46.534  61.636 -46.315  1.00  0.00     0.029 C 
HETATM   36  C   UNL     1     -46.555  62.134 -47.739  1.00  0.00     0.036 C 
ENDBRANCH  31  32
ENDBRANCH   5  31
TORSDOF 6
ENDMDL
MODEL 7
REMARK VINA RESULT:      -8.0      1.902      3.641
REMARK  6 active torsions:
REMARK  status: ('A' for Active; 'I' for Inactive)
REMARK    1  A    between atoms: C_6  and  C_7 
REMARK    2  A    between atoms: C_7  and  N_8 
REMARK    3  A    between atoms: C_12  and  C_13 
REMARK    4  A    between atoms: C_13  and  C_14 
REMARK    5  A    between atoms: N_23  and  C_24 
REMARK    6  A    between atoms: C_24  and  C_25 
ROOT
HETATM    1  C   UNL     1     -44.403  59.847 -52.707  1.00  0.00     0.164 C 
HETATM    2  N   UNL     1     -43.165  60.164 -52.018  1.00  0.00    -0.319 N 
HETATM    3  C   UNL     1     -43.365  61.060 -50.989  1.00  0.00     0.326 C 
HETATM    4  O   UNL     1     -42.441  61.546 -50.362  1.00  0.00    -0.247 OA
HETATM    5  N   UNL     1     -44.696  61.279 -50.843  1.00  0.00    -0.265 N 
HETATM    6  C   UNL     1     -45.383  60.726 -51.890  1.00  0.00     0.263 C 
HETATM    7  O   UNL     1     -46.575  60.867 -52.121  1.00  0.00    -0.270 OA
HETATM    8  H   UNL     1     -42.262  60.195 -52.476  1.00  0.00     0.166 HD
ENDROOT
BRANCH   1   9
HETATM    9  C   UNL     1     -44.816  58.332 -52.508  1.00  0.00     0.033 C 
HETATM   10  C   UNL     1     -44.212  57.636 -51.264  1.00  0.00     0.036 C 
HETATM   11  C   UNL     1     -42.737  57.262 -51.390  1.00  0.00     0.235 C 
HETATM   12  N   UNL     1     -42.523  56.403 -52.616  1.00  0.00    -0.067 N 
HETATM   13  H   UNL     1     -42.998  55.512 -52.429  1.00  0.00     0.280 HD
HETATM   14  C   UNL     1     -43.105  56.986 -53.879  1.00  0.00     0.235 C 
HETATM   15  C   UNL     1     -44.558  57.382 -53.697  1.00  0.00     0.036 C 
BRANCH  12  16
HETATM   16  C   UNL     1     -41.057  56.058 -52.867  1.00  0.00     0.273 C 
BRANCH  16  17
HETATM   17  C   UNL     1     -40.742  54.614 -53.159  1.00  0.00    -0.027 A 
HETATM   18  C   UNL     1     -40.501  53.682 -52.123  1.00  0.00    -0.054 A 
HETATM   19  C   UNL     1     -40.203  52.350 -52.452  1.00  0.00     0.014 A 
HETATM   20  C   UNL     1     -40.536  54.062 -50.664  1.00  0.00     0.049 C 
HETATM   21  C   UNL     1     -40.122  51.929 -53.782  1.00  0.00    -0.061 A 
HETATM   22  C   UNL     1     -39.821  50.491 -54.096  1.00  0.00     0.048 C 
HETATM   23  C   UNL     1     -40.359  52.852 -54.801  1.00  0.00     0.007 A 
HETATM   24  C   UNL     1     -40.654  54.182 -54.495  1.00  0.00     0.010 A 
ENDBRANCH  16  17
ENDBRANCH  12  16
ENDBRANCH   1   9
BRANCH   1  25
HETATM   25  C   UNL     1     -44.351  60.344 -54.157  1.00  0.00     0.072 A 
HETATM   26  N   UNL     1     -45.498  60.324 -54.878  1.00  0.00    -0.262 NA
HETATM   27  C   UNL     1     -45.450  60.732 -56.169  1.00  0.00     0.117 A 
HETATM   28  C   UNL     1     -44.293  61.139 -56.804  1.00  0.00     0.019 A 
HETATM   29  C   UNL     1     -43.114  61.136 -56.074  1.00  0.00     0.003 A 
HETATM   30  C   UNL     1     -43.139  60.736 -54.739  1.00  0.00     0.030 A 
ENDBRANCH   1  25
BRANCH   5  31
HETATM   31  C   UNL     1     -45.288  62.119 -49.811  1.00  0.00     0.168 C 
BRANCH  31  32
HETATM   32  C   UNL     1     -45.643  61.322 -48.551  1.00  0.00     0.140 C 
HETATM   33  O   UNL     1     -44.479  61.125 -47.715  1.00  0.00    -0.384 OA
HETATM   34  C   UNL     1     -44.940  61.034 -46.351  1.00  0.00     0.168 C 
HETATM   35  C   UNL     1     -46.437  61.278 -46.356  1.00  0.00     0.029 C 
HETATM   36  C   UNL     1     -46.651  62.016 -47.654  1.00  0.00     0.036 C 
ENDBRANCH  31  32
ENDBRANCH   5  31
TORSDOF 6
ENDMDL
MODEL 8
REMARK VINA RESULT:      -7.8      3.010      5.963
REMARK  6 active torsions:
REMARK  status: ('A' for Active; 'I' for Inactive)
REMARK    1  A    between atoms: C_6  and  C_7 
REMARK    2  A    between atoms: C_7  and  N_8 
REMARK    3  A    between atoms: C_12  and  C_13 
REMARK    4  A    between atoms: C_13  and  C_14 
REMARK    5  A    between atoms: N_23  and  C_24 
REMARK    6  A    between atoms: C_24  and  C_25 
ROOT
HETATM    1  C   UNL     1     -42.978  59.512 -53.592  1.00  0.00     0.164 C 
HETATM    2  N   UNL     1     -44.035  58.517 -53.547  1.00  0.00    -0.319 N 
HETATM    3  C   UNL     1     -44.186  57.874 -54.758  1.00  0.00     0.326 C 
HETATM    4  O   UNL     1     -45.093  57.088 -54.967  1.00  0.00    -0.247 OA
HETATM    5  N   UNL     1     -43.201  58.274 -55.600  1.00  0.00    -0.265 N 
HETATM    6  C   UNL     1     -42.523  59.336 -55.063  1.00  0.00     0.263 C 
HETATM    7  O   UNL     1     -41.676  60.009 -55.631  1.00  0.00    -0.270 OA
HETATM    8  H   UNL     1     -44.868  58.612 -52.978  1.00  0.00     0.166 HD
ENDROOT
BRANCH   1   9
HETATM    9  C   UNL     1     -41.765  59.123 -52.652  1.00  0.00     0.033 C 
HETATM   10  C   UNL     1     -40.776  58.085 -53.236  1.00  0.00     0.036 C 
HETATM   11  C   UNL     1     -41.287  56.646 -53.246  1.00  0.00     0.235 C 
HETATM   12  N   UNL     1     -41.700  56.234 -51.852  1.00  0.00    -0.067 N 
HETATM   13  H   UNL     1     -40.839  56.197 -51.295  1.00  0.00     0.280 HD
HETATM   14  C   UNL     1     -42.645  57.201 -51.184  1.00  0.00     0.235 C 
HETATM   15  C   UNL     1     -42.120  58.624 -51.235  1.00  0.00     0.036 C 
BRANCH  12  16
HETATM   16  C   UNL     1     -42.308  54.835 -51.788  1.00  0.00     0.273 C 
BRANCH  16  17
HETATM   17  C   UNL     1     -41.525  53.726 -52.443  1.00  0.00    -0.027 A 
HETATM   18  C   UNL     1     -41.769  53.337 -53.781  1.00  0.00    -0.054 A 
HETATM   19  C   UNL     1     -41.016  52.291 -54.341  1.00  0.00     0.014 A 
HETATM   20  C   UNL     1     -42.823  53.989 -54.639  1.00  0.00     0.049 C 
HETATM   21  C   UNL     1     -40.043  51.616 -53.598  1.00  0.00    -0.061 A 
HETATM   22  C   UNL     1     -39.243  50.516 -54.236  1.00  0.00     0.048 C 
HETATM   23  C   UNL     1     -39.807  52.004 -52.279  1.00  0.00     0.007 A 
HETATM   24  C   UNL     1     -40.547  53.039 -51.703  1.00  0.00     0.010 A 
ENDBRANCH  16  17
ENDBRANCH  12  16
ENDBRANCH   1   9
BRANCH   1  25
HETATM   25  C   UNL     1     -43.557  60.917 -53.395  1.00  0.00     0.072 A 
HETATM   26  N   UNL     1     -44.781  61.180 -53.915  1.00  0.00    -0.262 NA
HETATM   27  C   UNL     1     -45.282  62.430 -53.770  1.00  0.00     0.117 A 
HETATM   28  C   UNL     1     -44.607  63.463 -53.150  1.00  0.00     0.019 A 
HETATM   29  C   UNL     1     -43.345  63.201 -52.639  1.00  0.00     0.003 A 
HETATM   30  C   UNL     1     -42.812  61.920 -52.761  1.00  0.00     0.030 A 
ENDBRANCH   1  25
BRANCH   5  31
HETATM   31  C   UNL     1     -43.001  57.756 -56.946  1.00  0.00     0.168 C 
BRANCH  31  32
HETATM   32  C   UNL     1     -43.908  58.446 -57.970  1.00  0.00     0.140 C 
HETATM   33  O   UNL     1     -43.129  59.094 -59.002  1.00  0.00    -0.384 OA
HETATM   34  C   UNL     1     -43.924  59.094 -60.206  1.00  0.00     0.168 C 
HETATM   35  C   UNL     1     -45.202  58.331 -59.911  1.00  0.00     0.029 C 
HETATM   36  C   UNL     1     -44.821  57.491 -58.717  1.00  0.00     0.036 C 
ENDBRANCH  31  32
ENDBRANCH   5  31
TORSDOF 6
ENDMDL
MODEL 9
REMARK VINA RESULT:      -7.8     18.640     21.650
REMARK  6 active torsions:
REMARK  status: ('A' for Active; 'I' for Inactive)
REMARK    1  A    between atoms: C_6  and  C_7 
REMARK    2  A    between atoms: C_7  and  N_8 
REMARK    3  A    between atoms: C_12  and  C_13 
REMARK    4  A    between atoms: C_13  and  C_14 
REMARK    5  A    between atoms: N_23  and  C_24 
REMARK    6  A    between atoms: C_24  and  C_25 
ROOT
HETATM    1  C   UNL     1     -33.662  38.766 -51.831  1.00  0.00     0.164 C 
HETATM    2  N   UNL     1     -33.456  40.038 -52.500  1.00  0.00    -0.319 N 
HETATM    3  C   UNL     1     -32.650  39.909 -53.612  1.00  0.00     0.326 C 
HETATM    4  O   UNL     1     -32.258  40.872 -54.245  1.00  0.00    -0.247 OA
HETATM    5  N   UNL     1     -32.396  38.594 -53.826  1.00  0.00    -0.265 N 
HETATM    6  C   UNL     1     -32.826  37.850 -52.759  1.00  0.00     0.263 C 
HETATM    7  O   UNL     1     -32.621  36.658 -52.585  1.00  0.00    -0.270 OA
HETATM    8  H   UNL     1     -33.417  40.926 -52.013  1.00  0.00     0.166 HD
ENDROOT
BRANCH   1   9
HETATM    9  C   UNL     1     -35.173  38.299 -51.909  1.00  0.00     0.033 C 
HETATM   10  C   UNL     1     -35.704  37.998 -53.332  1.00  0.00     0.036 C 
HETATM   11  C   UNL     1     -35.995  39.232 -54.183  1.00  0.00     0.235 C 
HETATM   12  N   UNL     1     -36.958  40.146 -53.458  1.00  0.00    -0.067 N 
HETATM   13  H   UNL     1     -37.853  39.646 -53.416  1.00  0.00     0.280 HD
HETATM   14  C   UNL     1     -36.540  40.475 -52.047  1.00  0.00     0.235 C 
HETATM   15  C   UNL     1     -36.219  39.224 -51.251  1.00  0.00     0.036 C 
BRANCH  12  16
HETATM   16  C   UNL     1     -37.233  41.449 -54.203  1.00  0.00     0.273 C 
BRANCH  16  17
HETATM   17  C   UNL     1     -37.224  41.384 -55.708  1.00  0.00    -0.027 A 
HETATM   18  C   UNL     1     -36.149  41.901 -56.467  1.00  0.00    -0.054 A 
HETATM   19  C   UNL     1     -36.194  41.823 -57.869  1.00  0.00     0.014 A 
HETATM   20  C   UNL     1     -34.947  42.556 -55.833  1.00  0.00     0.049 C 
HETATM   21  C   UNL     1     -37.289  41.258 -58.531  1.00  0.00    -0.061 A 
HETATM   22  C   UNL     1     -37.294  41.172 -60.030  1.00  0.00     0.048 C 
HETATM   23  C   UNL     1     -38.347  40.750 -57.778  1.00  0.00     0.007 A 
HETATM   24  C   UNL     1     -38.323  40.822 -56.383  1.00  0.00     0.010 A 
ENDBRANCH  16  17
ENDBRANCH  12  16
ENDBRANCH   1   9
BRANCH   1  25
HETATM   25  C   UNL     1     -33.039  38.790 -50.431  1.00  0.00     0.072 A 
HETATM   26  N   UNL     1     -33.319  37.764 -49.592  1.00  0.00    -0.262 NA
HETATM   27  C   UNL     1     -32.796  37.796 -48.343  1.00  0.00     0.117 A 
HETATM   28  C   UNL     1     -32.017  38.831 -47.863  1.00  0.00     0.019 A 
HETATM   29  C   UNL     1     -31.750  39.893 -48.713  1.00  0.00     0.003 A 
HETATM   30  C   UNL     1     -32.263  39.877 -50.008  1.00  0.00     0.030 A 
ENDBRANCH   1  25
BRANCH   5  31
HETATM   31  C   UNL     1     -31.632  38.070 -54.949  1.00  0.00     0.168 C 
BRANCH  31  32
HETATM   32  C   UNL     1     -32.523  37.757 -56.156  1.00  0.00     0.140 C 
HETATM   33  O   UNL     1     -33.491  36.732 -55.836  1.00  0.00    -0.384 OA
HETATM   34  C   UNL     1     -34.653  36.965 -56.659  1.00  0.00     0.168 C 
HETATM   35  C   UNL     1     -34.410  38.241 -57.444  1.00  0.00     0.029 C 
HETATM   36  C   UNL     1     -33.351  38.938 -56.626  1.00  0.00     0.036 C 
ENDBRANCH  31  32
ENDBRANCH   5  31
TORSDOF 6
ENDMDL
MODEL 10
REMARK VINA RESULT:      -7.8      2.467      7.613
REMARK  6 active torsions:
REMARK  status: ('A' for Active; 'I' for Inactive)
REMARK    1  A    between atoms: C_6  and  C_7 
REMARK    2  A    between atoms: C_7  and  N_8 
REMARK    3  A    between atoms: C_12  and  C_13 
REMARK    4  A    between atoms: C_13  and  C_14 
REMARK    5  A    between atoms: N_23  and  C_24 
REMARK    6  A    between atoms: C_24  and  C_25 
ROOT
HETATM    1  C   UNL     1     -41.977  56.623 -53.103  1.00  0.00     0.164 C 
HETATM    2  N   UNL     1     -41.215  57.789 -53.514  1.00  0.00    -0.319 N 
HETATM    3  C   UNL     1     -41.889  58.536 -54.456  1.00  0.00     0.326 C 
HETATM    4  O   UNL     1     -41.377  59.488 -55.018  1.00  0.00    -0.247 OA
HETATM    5  N   UNL     1     -43.135  58.025 -54.621  1.00  0.00    -0.265 N 
HETATM    6  C   UNL     1     -43.239  56.820 -53.979  1.00  0.00     0.263 C 
HETATM    7  O   UNL     1     -44.183  56.047 -54.052  1.00  0.00    -0.270 OA
HETATM    8  H   UNL     1     -40.203  57.807 -53.561  1.00  0.00     0.166 HD
ENDROOT
BRANCH   1   9
HETATM    9  C   UNL     1     -42.413  56.711 -51.584  1.00  0.00     0.033 C 
HETATM   10  C   UNL     1     -43.865  57.187 -51.335  1.00  0.00     0.036 C 
HETATM   11  C   UNL     1     -44.094  58.684 -51.534  1.00  0.00     0.235 C 
HETATM   12  N   UNL     1     -43.139  59.473 -50.667  1.00  0.00    -0.067 N 
HETATM   13  H   UNL     1     -43.419  59.298 -49.695  1.00  0.00     0.280 HD
HETATM   14  C   UNL     1     -41.695  59.061 -50.817  1.00  0.00     0.235 C 
HETATM   15  C   UNL     1     -41.520  57.563 -50.655  1.00  0.00     0.036 C 
BRANCH  12  16
HETATM   16  C   UNL     1     -43.240  60.983 -50.872  1.00  0.00     0.273 C 
BRANCH  16  17
HETATM   17  C   UNL     1     -43.809  61.784 -49.730  1.00  0.00    -0.027 A 
HETATM   18  C   UNL     1     -43.670  63.190 -49.670  1.00  0.00    -0.054 A 
HETATM   19  C   UNL     1     -44.212  63.889 -48.578  1.00  0.00     0.014 A 
HETATM   20  C   UNL     1     -42.944  63.982 -50.728  1.00  0.00     0.049 C 
HETATM   21  C   UNL     1     -44.872  63.222 -47.542  1.00  0.00    -0.061 A 
HETATM   22  C   UNL     1     -45.457  64.003 -46.401  1.00  0.00     0.048 C 
HETATM   23  C   UNL     1     -45.005  61.835 -47.606  1.00  0.00     0.007 A 
HETATM   24  C   UNL     1     -44.471  61.121 -48.681  1.00  0.00     0.010 A 
ENDBRANCH  16  17
ENDBRANCH  12  16
ENDBRANCH   1   9
BRANCH   1  25
HETATM   25  C   UNL     1     -41.254  55.337 -53.520  1.00  0.00     0.072 A 
HETATM   26  N   UNL     1     -40.793  55.250 -54.791  1.00  0.00    -0.262 NA
HETATM   27  C   UNL     1     -40.182  54.103 -55.173  1.00  0.00     0.117 A 
HETATM   28  C   UNL     1     -40.028  53.003 -54.352  1.00  0.00     0.019 A 
HETATM   29  C   UNL     1     -40.523  53.082 -53.059  1.00  0.00     0.003 A 
HETATM   30  C   UNL     1     -41.141  54.256 -52.636  1.00  0.00     0.030 A 
ENDBRANCH   1  25
BRANCH   5  31
HETATM   31  C   UNL     1     -44.156  58.595 -55.488  1.00  0.00     0.168 C 
BRANCH  31  32
HETATM   32  C   UNL     1     -43.922  58.247 -56.962  1.00  0.00     0.140 C 
HETATM   33  O   UNL     1     -43.001  59.177 -57.577  1.00  0.00    -0.384 OA
HETATM   34  C   UNL     1     -42.308  58.467 -58.625  1.00  0.00     0.168 C 
HETATM   35  C   UNL     1     -42.767  57.022 -58.580  1.00  0.00     0.029 C 
HETATM   36  C   UNL     1     -43.292  56.882 -57.173  1.00  0.00     0.036 C 
ENDBRANCH  31  32
ENDBRANCH   5  31
TORSDOF 6
ENDMDL
