MODEL 1
REMARK VINA RESULT:      -9.0      0.000      0.000
REMARK  8 active torsions:
REMARK  status: ('A' for Active; 'I' for Inactive)
REMARK    1  A    between atoms: C_4  and  C_5 
REMARK    2  A    between atoms: C_5  and  N_6 
REMARK    3  A    between atoms: N_10  and  C_12 
REMARK    4  A    between atoms: C_12  and  C_13 
REMARK       I    between atoms: C_13  and  N_14 
REMARK    5  A    between atoms: N_14  and  C_15 
REMARK    6  A    between atoms: C_17  and  S_18 
REMARK    7  A    between atoms: S_18  and  C_19 
REMARK    8  A    between atoms: C_22  and  N_23 
ROOT
HETATM    1  C   UNL     1     -41.326  58.912 -52.012  1.00  0.00     0.249 C 
HETATM    2  N   UNL     1     -42.630  58.833 -52.423  1.00  0.00    -0.304 N 
HETATM    3  O   UNL     1     -40.394  59.555 -52.497  1.00  0.00    -0.271 OA
HETATM    4  H   UNL     1     -43.344  58.308 -51.935  1.00  0.00     0.171 HD
ENDROOT
BRANCH   2   5
HETATM    5  C   UNL     1     -43.044  59.401 -53.599  1.00  0.00     0.174 A 
HETATM    6  S   UNL     1     -42.166  58.889 -54.964  1.00  0.00    -0.038 SA
HETATM    7  C   UNL     1     -43.047  60.002 -55.924  1.00  0.00     0.125 A 
HETATM    8  C   UNL     1     -43.973  60.651 -55.133  1.00  0.00     0.151 A 
HETATM    9  N   UNL     1     -43.982  60.285 -53.795  1.00  0.00    -0.234 NA
BRANCH   7  10
HETATM   10  S   UNL     1     -42.628  60.157 -57.633  1.00  0.00     0.214 S 
HETATM   11  O   UNL     1     -43.474  61.234 -58.105  1.00  0.00    -0.217 OA
HETATM   12  O   UNL     1     -41.184  60.222 -57.705  1.00  0.00    -0.217 OA
BRANCH  10  13
HETATM   13  C   UNL     1     -43.165  58.647 -58.394  1.00  0.00     0.065 A 
HETATM   14  C   UNL     1     -44.529  58.337 -58.426  1.00  0.00     0.026 A 
HETATM   15  C   UNL     1     -44.958  57.161 -59.047  1.00  0.00     0.037 A 
HETATM   16  C   UNL     1     -44.018  56.309 -59.645  1.00  0.00     0.102 A 
HETATM   17  C   UNL     1     -42.652  56.632 -59.632  1.00  0.00     0.037 A 
HETATM   18  C   UNL     1     -42.224  57.809 -59.008  1.00  0.00     0.026 A 
BRANCH  16  19
HETATM   19  N   UNL     1     -44.465  55.063 -60.284  1.00  0.00    -0.116 N 
HETATM   20  O   UNL     1     -44.567  54.058 -59.570  1.00  0.00    -0.532 OA
HETATM   21  O   UNL     1     -44.684  55.093 -61.503  1.00  0.00    -0.532 OA
ENDBRANCH  16  19
ENDBRANCH  10  13
ENDBRANCH   7  10
ENDBRANCH   2   5
BRANCH   1  22
HETATM   22  C   UNL     1     -40.994  58.080 -50.771  1.00  0.00     0.337 C 
BRANCH  22  23
HETATM   23  N   UNL     1     -41.596  56.655 -50.929  1.00  0.00    -0.060 N 
HETATM   24  C   UNL     1     -41.297  56.060 -52.306  1.00  0.00     0.263 C 
HETATM   25  C   UNL     1     -41.927  54.657 -52.453  1.00  0.00     0.263 C 
HETATM   26  N   UNL     1     -41.508  53.729 -51.313  1.00  0.00    -0.064 N 
HETATM   27  H   UNL     1     -42.081  52.878 -51.429  1.00  0.00     0.280 HD
HETATM   28  C   UNL     1     -41.869  54.320 -49.955  1.00  0.00     0.263 C 
HETATM   29  C   UNL     1     -41.274  55.742 -49.762  1.00  0.00     0.263 C 
HETATM   30  H   UNL     1     -42.619  56.864 -50.927  1.00  0.00     0.280 HD
BRANCH  26  31
HETATM   31  C   UNL     1     -40.075  53.209 -51.372  1.00  0.00     0.273 C 
BRANCH  31  32
HETATM   32  C   UNL     1     -39.910  51.967 -52.196  1.00  0.00    -0.033 A 
HETATM   33  C   UNL     1     -40.006  52.024 -53.597  1.00  0.00     0.009 A 
HETATM   34  C   UNL     1     -39.873  50.867 -54.363  1.00  0.00     0.001 A 
HETATM   35  C   UNL     1     -39.639  49.643 -53.742  1.00  0.00     0.000 A 
HETATM   36  C   UNL     1     -39.529  49.574 -52.356  1.00  0.00     0.001 A 
HETATM   37  C   UNL     1     -39.659  50.728 -51.583  1.00  0.00     0.009 A 
ENDBRANCH  31  32
ENDBRANCH  26  31
ENDBRANCH  22  23
ENDBRANCH   1  22
TORSDOF 8
ENDMDL
MODEL 2
REMARK VINA RESULT:      -8.9      1.193      1.712
REMARK  8 active torsions:
REMARK  status: ('A' for Active; 'I' for Inactive)
REMARK    1  A    between atoms: C_4  and  C_5 
REMARK    2  A    between atoms: C_5  and  N_6 
REMARK    3  A    between atoms: N_10  and  C_12 
REMARK    4  A    between atoms: C_12  and  C_13 
REMARK       I    between atoms: C_13  and  N_14 
REMARK    5  A    between atoms: N_14  and  C_15 
REMARK    6  A    between atoms: C_17  and  S_18 
REMARK    7  A    between atoms: S_18  and  C_19 
REMARK    8  A    between atoms: C_22  and  N_23 
ROOT
HETATM    1  C   UNL     1     -42.219  59.216 -53.065  1.00  0.00     0.249 C 
HETATM    2  N   UNL     1     -43.403  59.285 -53.748  1.00  0.00    -0.304 N 
HETATM    3  O   UNL     1     -41.164  59.818 -53.272  1.00  0.00    -0.271 OA
HETATM    4  H   UNL     1     -44.238  58.780 -53.479  1.00  0.00     0.171 HD
ENDROOT
BRANCH   2   5
HETATM    5  C   UNL     1     -43.514  59.988 -54.919  1.00  0.00     0.174 A 
HETATM    6  S   UNL     1     -43.065  59.107 -56.303  1.00  0.00    -0.038 SA
HETATM    7  C   UNL     1     -43.294  60.516 -57.251  1.00  0.00     0.125 A 
HETATM    8  C   UNL     1     -43.736  61.542 -56.440  1.00  0.00     0.151 A 
HETATM    9  N   UNL     1     -43.882  61.226 -55.097  1.00  0.00    -0.234 NA
BRANCH   7  10
HETATM   10  S   UNL     1     -42.915  60.444 -58.975  1.00  0.00     0.214 S 
HETATM   11  O   UNL     1     -43.789  61.434 -59.568  1.00  0.00    -0.217 OA
HETATM   12  O   UNL     1     -41.473  60.519 -59.088  1.00  0.00    -0.217 OA
BRANCH  10  13
HETATM   13  C   UNL     1     -43.442  58.836 -59.512  1.00  0.00     0.065 A 
HETATM   14  C   UNL     1     -42.503  57.805 -59.624  1.00  0.00     0.026 A 
HETATM   15  C   UNL     1     -42.918  56.532 -60.022  1.00  0.00     0.037 A 
HETATM   16  C   UNL     1     -44.275  56.296 -60.291  1.00  0.00     0.102 A 
HETATM   17  C   UNL     1     -45.218  57.327 -60.156  1.00  0.00     0.037 A 
HETATM   18  C   UNL     1     -44.800  58.601 -59.760  1.00  0.00     0.026 A 
BRANCH  16  19
HETATM   19  N   UNL     1     -44.711  54.962 -60.726  1.00  0.00    -0.116 N 
HETATM   20  O   UNL     1     -44.792  54.077 -59.864  1.00  0.00    -0.532 OA
HETATM   21  O   UNL     1     -44.943  54.800 -61.931  1.00  0.00    -0.532 OA
ENDBRANCH  16  19
ENDBRANCH  10  13
ENDBRANCH   7  10
ENDBRANCH   2   5
BRANCH   1  22
HETATM   22  C   UNL     1     -42.219  58.251 -51.877  1.00  0.00     0.337 C 
BRANCH  22  23
HETATM   23  N   UNL     1     -42.508  56.810 -52.382  1.00  0.00    -0.060 N 
HETATM   24  C   UNL     1     -41.589  56.417 -53.540  1.00  0.00     0.263 C 
HETATM   25  C   UNL     1     -41.912  54.993 -54.046  1.00  0.00     0.263 C 
HETATM   26  N   UNL     1     -41.887  53.972 -52.908  1.00  0.00    -0.064 N 
HETATM   27  H   UNL     1     -42.244  53.095 -53.321  1.00  0.00     0.280 HD
HETATM   28  C   UNL     1     -42.854  54.358 -51.795  1.00  0.00     0.263 C 
HETATM   29  C   UNL     1     -42.584  55.792 -51.261  1.00  0.00     0.263 C 
HETATM   30  H   UNL     1     -43.457  56.927 -52.802  1.00  0.00     0.280 HD
BRANCH  26  31
HETATM   31  C   UNL     1     -40.505  53.590 -52.389  1.00  0.00     0.273 C 
BRANCH  31  32
HETATM   32  C   UNL     1     -40.162  52.142 -52.575  1.00  0.00    -0.033 A 
HETATM   33  C   UNL     1     -39.806  51.348 -51.470  1.00  0.00     0.009 A 
HETATM   34  C   UNL     1     -39.466  50.007 -51.643  1.00  0.00     0.001 A 
HETATM   35  C   UNL     1     -39.480  49.443 -52.916  1.00  0.00     0.000 A 
HETATM   36  C   UNL     1     -39.843  50.214 -54.017  1.00  0.00     0.001 A 
HETATM   37  C   UNL     1     -40.187  51.556 -53.851  1.00  0.00     0.009 A 
ENDBRANCH  31  32
ENDBRANCH  26  31
ENDBRANCH  22  23
ENDBRANCH   1  22
TORSDOF 8
ENDMDL
MODEL 3
REMARK VINA RESULT:      -8.7      1.388      2.070
REMARK  8 active torsions:
REMARK  status: ('A' for Active; 'I' for Inactive)
REMARK    1  A    between atoms: C_4  and  C_5 
REMARK    2  A    between atoms: C_5  and  N_6 
REMARK    3  A    between atoms: N_10  and  C_12 
REMARK    4  A    between atoms: C_12  and  C_13 
REMARK       I    between atoms: C_13  and  N_14 
REMARK    5  A    between atoms: N_14  and  C_15 
REMARK    6  A    between atoms: C_17  and  S_18 
REMARK    7  A    between atoms: S_18  and  C_19 
REMARK    8  A    between atoms: C_22  and  N_23 
ROOT
HETATM    1  C   UNL     1     -41.864  59.706 -52.701  1.00  0.00     0.249 C 
HETATM    2  N   UNL     1     -42.893  60.114 -53.507  1.00  0.00    -0.304 N 
HETATM    3  O   UNL     1     -40.685  59.497 -52.990  1.00  0.00    -0.271 OA
HETATM    4  H   UNL     1     -43.829  60.303 -53.173  1.00  0.00     0.171 HD
ENDROOT
BRANCH   2   5
HETATM    5  C   UNL     1     -42.742  60.210 -54.866  1.00  0.00     0.174 A 
HETATM    6  S   UNL     1     -44.181  60.569 -55.700  1.00  0.00    -0.038 SA
HETATM    7  C   UNL     1     -43.340  60.401 -57.183  1.00  0.00     0.125 A 
HETATM    8  C   UNL     1     -42.013  60.123 -56.925  1.00  0.00     0.151 A 
HETATM    9  N   UNL     1     -41.668  60.034 -55.584  1.00  0.00    -0.234 NA
BRANCH   7  10
HETATM   10  S   UNL     1     -44.249  60.558 -58.690  1.00  0.00     0.214 S 
HETATM   11  O   UNL     1     -45.550  61.033 -58.268  1.00  0.00    -0.217 OA
HETATM   12  O   UNL     1     -43.413  61.306 -59.606  1.00  0.00    -0.217 OA
BRANCH  10  13
HETATM   13  C   UNL     1     -44.430  58.905 -59.311  1.00  0.00     0.065 A 
HETATM   14  C   UNL     1     -43.298  58.201 -59.738  1.00  0.00     0.026 A 
HETATM   15  C   UNL     1     -43.433  56.891 -60.204  1.00  0.00     0.037 A 
HETATM   16  C   UNL     1     -44.700  56.289 -60.226  1.00  0.00     0.102 A 
HETATM   17  C   UNL     1     -45.831  56.989 -59.776  1.00  0.00     0.037 A 
HETATM   18  C   UNL     1     -45.694  58.301 -59.312  1.00  0.00     0.026 A 
BRANCH  16  19
HETATM   19  N   UNL     1     -44.847  54.916 -60.731  1.00  0.00    -0.116 N 
HETATM   20  O   UNL     1     -44.784  53.994 -59.907  1.00  0.00    -0.532 OA
HETATM   21  O   UNL     1     -44.996  54.769 -61.951  1.00  0.00    -0.532 OA
ENDBRANCH  16  19
ENDBRANCH  10  13
ENDBRANCH   7  10
ENDBRANCH   2   5
BRANCH   1  22
HETATM   22  C   UNL     1     -42.246  59.486 -51.236  1.00  0.00     0.337 C 
BRANCH  22  23
HETATM   23  N   UNL     1     -42.376  57.961 -50.961  1.00  0.00    -0.060 N 
HETATM   24  C   UNL     1     -43.126  57.242 -52.083  1.00  0.00     0.263 C 
HETATM   25  C   UNL     1     -43.270  55.734 -51.776  1.00  0.00     0.263 C 
HETATM   26  N   UNL     1     -41.916  55.090 -51.473  1.00  0.00    -0.064 N 
HETATM   27  H   UNL     1     -42.136  54.133 -51.154  1.00  0.00     0.280 HD
HETATM   28  C   UNL     1     -41.216  55.790 -50.315  1.00  0.00     0.263 C 
HETATM   29  C   UNL     1     -41.062  57.316 -50.564  1.00  0.00     0.263 C 
HETATM   30  H   UNL     1     -43.021  57.956 -50.140  1.00  0.00     0.280 HD
BRANCH  26  31
HETATM   31  C   UNL     1     -41.003  54.869 -52.674  1.00  0.00     0.273 C 
BRANCH  31  32
HETATM   32  C   UNL     1     -40.560  53.447 -52.851  1.00  0.00    -0.033 A 
HETATM   33  C   UNL     1     -39.965  52.749 -51.786  1.00  0.00     0.009 A 
HETATM   34  C   UNL     1     -39.534  51.434 -51.954  1.00  0.00     0.001 A 
HETATM   35  C   UNL     1     -39.693  50.800 -53.184  1.00  0.00     0.000 A 
HETATM   36  C   UNL     1     -40.292  51.476 -54.244  1.00  0.00     0.001 A 
HETATM   37  C   UNL     1     -40.728  52.791 -54.081  1.00  0.00     0.009 A 
ENDBRANCH  31  32
ENDBRANCH  26  31
ENDBRANCH  22  23
ENDBRANCH   1  22
TORSDOF 8
ENDMDL
MODEL 4
REMARK VINA RESULT:      -8.7      2.549      3.284
REMARK  8 active torsions:
REMARK  status: ('A' for Active; 'I' for Inactive)
REMARK    1  A    between atoms: C_4  and  C_5 
REMARK    2  A    between atoms: C_5  and  N_6 
REMARK    3  A    between atoms: N_10  and  C_12 
REMARK    4  A    between atoms: C_12  and  C_13 
REMARK       I    between atoms: C_13  and  N_14 
REMARK    5  A    between atoms: N_14  and  C_15 
REMARK    6  A    between atoms: C_17  and  S_18 
REMARK    7  A    between atoms: S_18  and  C_19 
REMARK    8  A    between atoms: C_22  and  N_23 
ROOT
HETATM    1  C   UNL     1     -42.146  57.199 -53.321  1.00  0.00     0.249 C 
HETATM    2  N   UNL     1     -43.208  57.033 -54.170  1.00  0.00    -0.304 N 
HETATM    3  O   UNL     1     -40.940  57.180 -53.570  1.00  0.00    -0.271 OA
HETATM    4  H   UNL     1     -44.175  57.106 -53.883  1.00  0.00     0.171 HD
ENDROOT
BRANCH   2   5
HETATM    5  C   UNL     1     -43.027  56.660 -55.476  1.00  0.00     0.174 A 
HETATM    6  S   UNL     1     -42.791  57.964 -56.544  1.00  0.00    -0.038 SA
HETATM    7  C   UNL     1     -42.788  56.862 -57.857  1.00  0.00     0.125 A 
HETATM    8  C   UNL     1     -42.927  55.577 -57.373  1.00  0.00     0.151 A 
HETATM    9  N   UNL     1     -43.044  55.464 -55.995  1.00  0.00    -0.234 NA
BRANCH   7  10
HETATM   10  S   UNL     1     -42.660  57.506 -59.497  1.00  0.00     0.214 S 
HETATM   11  O   UNL     1     -41.876  58.713 -59.340  1.00  0.00    -0.217 OA
HETATM   12  O   UNL     1     -42.231  56.411 -60.342  1.00  0.00    -0.217 OA
BRANCH  10  13
HETATM   13  C   UNL     1     -44.311  57.964 -59.960  1.00  0.00     0.065 A 
HETATM   14  C   UNL     1     -44.570  59.271 -60.388  1.00  0.00     0.026 A 
HETATM   15  C   UNL     1     -45.863  59.628 -60.777  1.00  0.00     0.037 A 
HETATM   16  C   UNL     1     -46.887  58.669 -60.748  1.00  0.00     0.102 A 
HETATM   17  C   UNL     1     -46.620  57.353 -60.340  1.00  0.00     0.037 A 
HETATM   18  C   UNL     1     -45.325  56.998 -59.949  1.00  0.00     0.026 A 
BRANCH  16  19
HETATM   19  N   UNL     1     -48.252  59.047 -61.142  1.00  0.00    -0.116 N 
HETATM   20  O   UNL     1     -48.808  58.362 -62.011  1.00  0.00    -0.532 OA
HETATM   21  O   UNL     1     -48.748  60.044 -60.600  1.00  0.00    -0.532 OA
ENDBRANCH  16  19
ENDBRANCH  10  13
ENDBRANCH   7  10
ENDBRANCH   2   5
BRANCH   1  22
HETATM   22  C   UNL     1     -42.527  57.444 -51.860  1.00  0.00     0.337 C 
BRANCH  22  23
HETATM   23  N   UNL     1     -42.352  56.126 -51.053  1.00  0.00    -0.060 N 
HETATM   24  C   UNL     1     -42.497  54.890 -51.943  1.00  0.00     0.263 C 
HETATM   25  C   UNL     1     -42.350  53.592 -51.118  1.00  0.00     0.263 C 
HETATM   26  N   UNL     1     -41.049  53.582 -50.313  1.00  0.00    -0.064 N 
HETATM   27  H   UNL     1     -41.112  52.751 -49.704  1.00  0.00     0.280 HD
HETATM   28  C   UNL     1     -40.956  54.794 -49.394  1.00  0.00     0.263 C 
HETATM   29  C   UNL     1     -41.117  56.129 -50.172  1.00  0.00     0.263 C 
HETATM   30  H   UNL     1     -43.203  56.142 -50.448  1.00  0.00     0.280 HD
BRANCH  26  31
HETATM   31  C   UNL     1     -39.774  53.345 -51.116  1.00  0.00     0.273 C 
BRANCH  31  32
HETATM   32  C   UNL     1     -39.831  52.147 -52.016  1.00  0.00    -0.033 A 
HETATM   33  C   UNL     1     -39.619  50.858 -51.498  1.00  0.00     0.009 A 
HETATM   34  C   UNL     1     -39.651  49.744 -52.336  1.00  0.00     0.001 A 
HETATM   35  C   UNL     1     -39.899  49.904 -53.697  1.00  0.00     0.000 A 
HETATM   36  C   UNL     1     -40.124  51.174 -54.221  1.00  0.00     0.001 A 
HETATM   37  C   UNL     1     -40.095  52.292 -53.387  1.00  0.00     0.009 A 
ENDBRANCH  31  32
ENDBRANCH  26  31
ENDBRANCH  22  23
ENDBRANCH   1  22
TORSDOF 8
ENDMDL
MODEL 5
REMARK VINA RESULT:      -8.5      1.778      2.836
REMARK  8 active torsions:
REMARK  status: ('A' for Active; 'I' for Inactive)
REMARK    1  A    between atoms: C_4  and  C_5 
REMARK    2  A    between atoms: C_5  and  N_6 
REMARK    3  A    between atoms: N_10  and  C_12 
REMARK    4  A    between atoms: C_12  and  C_13 
REMARK       I    between atoms: C_13  and  N_14 
REMARK    5  A    between atoms: N_14  and  C_15 
REMARK    6  A    between atoms: C_17  and  S_18 
REMARK    7  A    between atoms: S_18  and  C_19 
REMARK    8  A    between atoms: C_22  and  N_23 
ROOT
HETATM    1  C   UNL     1     -44.236  60.770 -52.437  1.00  0.00     0.249 C 
HETATM    2  N   UNL     1     -45.035  60.249 -53.419  1.00  0.00    -0.304 N 
HETATM    3  O   UNL     1     -43.320  61.588 -52.532  1.00  0.00    -0.271 OA
HETATM    4  H   UNL     1     -45.798  59.608 -53.243  1.00  0.00     0.171 HD
ENDROOT
BRANCH   2   5
HETATM    5  C   UNL     1     -44.794  60.497 -54.745  1.00  0.00     0.174 A 
HETATM    6  S   UNL     1     -43.574  59.524 -55.422  1.00  0.00    -0.038 SA
HETATM    7  C   UNL     1     -43.712  60.403 -56.886  1.00  0.00     0.125 A 
HETATM    8  C   UNL     1     -44.710  61.348 -56.757  1.00  0.00     0.151 A 
HETATM    9  N   UNL     1     -45.346  61.384 -55.525  1.00  0.00    -0.234 NA
BRANCH   7  10
HETATM   10  S   UNL     1     -42.608  60.016 -58.210  1.00  0.00     0.214 S 
HETATM   11  O   UNL     1     -42.837  61.068 -59.178  1.00  0.00    -0.217 OA
HETATM   12  O   UNL     1     -41.308  59.785 -57.615  1.00  0.00    -0.217 OA
BRANCH  10  13
HETATM   13  C   UNL     1     -43.198  58.487 -58.891  1.00  0.00     0.065 A 
HETATM   14  C   UNL     1     -42.706  57.275 -58.393  1.00  0.00     0.026 A 
HETATM   15  C   UNL     1     -43.187  56.069 -58.909  1.00  0.00     0.037 A 
HETATM   16  C   UNL     1     -44.169  56.085 -59.911  1.00  0.00     0.102 A 
HETATM   17  C   UNL     1     -44.678  57.301 -60.392  1.00  0.00     0.037 A 
HETATM   18  C   UNL     1     -44.193  58.508 -59.876  1.00  0.00     0.026 A 
BRANCH  16  19
HETATM   19  N   UNL     1     -44.665  54.817 -60.466  1.00  0.00    -0.116 N 
HETATM   20  O   UNL     1     -44.765  53.854 -59.695  1.00  0.00    -0.532 OA
HETATM   21  O   UNL     1     -44.924  54.786 -61.677  1.00  0.00    -0.532 OA
ENDBRANCH  16  19
ENDBRANCH  10  13
ENDBRANCH   7  10
ENDBRANCH   2   5
BRANCH   1  22
HETATM   22  C   UNL     1     -44.536  60.257 -51.027  1.00  0.00     0.337 C 
BRANCH  22  23
HETATM   23  N   UNL     1     -43.771  58.925 -50.790  1.00  0.00    -0.060 N 
HETATM   24  C   UNL     1     -44.568  57.715 -51.282  1.00  0.00     0.263 C 
HETATM   25  C   UNL     1     -43.805  56.400 -51.010  1.00  0.00     0.263 C 
HETATM   26  N   UNL     1     -42.390  56.441 -51.590  1.00  0.00    -0.064 N 
HETATM   27  H   UNL     1     -41.928  55.585 -51.241  1.00  0.00     0.280 HD
HETATM   28  C   UNL     1     -41.600  57.622 -51.039  1.00  0.00     0.263 C 
HETATM   29  C   UNL     1     -42.333  58.972 -51.270  1.00  0.00     0.263 C 
HETATM   30  H   UNL     1     -43.782  58.866 -49.747  1.00  0.00     0.280 HD
BRANCH  26  31
HETATM   31  C   UNL     1     -42.289  56.313 -53.106  1.00  0.00     0.273 C 
BRANCH  31  32
HETATM   32  C   UNL     1     -41.548  55.093 -53.568  1.00  0.00    -0.033 A 
HETATM   33  C   UNL     1     -41.514  53.937 -52.770  1.00  0.00     0.009 A 
HETATM   34  C   UNL     1     -40.809  52.809 -53.188  1.00  0.00     0.001 A 
HETATM   35  C   UNL     1     -40.134  52.821 -54.407  1.00  0.00     0.000 A 
HETATM   36  C   UNL     1     -40.171  53.956 -55.213  1.00  0.00     0.001 A 
HETATM   37  C   UNL     1     -40.876  55.087 -54.801  1.00  0.00     0.009 A 
ENDBRANCH  31  32
ENDBRANCH  26  31
ENDBRANCH  22  23
ENDBRANCH   1  22
TORSDOF 8
ENDMDL
MODEL 6
REMARK VINA RESULT:      -8.4      2.451      3.075
REMARK  8 active torsions:
REMARK  status: ('A' for Active; 'I' for Inactive)
REMARK    1  A    between atoms: C_4  and  C_5 
REMARK    2  A    between atoms: C_5  and  N_6 
REMARK    3  A    between atoms: N_10  and  C_12 
REMARK    4  A    between atoms: C_12  and  C_13 
REMARK       I    between atoms: C_13  and  N_14 
REMARK    5  A    between atoms: N_14  and  C_15 
REMARK    6  A    between atoms: C_17  and  S_18 
REMARK    7  A    between atoms: S_18  and  C_19 
REMARK    8  A    between atoms: C_22  and  N_23 
ROOT
HETATM    1  C   UNL     1     -42.939  58.533 -53.014  1.00  0.00     0.249 C 
HETATM    2  N   UNL     1     -41.910  58.341 -53.896  1.00  0.00    -0.304 N 
HETATM    3  O   UNL     1     -44.128  58.763 -53.242  1.00  0.00    -0.271 OA
HETATM    4  H   UNL     1     -40.964  58.114 -53.617  1.00  0.00     0.171 HD
ENDROOT
BRANCH   2   5
HETATM    5  C   UNL     1     -42.076  58.535 -55.242  1.00  0.00     0.174 A 
HETATM    6  S   UNL     1     -42.620  57.158 -56.081  1.00  0.00    -0.038 SA
HETATM    7  C   UNL     1     -42.467  58.019 -57.554  1.00  0.00     0.125 A 
HETATM    8  C   UNL     1     -42.051  59.308 -57.287  1.00  0.00     0.151 A 
HETATM    9  N   UNL     1     -41.847  59.608 -55.948  1.00  0.00    -0.234 NA
BRANCH   7  10
HETATM   10  S   UNL     1     -42.802  57.168 -59.066  1.00  0.00     0.214 S 
HETATM   11  O   UNL     1     -41.782  57.652 -59.973  1.00  0.00    -0.217 OA
HETATM   12  O   UNL     1     -42.938  55.766 -58.734  1.00  0.00    -0.217 OA
BRANCH  10  13
HETATM   13  C   UNL     1     -44.376  57.775 -59.616  1.00  0.00     0.065 A 
HETATM   14  C   UNL     1     -45.538  57.060 -59.303  1.00  0.00     0.026 A 
HETATM   15  C   UNL     1     -46.782  57.548 -59.712  1.00  0.00     0.037 A 
HETATM   16  C   UNL     1     -46.855  58.757 -60.421  1.00  0.00     0.102 A 
HETATM   17  C   UNL     1     -45.690  59.483 -60.714  1.00  0.00     0.037 A 
HETATM   18  C   UNL     1     -44.446  58.993 -60.305  1.00  0.00     0.026 A 
BRANCH  16  19
HETATM   19  N   UNL     1     -48.161  59.263 -60.866  1.00  0.00    -0.116 N 
HETATM   20  O   UNL     1     -48.631  58.795 -61.911  1.00  0.00    -0.532 OA
HETATM   21  O   UNL     1     -48.694  60.147 -60.183  1.00  0.00    -0.532 OA
ENDBRANCH  16  19
ENDBRANCH  10  13
ENDBRANCH   7  10
ENDBRANCH   2   5
BRANCH   1  22
HETATM   22  C   UNL     1     -42.544  58.445 -51.538  1.00  0.00     0.337 C 
BRANCH  22  23
HETATM   23  N   UNL     1     -42.450  56.951 -51.118  1.00  0.00    -0.060 N 
HETATM   24  C   UNL     1     -43.068  56.024 -52.165  1.00  0.00     0.263 C 
HETATM   25  C   UNL     1     -42.992  54.548 -51.716  1.00  0.00     0.263 C 
HETATM   26  N   UNL     1     -41.562  54.145 -51.351  1.00  0.00    -0.064 N 
HETATM   27  H   UNL     1     -41.642  53.201 -50.941  1.00  0.00     0.280 HD
HETATM   28  C   UNL     1     -40.991  55.049 -50.264  1.00  0.00     0.263 C 
HETATM   29  C   UNL     1     -41.061  56.549 -50.659  1.00  0.00     0.263 C 
HETATM   30  H   UNL     1     -43.100  56.928 -50.300  1.00  0.00     0.280 HD
BRANCH  26  31
HETATM   31  C   UNL     1     -40.607  53.949 -52.524  1.00  0.00     0.273 C 
BRANCH  31  32
HETATM   32  C   UNL     1     -40.274  52.515 -52.808  1.00  0.00    -0.033 A 
HETATM   33  C   UNL     1     -39.817  51.674 -51.779  1.00  0.00     0.009 A 
HETATM   34  C   UNL     1     -39.486  50.346 -52.044  1.00  0.00     0.001 A 
HETATM   35  C   UNL     1     -39.611  49.842 -53.337  1.00  0.00     0.000 A 
HETATM   36  C   UNL     1     -40.075  50.661 -54.363  1.00  0.00     0.001 A 
HETATM   37  C   UNL     1     -40.409  51.990 -54.103  1.00  0.00     0.009 A 
ENDBRANCH  31  32
ENDBRANCH  26  31
ENDBRANCH  22  23
ENDBRANCH   1  22
TORSDOF 8
ENDMDL
MODEL 7
REMARK VINA RESULT:      -8.1      3.352      8.261
REMARK  8 active torsions:
REMARK  status: ('A' for Active; 'I' for Inactive)
REMARK    1  A    between atoms: C_4  and  C_5 
REMARK    2  A    between atoms: C_5  and  N_6 
REMARK    3  A    between atoms: N_10  and  C_12 
REMARK    4  A    between atoms: C_12  and  C_13 
REMARK       I    between atoms: C_13  and  N_14 
REMARK    5  A    between atoms: N_14  and  C_15 
REMARK    6  A    between atoms: C_17  and  S_18 
REMARK    7  A    between atoms: S_18  and  C_19 
REMARK    8  A    between atoms: C_22  and  N_23 
ROOT
HETATM    1  C   UNL     1     -42.048  59.819 -53.600  1.00  0.00     0.249 C 
HETATM    2  N   UNL     1     -42.506  59.393 -52.382  1.00  0.00    -0.304 N 
HETATM    3  O   UNL     1     -41.176  59.329 -54.319  1.00  0.00    -0.271 OA
HETATM    4  H   UNL     1     -43.262  59.838 -51.877  1.00  0.00     0.171 HD
ENDROOT
BRANCH   2   5
HETATM    5  C   UNL     1     -41.898  58.366 -51.709  1.00  0.00     0.174 A 
HETATM    6  S   UNL     1     -42.885  56.997 -51.494  1.00  0.00    -0.038 SA
HETATM    7  C   UNL     1     -41.647  56.275 -50.556  1.00  0.00     0.125 A 
HETATM    8  C   UNL     1     -40.556  57.121 -50.514  1.00  0.00     0.151 A 
HETATM    9  N   UNL     1     -40.699  58.318 -51.200  1.00  0.00    -0.234 NA
BRANCH   7  10
HETATM   10  S   UNL     1     -41.958  54.702 -49.815  1.00  0.00     0.214 S 
HETATM   11  O   UNL     1     -41.200  54.738 -48.582  1.00  0.00    -0.217 OA
HETATM   12  O   UNL     1     -43.393  54.509 -49.833  1.00  0.00    -0.217 OA
BRANCH  10  13
HETATM   13  C   UNL     1     -41.213  53.509 -50.897  1.00  0.00     0.065 A 
HETATM   14  C   UNL     1     -40.527  52.418 -50.353  1.00  0.00     0.026 A 
HETATM   15  C   UNL     1     -39.961  51.463 -51.202  1.00  0.00     0.037 A 
HETATM   16  C   UNL     1     -40.099  51.601 -52.591  1.00  0.00     0.102 A 
HETATM   17  C   UNL     1     -40.807  52.684 -53.134  1.00  0.00     0.037 A 
HETATM   18  C   UNL     1     -41.371  53.640 -52.283  1.00  0.00     0.026 A 
BRANCH  16  19
HETATM   19  N   UNL     1     -39.491  50.606 -53.486  1.00  0.00    -0.116 N 
HETATM   20  O   UNL     1     -39.340  49.458 -53.049  1.00  0.00    -0.532 OA
HETATM   21  O   UNL     1     -39.141  50.987 -54.611  1.00  0.00    -0.532 OA
ENDBRANCH  16  19
ENDBRANCH  10  13
ENDBRANCH   7  10
ENDBRANCH   2   5
BRANCH   1  22
HETATM   22  C   UNL     1     -42.725  61.084 -54.133  1.00  0.00     0.337 C 
BRANCH  22  23
HETATM   23  N   UNL     1     -43.679  60.705 -55.300  1.00  0.00    -0.060 N 
HETATM   24  C   UNL     1     -42.982  60.797 -56.659  1.00  0.00     0.263 C 
HETATM   25  C   UNL     1     -43.954  60.446 -57.807  1.00  0.00     0.263 C 
HETATM   26  N   UNL     1     -44.619  59.087 -57.584  1.00  0.00    -0.064 N 
HETATM   27  H   UNL     1     -45.337  59.011 -58.323  1.00  0.00     0.280 HD
HETATM   28  C   UNL     1     -45.354  59.042 -56.250  1.00  0.00     0.263 C 
HETATM   29  C   UNL     1     -44.425  59.406 -55.060  1.00  0.00     0.263 C 
HETATM   30  H   UNL     1     -44.358  61.498 -55.276  1.00  0.00     0.280 HD
BRANCH  26  31
HETATM   31  C   UNL     1     -43.733  57.868 -57.817  1.00  0.00     0.273 C 
BRANCH  31  32
HETATM   32  C   UNL     1     -44.315  56.860 -58.763  1.00  0.00    -0.033 A 
HETATM   33  C   UNL     1     -45.496  57.148 -59.469  1.00  0.00     0.009 A 
HETATM   34  C   UNL     1     -46.050  56.205 -60.334  1.00  0.00     0.001 A 
HETATM   35  C   UNL     1     -45.432  54.969 -60.507  1.00  0.00     0.000 A 
HETATM   36  C   UNL     1     -44.254  54.676 -59.823  1.00  0.00     0.001 A 
HETATM   37  C   UNL     1     -43.694  55.616 -58.958  1.00  0.00     0.009 A 
ENDBRANCH  31  32
ENDBRANCH  26  31
ENDBRANCH  22  23
ENDBRANCH   1  22
TORSDOF 8
ENDMDL
MODEL 8
REMARK VINA RESULT:      -8.0      5.148      6.988
REMARK  8 active torsions:
REMARK  status: ('A' for Active; 'I' for Inactive)
REMARK    1  A    between atoms: C_4  and  C_5 
REMARK    2  A    between atoms: C_5  and  N_6 
REMARK    3  A    between atoms: N_10  and  C_12 
REMARK    4  A    between atoms: C_12  and  C_13 
REMARK       I    between atoms: C_13  and  N_14 
REMARK    5  A    between atoms: N_14  and  C_15 
REMARK    6  A    between atoms: C_17  and  S_18 
REMARK    7  A    between atoms: S_18  and  C_19 
REMARK    8  A    between atoms: C_22  and  N_23 
ROOT
HETATM    1  C   UNL     1     -44.177  56.834 -59.135  1.00  0.00     0.249 C 
HETATM    2  N   UNL     1     -45.516  56.925 -58.863  1.00  0.00    -0.304 N 
HETATM    3  O   UNL     1     -43.472  57.563 -59.834  1.00  0.00    -0.271 OA
HETATM    4  H   UNL     1     -46.008  56.300 -58.238  1.00  0.00     0.171 HD
ENDROOT
BRANCH   2   5
HETATM    5  C   UNL     1     -46.314  57.836 -59.504  1.00  0.00     0.174 A 
HETATM    6  S   UNL     1     -46.648  59.232 -58.589  1.00  0.00    -0.038 SA
HETATM    7  C   UNL     1     -47.695  59.773 -59.832  1.00  0.00     0.125 A 
HETATM    8  C   UNL     1     -47.678  58.862 -60.870  1.00  0.00     0.151 A 
HETATM    9  N   UNL     1     -46.862  57.756 -60.685  1.00  0.00    -0.234 NA
BRANCH   7  10
HETATM   10  S   UNL     1     -48.593  61.274 -59.585  1.00  0.00     0.214 S 
HETATM   11  O   UNL     1     -47.754  62.041 -58.689  1.00  0.00    -0.217 OA
HETATM   12  O   UNL     1     -48.967  61.758 -60.897  1.00  0.00    -0.217 OA
BRANCH  10  13
HETATM   13  C   UNL     1     -50.068  60.809 -58.713  1.00  0.00     0.065 A 
HETATM   14  C   UNL     1     -50.022  60.633 -57.325  1.00  0.00     0.026 A 
HETATM   15  C   UNL     1     -51.186  60.292 -56.632  1.00  0.00     0.037 A 
HETATM   16  C   UNL     1     -52.392  60.142 -57.332  1.00  0.00     0.102 A 
HETATM   17  C   UNL     1     -52.441  60.341 -58.721  1.00  0.00     0.037 A 
HETATM   18  C   UNL     1     -51.274  60.681 -59.413  1.00  0.00     0.026 A 
BRANCH  16  19
HETATM   19  N   UNL     1     -53.615  59.768 -56.607  1.00  0.00    -0.116 N 
HETATM   20  O   UNL     1     -54.392  60.677 -56.287  1.00  0.00    -0.532 OA
HETATM   21  O   UNL     1     -53.775  58.570 -56.337  1.00  0.00    -0.532 OA
ENDBRANCH  16  19
ENDBRANCH  10  13
ENDBRANCH   7  10
ENDBRANCH   2   5
BRANCH   1  22
HETATM   22  C   UNL     1     -43.467  55.654 -58.466  1.00  0.00     0.337 C 
BRANCH  22  23
HETATM   23  N   UNL     1     -43.474  55.855 -56.925  1.00  0.00    -0.060 N 
HETATM   24  C   UNL     1     -43.212  54.546 -56.178  1.00  0.00     0.263 C 
HETATM   25  C   UNL     1     -43.252  54.761 -54.648  1.00  0.00     0.263 C 
HETATM   26  N   UNL     1     -42.305  55.880 -54.213  1.00  0.00    -0.064 N 
HETATM   27  H   UNL     1     -42.506  56.033 -53.212  1.00  0.00     0.280 HD
HETATM   28  C   UNL     1     -42.624  57.187 -54.930  1.00  0.00     0.263 C 
HETATM   29  C   UNL     1     -42.615  57.022 -56.474  1.00  0.00     0.263 C 
HETATM   30  H   UNL     1     -44.478  56.084 -56.753  1.00  0.00     0.280 HD
BRANCH  26  31
HETATM   31  C   UNL     1     -40.819  55.538 -54.235  1.00  0.00     0.273 C 
BRANCH  31  32
HETATM   32  C   UNL     1     -40.496  54.180 -53.686  1.00  0.00    -0.033 A 
HETATM   33  C   UNL     1     -40.174  53.122 -54.553  1.00  0.00     0.009 A 
HETATM   34  C   UNL     1     -39.893  51.853 -54.047  1.00  0.00     0.001 A 
HETATM   35  C   UNL     1     -39.929  51.627 -52.673  1.00  0.00     0.000 A 
HETATM   36  C   UNL     1     -40.234  52.670 -51.803  1.00  0.00     0.001 A 
HETATM   37  C   UNL     1     -40.513  53.942 -52.303  1.00  0.00     0.009 A 
ENDBRANCH  31  32
ENDBRANCH  26  31
ENDBRANCH  22  23
ENDBRANCH   1  22
TORSDOF 8
ENDMDL
MODEL 9
REMARK VINA RESULT:      -8.0      4.211      7.459
REMARK  8 active torsions:
REMARK  status: ('A' for Active; 'I' for Inactive)
REMARK    1  A    between atoms: C_4  and  C_5 
REMARK    2  A    between atoms: C_5  and  N_6 
REMARK    3  A    between atoms: N_10  and  C_12 
REMARK    4  A    between atoms: C_12  and  C_13 
REMARK       I    between atoms: C_13  and  N_14 
REMARK    5  A    between atoms: N_14  and  C_15 
REMARK    6  A    between atoms: C_17  and  S_18 
REMARK    7  A    between atoms: S_18  and  C_19 
REMARK    8  A    between atoms: C_22  and  N_23 
ROOT
HETATM    1  C   UNL     1     -42.436  59.154 -55.546  1.00  0.00     0.249 C 
HETATM    2  N   UNL     1     -43.412  59.207 -54.587  1.00  0.00    -0.304 N 
HETATM    3  O   UNL     1     -41.757  60.067 -56.017  1.00  0.00    -0.271 OA
HETATM    4  H   UNL     1     -43.893  58.393 -54.227  1.00  0.00     0.171 HD
ENDROOT
BRANCH   2   5
HETATM    5  C   UNL     1     -43.875  60.403 -54.103  1.00  0.00     0.174 A 
HETATM    6  S   UNL     1     -42.983  61.013 -52.789  1.00  0.00    -0.038 SA
HETATM    7  C   UNL     1     -44.107  62.298 -52.647  1.00  0.00     0.125 A 
HETATM    8  C   UNL     1     -45.056  62.184 -53.643  1.00  0.00     0.151 A 
HETATM    9  N   UNL     1     -44.905  61.100 -54.495  1.00  0.00    -0.234 NA
BRANCH   7  10
HETATM   10  S   UNL     1     -43.908  63.450 -51.323  1.00  0.00     0.214 S 
HETATM   11  O   UNL     1     -42.473  63.554 -51.160  1.00  0.00    -0.217 OA
HETATM   12  O   UNL     1     -44.734  64.597 -51.640  1.00  0.00    -0.217 OA
BRANCH  10  13
HETATM   13  C   UNL     1     -44.580  62.648 -49.889  1.00  0.00     0.065 A 
HETATM   14  C   UNL     1     -45.066  61.340 -49.994  1.00  0.00     0.026 A 
HETATM   15  C   UNL     1     -45.572  60.697 -48.862  1.00  0.00     0.037 A 
HETATM   16  C   UNL     1     -45.575  61.363 -47.628  1.00  0.00     0.102 A 
HETATM   17  C   UNL     1     -45.066  62.667 -47.519  1.00  0.00     0.037 A 
HETATM   18  C   UNL     1     -44.561  63.310 -48.654  1.00  0.00     0.026 A 
BRANCH  16  19
HETATM   19  N   UNL     1     -46.121  60.694 -46.439  1.00  0.00    -0.116 N 
HETATM   20  O   UNL     1     -47.351  60.567 -46.367  1.00  0.00    -0.532 OA
HETATM   21  O   UNL     1     -45.319  60.324 -45.571  1.00  0.00    -0.532 OA
ENDBRANCH  16  19
ENDBRANCH  10  13
ENDBRANCH   7  10
ENDBRANCH   2   5
BRANCH   1  22
HETATM   22  C   UNL     1     -42.158  57.755 -56.100  1.00  0.00     0.337 C 
BRANCH  22  23
HETATM   23  N   UNL     1     -42.257  56.715 -54.949  1.00  0.00    -0.060 N 
HETATM   24  C   UNL     1     -42.854  55.390 -55.428  1.00  0.00     0.263 C 
HETATM   25  C   UNL     1     -42.971  54.381 -54.264  1.00  0.00     0.263 C 
HETATM   26  N   UNL     1     -41.634  54.193 -53.546  1.00  0.00    -0.064 N 
HETATM   27  H   UNL     1     -41.849  53.617 -52.716  1.00  0.00     0.280 HD
HETATM   28  C   UNL     1     -41.091  55.520 -53.029  1.00  0.00     0.263 C 
HETATM   29  C   UNL     1     -40.970  56.579 -54.159  1.00  0.00     0.263 C 
HETATM   30  H   UNL     1     -42.987  57.151 -54.342  1.00  0.00     0.280 HD
BRANCH  26  31
HETATM   31  C   UNL     1     -40.588  53.373 -54.293  1.00  0.00     0.273 C 
BRANCH  31  32
HETATM   32  C   UNL     1     -40.200  52.101 -53.601  1.00  0.00    -0.033 A 
HETATM   33  C   UNL     1     -40.153  50.890 -54.314  1.00  0.00     0.009 A 
HETATM   34  C   UNL     1     -39.812  49.702 -53.668  1.00  0.00     0.001 A 
HETATM   35  C   UNL     1     -39.512  49.709 -52.308  1.00  0.00     0.000 A 
HETATM   36  C   UNL     1     -39.542  50.904 -51.593  1.00  0.00     0.001 A 
HETATM   37  C   UNL     1     -39.880  52.096 -52.234  1.00  0.00     0.009 A 
ENDBRANCH  31  32
ENDBRANCH  26  31
ENDBRANCH  22  23
ENDBRANCH   1  22
TORSDOF 8
ENDMDL
MODEL 10
REMARK VINA RESULT:      -7.9      2.913      4.263
REMARK  8 active torsions:
REMARK  status: ('A' for Active; 'I' for Inactive)
REMARK    1  A    between atoms: C_4  and  C_5 
REMARK    2  A    between atoms: C_5  and  N_6 
REMARK    3  A    between atoms: N_10  and  C_12 
REMARK    4  A    between atoms: C_12  and  C_13 
REMARK       I    between atoms: C_13  and  N_14 
REMARK    5  A    between atoms: N_14  and  C_15 
REMARK    6  A    between atoms: C_17  and  S_18 
REMARK    7  A    between atoms: S_18  and  C_19 
REMARK    8  A    between atoms: C_22  and  N_23 
ROOT
HETATM    1  C   UNL     1     -42.558  59.025 -54.287  1.00  0.00     0.249 C 
HETATM    2  N   UNL     1     -43.536  58.226 -54.817  1.00  0.00    -0.304 N 
HETATM    3  O   UNL     1     -41.523  59.440 -54.810  1.00  0.00    -0.271 OA
HETATM    4  H   UNL     1     -44.380  57.966 -54.323  1.00  0.00     0.171 HD
ENDROOT
BRANCH   2   5
HETATM    5  C   UNL     1     -43.390  57.638 -56.046  1.00  0.00     0.174 A 
HETATM    6  S   UNL     1     -44.110  58.506 -57.320  1.00  0.00    -0.038 SA
HETATM    7  C   UNL     1     -43.697  57.235 -58.393  1.00  0.00     0.125 A 
HETATM    8  C   UNL     1     -43.004  56.263 -57.700  1.00  0.00     0.151 A 
HETATM    9  N   UNL     1     -42.811  56.510 -56.349  1.00  0.00    -0.234 NA
BRANCH   7  10
HETATM   10  S   UNL     1     -44.224  57.348 -60.076  1.00  0.00     0.214 S 
HETATM   11  O   UNL     1     -43.479  56.304 -60.747  1.00  0.00    -0.217 OA
HETATM   12  O   UNL     1     -45.671  57.375 -60.059  1.00  0.00    -0.217 OA
BRANCH  10  13
HETATM   13  C   UNL     1     -43.635  58.919 -60.655  1.00  0.00     0.065 A 
HETATM   14  C   UNL     1     -42.258  59.145 -60.756  1.00  0.00     0.026 A 
HETATM   15  C   UNL     1     -41.791  60.371 -61.236  1.00  0.00     0.037 A 
HETATM   16  C   UNL     1     -42.708  61.359 -61.625  1.00  0.00     0.102 A 
HETATM   17  C   UNL     1     -44.089  61.122 -61.544  1.00  0.00     0.037 A 
HETATM   18  C   UNL     1     -44.555  59.895 -61.062  1.00  0.00     0.026 A 
BRANCH  16  19
HETATM   19  N   UNL     1     -42.219  62.656 -62.115  1.00  0.00    -0.116 N 
HETATM   20  O   UNL     1     -41.734  63.436 -61.284  1.00  0.00    -0.532 OA
HETATM   21  O   UNL     1     -42.350  62.897 -63.322  1.00  0.00    -0.532 OA
ENDBRANCH  16  19
ENDBRANCH  10  13
ENDBRANCH   7  10
ENDBRANCH   2   5
BRANCH   1  22
HETATM   22  C   UNL     1     -42.800  59.459 -52.840  1.00  0.00     0.337 C 
BRANCH  22  23
HETATM   23  N   UNL     1     -42.610  58.238 -51.897  1.00  0.00    -0.060 N 
HETATM   24  C   UNL     1     -43.892  57.415 -51.763  1.00  0.00     0.263 C 
HETATM   25  C   UNL     1     -43.691  56.224 -50.800  1.00  0.00     0.263 C 
HETATM   26  N   UNL     1     -42.489  55.370 -51.206  1.00  0.00    -0.064 N 
HETATM   27  H   UNL     1     -42.362  54.695 -50.435  1.00  0.00     0.280 HD
HETATM   28  C   UNL     1     -41.215  56.202 -51.275  1.00  0.00     0.263 C 
HETATM   29  C   UNL     1     -41.369  57.426 -52.219  1.00  0.00     0.263 C 
HETATM   30  H   UNL     1     -42.479  58.710 -50.974  1.00  0.00     0.280 HD
BRANCH  26  31
HETATM   31  C   UNL     1     -42.688  54.484 -52.431  1.00  0.00     0.273 C 
BRANCH  31  32
HETATM   32  C   UNL     1     -41.561  53.528 -52.684  1.00  0.00    -0.033 A 
HETATM   33  C   UNL     1     -41.199  53.186 -53.998  1.00  0.00     0.009 A 
HETATM   34  C   UNL     1     -40.165  52.281 -54.235  1.00  0.00     0.001 A 
HETATM   35  C   UNL     1     -39.480  51.711 -53.166  1.00  0.00     0.000 A 
HETATM   36  C   UNL     1     -39.819  52.050 -51.859  1.00  0.00     0.001 A 
HETATM   37  C   UNL     1     -40.852  52.957 -51.615  1.00  0.00     0.009 A 
ENDBRANCH  31  32
ENDBRANCH  26  31
ENDBRANCH  22  23
ENDBRANCH   1  22
TORSDOF 8
ENDMDL
