MODEL 1
REMARK VINA RESULT:      -9.0      0.000      0.000
REMARK  6 active torsions:
REMARK  status: ('A' for Active; 'I' for Inactive)
REMARK    1  A    between atoms: C_2  and  O_3 
REMARK    2  A    between atoms: O_3  and  C_4 
REMARK    3  A    between atoms: C_7  and  C_8 
REMARK       I    between atoms: C_8  and  N_9 
REMARK    4  A    between atoms: N_9  and  C_10 
REMARK    5  A    between atoms: N_11  and  C_12 
REMARK    6  A    between atoms: C_24  and  C_25 
ROOT
HETATM    1  C   UNL     1     -42.625  55.228 -53.428  1.00  0.00     0.152 C 
HETATM    2  N   UNL     1     -42.064  55.202 -54.705  1.00  0.00    -0.044 N 
HETATM    3  N   UNL     1     -41.104  54.220 -54.797  1.00  0.00    -0.148 NA
HETATM    4  C   UNL     1     -41.311  53.471 -53.707  1.00  0.00     0.115 C 
HETATM    5  C   UNL     1     -42.280  54.029 -52.848  1.00  0.00     0.087 C 
ENDROOT
BRANCH   1   6
HETATM    6  N   UNL     1     -43.368  56.250 -52.856  1.00  0.00    -0.307 N 
HETATM    7  C   UNL     1     -42.763  57.438 -52.489  1.00  0.00     0.257 C 
HETATM    8  O   UNL     1     -41.586  57.743 -52.633  1.00  0.00    -0.267 OA
HETATM    9  H   UNL     1     -44.260  56.018 -52.435  1.00  0.00     0.170 HD
BRANCH   7  10
HETATM   10  C   UNL     1     -43.643  58.363 -51.752  1.00  0.00     0.032 A 
HETATM   11  C   UNL     1     -44.952  57.980 -51.441  1.00  0.00     0.020 A 
HETATM   12  C   UNL     1     -45.750  58.823 -50.665  1.00  0.00     0.038 A 
HETATM   13  C   UNL     1     -45.230  60.031 -50.195  1.00  0.00     0.069 A 
HETATM   14  C   UNL     1     -43.938  60.429 -50.553  1.00  0.00     0.038 A 
HETATM   15  C   UNL     1     -43.131  59.586 -51.318  1.00  0.00     0.020 A 
BRANCH  13  16
HETATM   16  O   UNL     1     -45.921  60.897 -49.394  1.00  0.00    -0.347 OA
BRANCH  16  17
HETATM   17  C   UNL     1     -45.222  61.357 -48.225  1.00  0.00     0.120 C 
HETATM   18  C   UNL     1     -45.811  60.593 -47.041  1.00  0.00     0.040 C 
HETATM   19  C   UNL     1     -45.414  62.860 -48.010  1.00  0.00     0.040 C 
ENDBRANCH  16  17
ENDBRANCH  13  16
ENDBRANCH   7  10
ENDBRANCH   1   6
BRANCH   2  20
HETATM   20  C   UNL     1     -42.443  55.870 -55.891  1.00  0.00     0.732 A 
HETATM   21  N   UNL     1     -42.943  55.291 -56.936  1.00  0.00    -0.067 NA
HETATM   22  C   UNL     1     -43.224  56.108 -58.011  1.00  0.00     0.065 A 
HETATM   23  C   UNL     1     -43.011  57.438 -58.030  1.00  0.00     0.036 A 
HETATM   24  C   UNL     1     -43.810  55.399 -59.211  1.00  0.00     0.060 C 
HETATM   25  C   UNL     1     -43.299  58.329 -59.202  1.00  0.00     0.046 C 
HETATM   26  C   UNL     1     -42.425  58.065 -56.823  1.00  0.00     0.268 A 
HETATM   27  C   UNL     1     -43.534  57.548 -60.496  1.00  0.00     0.005 C 
HETATM   28  C   UNL     1     -44.428  56.340 -60.249  1.00  0.00     0.006 C 
HETATM   29  O   UNL     1     -42.196  59.266 -56.751  1.00  0.00    -0.267 OA
HETATM   30  N   UNL     1     -42.150  57.206 -55.808  1.00  0.00    -0.152 N 
HETATM   31  H   UNL     1     -41.727  57.566 -54.961  1.00  0.00     0.188 HD
ENDBRANCH   2  20
BRANCH   4  32
HETATM   32  C   UNL     1     -40.559  52.211 -53.439  1.00  0.00     0.105 A 
HETATM   33  O   UNL     1     -39.981  51.895 -52.239  1.00  0.00    -0.320 OA
HETATM   34  C   UNL     1     -39.394  50.679 -52.383  1.00  0.00     0.142 A 
HETATM   35  C   UNL     1     -39.580  50.201 -53.658  1.00  0.00     0.027 A 
HETATM   36  C   UNL     1     -40.333  51.188 -54.341  1.00  0.00     0.041 A 
ENDBRANCH   4  32
TORSDOF 6
ENDMDL
MODEL 2
REMARK VINA RESULT:      -9.0      2.192      7.351
REMARK  6 active torsions:
REMARK  status: ('A' for Active; 'I' for Inactive)
REMARK    1  A    between atoms: C_2  and  O_3 
REMARK    2  A    between atoms: O_3  and  C_4 
REMARK    3  A    between atoms: C_7  and  C_8 
REMARK       I    between atoms: C_8  and  N_9 
REMARK    4  A    between atoms: N_9  and  C_10 
REMARK    5  A    between atoms: N_11  and  C_12 
REMARK    6  A    between atoms: C_24  and  C_25 
ROOT
HETATM    1  C   UNL     1     -41.621  55.507 -55.104  1.00  0.00     0.152 C 
HETATM    2  N   UNL     1     -42.464  55.356 -54.003  1.00  0.00    -0.044 N 
HETATM    3  N   UNL     1     -42.292  54.119 -53.423  1.00  0.00    -0.148 NA
HETATM    4  C   UNL     1     -41.156  53.668 -53.966  1.00  0.00     0.115 C 
HETATM    5  C   UNL     1     -40.672  54.518 -54.982  1.00  0.00     0.087 C 
ENDROOT
BRANCH   1   6
HETATM    6  N   UNL     1     -41.721  56.449 -56.116  1.00  0.00    -0.307 N 
HETATM    7  C   UNL     1     -42.598  56.259 -57.170  1.00  0.00     0.257 C 
HETATM    8  O   UNL     1     -43.369  55.321 -57.328  1.00  0.00    -0.267 OA
HETATM    9  H   UNL     1     -40.956  57.100 -56.244  1.00  0.00     0.170 HD
BRANCH   7  10
HETATM   10  C   UNL     1     -42.479  57.260 -58.245  1.00  0.00     0.032 A 
HETATM   11  C   UNL     1     -42.261  58.604 -57.924  1.00  0.00     0.020 A 
HETATM   12  C   UNL     1     -42.059  59.532 -58.947  1.00  0.00     0.038 A 
HETATM   13  C   UNL     1     -42.060  59.108 -60.277  1.00  0.00     0.069 A 
HETATM   14  C   UNL     1     -42.328  57.773 -60.591  1.00  0.00     0.038 A 
HETATM   15  C   UNL     1     -42.519  56.837 -59.574  1.00  0.00     0.020 A 
BRANCH  13  16
HETATM   16  O   UNL     1     -41.828  59.936 -61.341  1.00  0.00    -0.347 OA
BRANCH  16  17
HETATM   17  C   UNL     1     -42.097  61.331 -61.114  1.00  0.00     0.120 C 
HETATM   18  C   UNL     1     -43.298  61.687 -61.989  1.00  0.00     0.040 C 
HETATM   19  C   UNL     1     -40.903  62.205 -61.504  1.00  0.00     0.040 C 
ENDBRANCH  16  17
ENDBRANCH  13  16
ENDBRANCH   7  10
ENDBRANCH   1   6
BRANCH   2  20
HETATM   20  C   UNL     1     -43.278  56.295 -53.331  1.00  0.00     0.732 A 
HETATM   21  N   UNL     1     -43.588  57.466 -53.790  1.00  0.00    -0.067 NA
HETATM   22  C   UNL     1     -44.371  58.255 -52.975  1.00  0.00     0.065 A 
HETATM   23  C   UNL     1     -44.819  57.881 -51.761  1.00  0.00     0.036 A 
HETATM   24  C   UNL     1     -44.715  59.612 -53.546  1.00  0.00     0.060 C 
HETATM   25  C   UNL     1     -45.658  58.741 -50.863  1.00  0.00     0.046 C 
HETATM   26  C   UNL     1     -44.435  56.541 -51.261  1.00  0.00     0.268 A 
HETATM   27  C   UNL     1     -45.677  60.208 -51.294  1.00  0.00     0.005 C 
HETATM   28  C   UNL     1     -45.846  60.330 -52.803  1.00  0.00     0.006 C 
HETATM   29  O   UNL     1     -44.795  56.119 -50.168  1.00  0.00    -0.267 OA
HETATM   30  N   UNL     1     -43.644  55.822 -52.099  1.00  0.00    -0.152 N 
HETATM   31  H   UNL     1     -43.327  54.905 -51.807  1.00  0.00     0.188 HD
ENDBRANCH   2  20
BRANCH   4  32
HETATM   32  C   UNL     1     -40.514  52.388 -53.548  1.00  0.00     0.105 A 
HETATM   33  O   UNL     1     -40.018  52.145 -52.295  1.00  0.00    -0.320 OA
HETATM   34  C   UNL     1     -39.517  50.883 -52.298  1.00  0.00     0.142 A 
HETATM   35  C   UNL     1     -39.678  50.303 -53.534  1.00  0.00     0.027 A 
HETATM   36  C   UNL     1     -40.321  51.274 -54.341  1.00  0.00     0.041 A 
ENDBRANCH   4  32
TORSDOF 6
ENDMDL
MODEL 3
REMARK VINA RESULT:      -9.0      2.242      8.962
REMARK  6 active torsions:
REMARK  status: ('A' for Active; 'I' for Inactive)
REMARK    1  A    between atoms: C_2  and  O_3 
REMARK    2  A    between atoms: O_3  and  C_4 
REMARK    3  A    between atoms: C_7  and  C_8 
REMARK       I    between atoms: C_8  and  N_9 
REMARK    4  A    between atoms: N_9  and  C_10 
REMARK    5  A    between atoms: N_11  and  C_12 
REMARK    6  A    between atoms: C_24  and  C_25 
ROOT
HETATM    1  C   UNL     1     -43.123  58.453 -52.751  1.00  0.00     0.152 C 
HETATM    2  N   UNL     1     -42.336  58.040 -51.676  1.00  0.00    -0.044 N 
HETATM    3  N   UNL     1     -42.262  59.026 -50.718  1.00  0.00    -0.148 NA
HETATM    4  C   UNL     1     -43.235  59.878 -51.063  1.00  0.00     0.115 C 
HETATM    5  C   UNL     1     -43.833  59.540 -52.294  1.00  0.00     0.087 C 
ENDROOT
BRANCH   1   6
HETATM    6  N   UNL     1     -43.174  57.895 -54.019  1.00  0.00    -0.307 N 
HETATM    7  C   UNL     1     -42.314  58.325 -55.013  1.00  0.00     0.257 C 
HETATM    8  O   UNL     1     -41.435  59.173 -54.912  1.00  0.00    -0.267 OA
HETATM    9  H   UNL     1     -44.019  57.410 -54.297  1.00  0.00     0.170 HD
BRANCH   7  10
HETATM   10  C   UNL     1     -42.591  57.756 -56.343  1.00  0.00     0.032 A 
HETATM   11  C   UNL     1     -42.709  56.370 -56.497  1.00  0.00     0.020 A 
HETATM   12  C   UNL     1     -43.062  55.844 -57.741  1.00  0.00     0.038 A 
HETATM   13  C   UNL     1     -43.308  56.703 -58.813  1.00  0.00     0.069 A 
HETATM   14  C   UNL     1     -43.139  58.083 -58.664  1.00  0.00     0.038 A 
HETATM   15  C   UNL     1     -42.799  58.618 -57.421  1.00  0.00     0.020 A 
BRANCH  13  16
HETATM   16  O   UNL     1     -43.700  56.281 -60.054  1.00  0.00    -0.347 OA
BRANCH  16  17
HETATM   17  C   UNL     1     -44.926  55.529 -60.097  1.00  0.00     0.120 C 
HETATM   18  C   UNL     1     -44.993  54.890 -61.482  1.00  0.00     0.040 C 
HETATM   19  C   UNL     1     -46.145  56.431 -59.890  1.00  0.00     0.040 C 
ENDBRANCH  16  17
ENDBRANCH  13  16
ENDBRANCH   7  10
ENDBRANCH   1   6
BRANCH   2  20
HETATM   20  C   UNL     1     -41.793  56.773 -51.365  1.00  0.00     0.732 A 
HETATM   21  N   UNL     1     -41.508  55.858 -52.236  1.00  0.00    -0.067 NA
HETATM   22  C   UNL     1     -41.013  54.673 -51.737  1.00  0.00     0.065 A 
HETATM   23  C   UNL     1     -40.815  54.424 -50.429  1.00  0.00     0.036 A 
HETATM   24  C   UNL     1     -40.688  53.631 -52.783  1.00  0.00     0.060 C 
HETATM   25  C   UNL     1     -40.291  53.130 -49.878  1.00  0.00     0.046 C 
HETATM   26  C   UNL     1     -41.164  55.487 -49.459  1.00  0.00     0.268 A 
HETATM   27  C   UNL     1     -40.324  51.995 -50.902  1.00  0.00     0.005 C 
HETATM   28  C   UNL     1     -39.832  52.472 -52.262  1.00  0.00     0.006 C 
HETATM   29  O   UNL     1     -41.019  55.349 -48.250  1.00  0.00    -0.267 OA
HETATM   30  N   UNL     1     -41.668  56.621 -50.009  1.00  0.00    -0.152 N 
HETATM   31  H   UNL     1     -41.949  57.380 -49.399  1.00  0.00     0.188 HD
ENDBRANCH   2  20
BRANCH   4  32
HETATM   32  C   UNL     1     -43.600  61.064 -50.235  1.00  0.00     0.105 A 
HETATM   33  O   UNL     1     -44.436  61.024 -49.151  1.00  0.00    -0.320 OA
HETATM   34  C   UNL     1     -44.524  62.288 -48.664  1.00  0.00     0.142 A 
HETATM   35  C   UNL     1     -43.760  63.149 -49.415  1.00  0.00     0.027 A 
HETATM   36  C   UNL     1     -43.163  62.361 -50.429  1.00  0.00     0.041 A 
ENDBRANCH   4  32
TORSDOF 6
ENDMDL
MODEL 4
REMARK VINA RESULT:      -8.9      1.888      6.048
REMARK  6 active torsions:
REMARK  status: ('A' for Active; 'I' for Inactive)
REMARK    1  A    between atoms: C_2  and  O_3 
REMARK    2  A    between atoms: O_3  and  C_4 
REMARK    3  A    between atoms: C_7  and  C_8 
REMARK       I    between atoms: C_8  and  N_9 
REMARK    4  A    between atoms: N_9  and  C_10 
REMARK    5  A    between atoms: N_11  and  C_12 
REMARK    6  A    between atoms: C_24  and  C_25 
ROOT
HETATM    1  C   UNL     1     -43.430  57.534 -54.343  1.00  0.00     0.152 C 
HETATM    2  N   UNL     1     -42.810  56.285 -54.312  1.00  0.00    -0.044 N 
HETATM    3  N   UNL     1     -42.700  55.762 -55.582  1.00  0.00    -0.148 NA
HETATM    4  C   UNL     1     -42.957  56.807 -56.378  1.00  0.00     0.115 C 
HETATM    5  C   UNL     1     -43.368  57.946 -55.655  1.00  0.00     0.087 C 
ENDROOT
BRANCH   1   6
HETATM    6  N   UNL     1     -43.998  58.217 -53.279  1.00  0.00    -0.307 N 
HETATM    7  C   UNL     1     -43.269  59.161 -52.579  1.00  0.00     0.257 C 
HETATM    8  O   UNL     1     -42.118  59.519 -52.801  1.00  0.00    -0.267 OA
HETATM    9  H   UNL     1     -44.815  57.817 -52.832  1.00  0.00     0.170 HD
BRANCH   7  10
HETATM   10  C   UNL     1     -43.949  59.687 -51.382  1.00  0.00     0.032 A 
HETATM   11  C   UNL     1     -43.434  60.810 -50.726  1.00  0.00     0.020 A 
HETATM   12  C   UNL     1     -44.133  61.358 -49.648  1.00  0.00     0.038 A 
HETATM   13  C   UNL     1     -45.343  60.789 -49.246  1.00  0.00     0.069 A 
HETATM   14  C   UNL     1     -45.824  59.638 -49.875  1.00  0.00     0.038 A 
HETATM   15  C   UNL     1     -45.138  59.092 -50.960  1.00  0.00     0.020 A 
BRANCH  13  16
HETATM   16  O   UNL     1     -46.116  61.283 -48.231  1.00  0.00    -0.347 OA
BRANCH  16  17
HETATM   17  C   UNL     1     -45.537  61.211 -46.916  1.00  0.00     0.120 C 
HETATM   18  C   UNL     1     -46.318  60.140 -46.158  1.00  0.00     0.040 C 
HETATM   19  C   UNL     1     -45.651  62.547 -46.178  1.00  0.00     0.040 C 
ENDBRANCH  16  17
ENDBRANCH  13  16
ENDBRANCH   7  10
ENDBRANCH   1   6
BRANCH   2  20
HETATM   20  C   UNL     1     -42.155  55.607 -53.259  1.00  0.00     0.732 A 
HETATM   21  N   UNL     1     -42.118  56.014 -52.030  1.00  0.00    -0.067 NA
HETATM   22  C   UNL     1     -41.404  55.231 -51.148  1.00  0.00     0.065 A 
HETATM   23  C   UNL     1     -40.762  54.098 -51.489  1.00  0.00     0.036 A 
HETATM   24  C   UNL     1     -41.387  55.735 -49.723  1.00  0.00     0.060 C 
HETATM   25  C   UNL     1     -39.970  53.250 -50.538  1.00  0.00     0.046 C 
HETATM   26  C   UNL     1     -40.813  53.669 -52.906  1.00  0.00     0.268 A 
HETATM   27  C   UNL     1     -39.666  53.964 -49.220  1.00  0.00     0.005 C 
HETATM   28  C   UNL     1     -40.895  54.703 -48.705  1.00  0.00     0.006 C 
HETATM   29  O   UNL     1     -40.257  52.653 -53.306  1.00  0.00    -0.267 OA
HETATM   30  N   UNL     1     -41.512  54.493 -53.728  1.00  0.00    -0.152 N 
HETATM   31  H   UNL     1     -41.567  54.269 -54.715  1.00  0.00     0.188 HD
ENDBRANCH   2  20
BRANCH   4  32
HETATM   32  C   UNL     1     -42.846  56.735 -57.864  1.00  0.00     0.105 A 
HETATM   33  O   UNL     1     -42.199  57.661 -58.637  1.00  0.00    -0.320 OA
HETATM   34  C   UNL     1     -42.313  57.257 -59.929  1.00  0.00     0.142 A 
HETATM   35  C   UNL     1     -43.024  56.083 -60.006  1.00  0.00     0.027 A 
HETATM   36  C   UNL     1     -43.368  55.745 -58.675  1.00  0.00     0.041 A 
ENDBRANCH   4  32
TORSDOF 6
ENDMDL
MODEL 5
REMARK VINA RESULT:      -8.7      1.974      7.373
REMARK  6 active torsions:
REMARK  status: ('A' for Active; 'I' for Inactive)
REMARK    1  A    between atoms: C_2  and  O_3 
REMARK    2  A    between atoms: O_3  and  C_4 
REMARK    3  A    between atoms: C_7  and  C_8 
REMARK       I    between atoms: C_8  and  N_9 
REMARK    4  A    between atoms: N_9  and  C_10 
REMARK    5  A    between atoms: N_11  and  C_12 
REMARK    6  A    between atoms: C_24  and  C_25 
ROOT
HETATM    1  C   UNL     1     -41.221  55.221 -54.894  1.00  0.00     0.152 C 
HETATM    2  N   UNL     1     -41.757  55.285 -53.608  1.00  0.00    -0.044 N 
HETATM    3  N   UNL     1     -41.659  54.065 -52.977  1.00  0.00    -0.148 NA
HETATM    4  C   UNL     1     -40.802  53.379 -53.743  1.00  0.00     0.115 C 
HETATM    5  C   UNL     1     -40.462  54.073 -54.922  1.00  0.00     0.087 C 
ENDROOT
BRANCH   1   6
HETATM    6  N   UNL     1     -41.417  56.118 -55.933  1.00  0.00    -0.307 N 
HETATM    7  C   UNL     1     -42.437  55.925 -56.847  1.00  0.00     0.257 C 
HETATM    8  O   UNL     1     -43.265  55.021 -56.849  1.00  0.00    -0.267 OA
HETATM    9  H   UNL     1     -40.648  56.722 -56.197  1.00  0.00     0.170 HD
BRANCH   7  10
HETATM   10  C   UNL     1     -42.423  56.867 -57.980  1.00  0.00     0.032 A 
HETATM   11  C   UNL     1     -42.202  58.229 -57.750  1.00  0.00     0.020 A 
HETATM   12  C   UNL     1     -42.099  59.102 -58.834  1.00  0.00     0.038 A 
HETATM   13  C   UNL     1     -42.202  58.606 -60.136  1.00  0.00     0.069 A 
HETATM   14  C   UNL     1     -42.472  57.252 -60.355  1.00  0.00     0.038 A 
HETATM   15  C   UNL     1     -42.564  56.372 -59.276  1.00  0.00     0.020 A 
BRANCH  13  16
HETATM   16  O   UNL     1     -42.070  59.378 -61.257  1.00  0.00    -0.347 OA
BRANCH  16  17
HETATM   17  C   UNL     1     -42.690  60.674 -61.197  1.00  0.00     0.120 C 
HETATM   18  C   UNL     1     -44.131  60.487 -61.668  1.00  0.00     0.040 C 
HETATM   19  C   UNL     1     -41.980  61.679 -62.107  1.00  0.00     0.040 C 
ENDBRANCH  16  17
ENDBRANCH  13  16
ENDBRANCH   7  10
ENDBRANCH   1   6
BRANCH   2  20
HETATM   20  C   UNL     1     -42.189  56.392 -52.845  1.00  0.00     0.732 A 
HETATM   21  N   UNL     1     -43.424  56.644 -52.543  1.00  0.00    -0.067 NA
HETATM   22  C   UNL     1     -43.652  57.791 -51.813  1.00  0.00     0.065 A 
HETATM   23  C   UNL     1     -42.686  58.638 -51.409  1.00  0.00     0.036 A 
HETATM   24  C   UNL     1     -45.103  58.051 -51.476  1.00  0.00     0.060 C 
HETATM   25  C   UNL     1     -42.930  59.896 -50.628  1.00  0.00     0.046 C 
HETATM   26  C   UNL     1     -41.287  58.327 -51.783  1.00  0.00     0.268 A 
HETATM   27  C   UNL     1     -44.400  60.316 -50.625  1.00  0.00     0.005 C 
HETATM   28  C   UNL     1     -45.309  59.115 -50.395  1.00  0.00     0.006 C 
HETATM   29  O   UNL     1     -40.345  59.041 -51.460  1.00  0.00    -0.267 OA
HETATM   30  N   UNL     1     -41.130  57.198 -52.521  1.00  0.00    -0.152 N 
HETATM   31  H   UNL     1     -40.200  56.939 -52.829  1.00  0.00     0.188 HD
ENDBRANCH   2  20
BRANCH   4  32
HETATM   32  C   UNL     1     -40.307  52.019 -53.381  1.00  0.00     0.105 A 
HETATM   33  O   UNL     1     -39.867  51.663 -52.134  1.00  0.00    -0.320 OA
HETATM   34  C   UNL     1     -39.501  50.356 -52.195  1.00  0.00     0.142 A 
HETATM   35  C   UNL     1     -39.696  49.859 -53.462  1.00  0.00     0.027 A 
HETATM   36  C   UNL     1     -40.216  50.931 -54.228  1.00  0.00     0.041 A 
ENDBRANCH   4  32
TORSDOF 6
ENDMDL
MODEL 6
REMARK VINA RESULT:      -8.6      2.004      7.806
REMARK  6 active torsions:
REMARK  status: ('A' for Active; 'I' for Inactive)
REMARK    1  A    between atoms: C_2  and  O_3 
REMARK    2  A    between atoms: O_3  and  C_4 
REMARK    3  A    between atoms: C_7  and  C_8 
REMARK       I    between atoms: C_8  and  N_9 
REMARK    4  A    between atoms: N_9  and  C_10 
REMARK    5  A    between atoms: N_11  and  C_12 
REMARK    6  A    between atoms: C_24  and  C_25 
ROOT
HETATM    1  C   UNL     1     -43.829  57.761 -52.881  1.00  0.00     0.152 C 
HETATM    2  N   UNL     1     -44.669  58.218 -53.897  1.00  0.00    -0.044 N 
HETATM    3  N   UNL     1     -45.487  59.225 -53.438  1.00  0.00    -0.148 NA
HETATM    4  C   UNL     1     -44.933  59.579 -52.273  1.00  0.00     0.115 C 
HETATM    5  C   UNL     1     -43.868  58.731 -51.905  1.00  0.00     0.087 C 
ENDROOT
BRANCH   1   6
HETATM    6  N   UNL     1     -43.110  56.576 -52.852  1.00  0.00    -0.307 N 
HETATM    7  C   UNL     1     -41.762  56.563 -53.164  1.00  0.00     0.257 C 
HETATM    8  O   UNL     1     -41.063  57.525 -53.458  1.00  0.00    -0.267 OA
HETATM    9  H   UNL     1     -43.621  55.703 -52.905  1.00  0.00     0.170 HD
BRANCH   7  10
HETATM   10  C   UNL     1     -41.172  55.215 -53.245  1.00  0.00     0.032 A 
HETATM   11  C   UNL     1     -40.740  54.717 -54.479  1.00  0.00     0.020 A 
HETATM   12  C   UNL     1     -40.099  53.478 -54.534  1.00  0.00     0.038 A 
HETATM   13  C   UNL     1     -39.883  52.756 -53.359  1.00  0.00     0.069 A 
HETATM   14  C   UNL     1     -40.363  53.238 -52.138  1.00  0.00     0.038 A 
HETATM   15  C   UNL     1     -40.993  54.481 -52.072  1.00  0.00     0.020 A 
BRANCH  13  16
HETATM   16  O   UNL     1     -39.227  51.557 -53.312  1.00  0.00    -0.347 OA
BRANCH  16  17
HETATM   17  C   UNL     1     -40.056  50.388 -53.444  1.00  0.00     0.120 C 
HETATM   18  C   UNL     1     -39.604  49.413 -52.358  1.00  0.00     0.040 C 
HETATM   19  C   UNL     1     -39.892  49.736 -54.818  1.00  0.00     0.040 C 
ENDBRANCH  16  17
ENDBRANCH  13  16
ENDBRANCH   7  10
ENDBRANCH   1   6
BRANCH   2  20
HETATM   20  C   UNL     1     -44.672  57.941 -55.283  1.00  0.00     0.732 A 
HETATM   21  N   UNL     1     -43.748  57.280 -55.905  1.00  0.00    -0.067 NA
HETATM   22  C   UNL     1     -43.912  57.137 -57.267  1.00  0.00     0.065 A 
HETATM   23  C   UNL     1     -44.952  57.635 -57.962  1.00  0.00     0.036 A 
HETATM   24  C   UNL     1     -42.818  56.356 -57.959  1.00  0.00     0.060 C 
HETATM   25  C   UNL     1     -45.128  57.496 -59.445  1.00  0.00     0.046 C 
HETATM   26  C   UNL     1     -45.983  58.398 -57.221  1.00  0.00     0.268 A 
HETATM   27  C   UNL     1     -43.852  57.038 -60.153  1.00  0.00     0.005 C 
HETATM   28  C   UNL     1     -43.174  55.914 -59.381  1.00  0.00     0.006 C 
HETATM   29  O   UNL     1     -46.962  58.887 -57.771  1.00  0.00    -0.267 OA
HETATM   30  N   UNL     1     -45.754  58.523 -55.888  1.00  0.00    -0.152 N 
HETATM   31  H   UNL     1     -46.409  59.053 -55.325  1.00  0.00     0.188 HD
ENDBRANCH   2  20
BRANCH   4  32
HETATM   32  C   UNL     1     -45.430  60.726 -51.459  1.00  0.00     0.105 A 
HETATM   33  O   UNL     1     -45.750  60.650 -50.130  1.00  0.00    -0.320 OA
HETATM   34  C   UNL     1     -46.160  61.886 -49.743  1.00  0.00     0.142 A 
HETATM   35  C   UNL     1     -46.113  62.762 -50.800  1.00  0.00     0.027 A 
HETATM   36  C   UNL     1     -45.641  62.016 -51.908  1.00  0.00     0.041 A 
ENDBRANCH   4  32
TORSDOF 6
ENDMDL
MODEL 7
REMARK VINA RESULT:      -8.6      1.833      7.736
REMARK  6 active torsions:
REMARK  status: ('A' for Active; 'I' for Inactive)
REMARK    1  A    between atoms: C_2  and  O_3 
REMARK    2  A    between atoms: O_3  and  C_4 
REMARK    3  A    between atoms: C_7  and  C_8 
REMARK       I    between atoms: C_8  and  N_9 
REMARK    4  A    between atoms: N_9  and  C_10 
REMARK    5  A    between atoms: N_11  and  C_12 
REMARK    6  A    between atoms: C_24  and  C_25 
ROOT
HETATM    1  C   UNL     1     -43.704  57.902 -53.166  1.00  0.00     0.152 C 
HETATM    2  N   UNL     1     -44.179  58.519 -54.323  1.00  0.00    -0.044 N 
HETATM    3  N   UNL     1     -45.122  59.474 -54.015  1.00  0.00    -0.148 NA
HETATM    4  C   UNL     1     -44.982  59.645 -52.695  1.00  0.00     0.115 C 
HETATM    5  C   UNL     1     -44.077  58.725 -52.127  1.00  0.00     0.087 C 
ENDROOT
BRANCH   1   6
HETATM    6  N   UNL     1     -43.009  56.706 -53.075  1.00  0.00    -0.307 N 
HETATM    7  C   UNL     1     -41.666  56.646 -53.399  1.00  0.00     0.257 C 
HETATM    8  O   UNL     1     -40.950  57.574 -53.756  1.00  0.00    -0.267 OA
HETATM    9  H   UNL     1     -43.538  55.842 -53.072  1.00  0.00     0.170 HD
BRANCH   7  10
HETATM   10  C   UNL     1     -41.104  55.283 -53.407  1.00  0.00     0.032 A 
HETATM   11  C   UNL     1     -40.565  54.759 -54.587  1.00  0.00     0.020 A 
HETATM   12  C   UNL     1     -39.953  53.505 -54.567  1.00  0.00     0.038 A 
HETATM   13  C   UNL     1     -39.872  52.793 -53.368  1.00  0.00     0.069 A 
HETATM   14  C   UNL     1     -40.457  53.302 -52.205  1.00  0.00     0.038 A 
HETATM   15  C   UNL     1     -41.059  54.560 -52.215  1.00  0.00     0.020 A 
BRANCH  13  16
HETATM   16  O   UNL     1     -39.254  51.579 -53.244  1.00  0.00    -0.347 OA
BRANCH  16  17
HETATM   17  C   UNL     1     -40.103  50.429 -53.402  1.00  0.00     0.120 C 
HETATM   18  C   UNL     1     -39.675  49.425 -52.334  1.00  0.00     0.040 C 
HETATM   19  C   UNL     1     -39.944  49.800 -54.788  1.00  0.00     0.040 C 
ENDBRANCH  16  17
ENDBRANCH  13  16
ENDBRANCH   7  10
ENDBRANCH   1   6
BRANCH   2  20
HETATM   20  C   UNL     1     -43.728  58.441 -55.659  1.00  0.00     0.732 A 
HETATM   21  N   UNL     1     -44.144  57.576 -56.529  1.00  0.00    -0.067 NA
HETATM   22  C   UNL     1     -43.564  57.638 -57.778  1.00  0.00     0.065 A 
HETATM   23  C   UNL     1     -42.614  58.526 -58.130  1.00  0.00     0.036 A 
HETATM   24  C   UNL     1     -44.076  56.617 -58.768  1.00  0.00     0.060 C 
HETATM   25  C   UNL     1     -41.967  58.588 -59.482  1.00  0.00     0.046 C 
HETATM   26  C   UNL     1     -42.152  59.492 -57.107  1.00  0.00     0.268 A 
HETATM   27  C   UNL     1     -42.230  57.338 -60.323  1.00  0.00     0.005 C 
HETATM   28  C   UNL     1     -43.688  56.908 -60.220  1.00  0.00     0.006 C 
HETATM   29  O   UNL     1     -41.292  60.334 -57.337  1.00  0.00    -0.267 OA
HETATM   30  N   UNL     1     -42.744  59.365 -55.892  1.00  0.00    -0.152 N 
HETATM   31  H   UNL     1     -42.458  59.981 -55.140  1.00  0.00     0.188 HD
ENDBRANCH   2  20
BRANCH   4  32
HETATM   32  C   UNL     1     -45.739  60.679 -51.930  1.00  0.00     0.105 A 
HETATM   33  O   UNL     1     -46.784  61.404 -52.436  1.00  0.00    -0.320 OA
HETATM   34  C   UNL     1     -47.210  62.236 -51.452  1.00  0.00     0.142 A 
HETATM   35  C   UNL     1     -46.458  62.064 -50.315  1.00  0.00     0.027 A 
HETATM   36  C   UNL     1     -45.508  61.059 -50.622  1.00  0.00     0.041 A 
ENDBRANCH   4  32
TORSDOF 6
ENDMDL
MODEL 8
REMARK VINA RESULT:      -8.6      2.267      7.674
REMARK  6 active torsions:
REMARK  status: ('A' for Active; 'I' for Inactive)
REMARK    1  A    between atoms: C_2  and  O_3 
REMARK    2  A    between atoms: O_3  and  C_4 
REMARK    3  A    between atoms: C_7  and  C_8 
REMARK       I    between atoms: C_8  and  N_9 
REMARK    4  A    between atoms: N_9  and  C_10 
REMARK    5  A    between atoms: N_11  and  C_12 
REMARK    6  A    between atoms: C_24  and  C_25 
ROOT
HETATM    1  C   UNL     1     -41.806  58.554 -53.052  1.00  0.00     0.152 C 
HETATM    2  N   UNL     1     -42.473  59.153 -54.121  1.00  0.00    -0.044 N 
HETATM    3  N   UNL     1     -43.142  60.283 -53.707  1.00  0.00    -0.148 NA
HETATM    4  C   UNL     1     -42.629  60.531 -52.497  1.00  0.00     0.115 C 
HETATM    5  C   UNL     1     -41.756  59.511 -52.064  1.00  0.00     0.087 C 
ENDROOT
BRANCH   1   6
HETATM    6  N   UNL     1     -41.304  57.263 -52.990  1.00  0.00    -0.307 N 
HETATM    7  C   UNL     1     -42.126  56.205 -52.644  1.00  0.00     0.257 C 
HETATM    8  O   UNL     1     -43.324  56.252 -52.393  1.00  0.00    -0.267 OA
HETATM    9  H   UNL     1     -40.303  57.141 -52.895  1.00  0.00     0.170 HD
BRANCH   7  10
HETATM   10  C   UNL     1     -41.421  54.924 -52.465  1.00  0.00     0.032 A 
HETATM   11  C   UNL     1     -41.126  54.130 -53.579  1.00  0.00     0.020 A 
HETATM   12  C   UNL     1     -40.378  52.962 -53.414  1.00  0.00     0.038 A 
HETATM   13  C   UNL     1     -39.920  52.607 -52.144  1.00  0.00     0.069 A 
HETATM   14  C   UNL     1     -40.261  53.379 -51.030  1.00  0.00     0.038 A 
HETATM   15  C   UNL     1     -40.998  54.553 -51.189  1.00  0.00     0.020 A 
BRANCH  13  16
HETATM   16  O   UNL     1     -39.147  51.507 -51.894  1.00  0.00    -0.347 OA
BRANCH  16  17
HETATM   17  C   UNL     1     -39.830  50.242 -51.938  1.00  0.00     0.120 C 
HETATM   18  C   UNL     1     -39.386  49.468 -50.699  1.00  0.00     0.040 C 
HETATM   19  C   UNL     1     -39.465  49.449 -53.195  1.00  0.00     0.040 C 
ENDBRANCH  16  17
ENDBRANCH  13  16
ENDBRANCH   7  10
ENDBRANCH   1   6
BRANCH   2  20
HETATM   20  C   UNL     1     -42.414  58.888 -55.507  1.00  0.00     0.732 A 
HETATM   21  N   UNL     1     -42.766  57.771 -56.061  1.00  0.00    -0.067 NA
HETATM   22  C   UNL     1     -42.609  57.691 -57.428  1.00  0.00     0.065 A 
HETATM   23  C   UNL     1     -42.122  58.685 -58.196  1.00  0.00     0.036 A 
HETATM   24  C   UNL     1     -43.034  56.376 -58.040  1.00  0.00     0.060 C 
HETATM   25  C   UNL     1     -41.933  58.598 -59.681  1.00  0.00     0.046 C 
HETATM   26  C   UNL     1     -41.716  59.943 -57.528  1.00  0.00     0.268 A 
HETATM   27  C   UNL     1     -42.018  57.164 -60.206  1.00  0.00     0.005 C 
HETATM   28  C   UNL     1     -43.179  56.416 -59.564  1.00  0.00     0.006 C 
HETATM   29  O   UNL     1     -41.261  60.899 -58.145  1.00  0.00    -0.267 OA
HETATM   30  N   UNL     1     -41.874  59.952 -56.179  1.00  0.00    -0.152 N 
HETATM   31  H   UNL     1     -41.594  60.775 -55.658  1.00  0.00     0.188 HD
ENDBRANCH   2  20
BRANCH   4  32
HETATM   32  C   UNL     1     -42.986  61.742 -51.702  1.00  0.00     0.105 A 
HETATM   33  O   UNL     1     -43.298  62.959 -52.245  1.00  0.00    -0.320 OA
HETATM   34  C   UNL     1     -43.563  63.803 -51.215  1.00  0.00     0.142 A 
HETATM   35  C   UNL     1     -43.426  63.154 -50.011  1.00  0.00     0.027 A 
HETATM   36  C   UNL     1     -43.054  61.823 -50.324  1.00  0.00     0.041 A 
ENDBRANCH   4  32
TORSDOF 6
ENDMDL
MODEL 9
REMARK VINA RESULT:      -8.6      2.564      8.645
REMARK  6 active torsions:
REMARK  status: ('A' for Active; 'I' for Inactive)
REMARK    1  A    between atoms: C_2  and  O_3 
REMARK    2  A    between atoms: O_3  and  C_4 
REMARK    3  A    between atoms: C_7  and  C_8 
REMARK       I    between atoms: C_8  and  N_9 
REMARK    4  A    between atoms: N_9  and  C_10 
REMARK    5  A    between atoms: N_11  and  C_12 
REMARK    6  A    between atoms: C_24  and  C_25 
ROOT
HETATM    1  C   UNL     1     -42.356  57.313 -56.701  1.00  0.00     0.152 C 
HETATM    2  N   UNL     1     -42.321  58.627 -56.233  1.00  0.00    -0.044 N 
HETATM    3  N   UNL     1     -42.627  59.513 -57.241  1.00  0.00    -0.148 NA
HETATM    4  C   UNL     1     -43.142  58.737 -58.201  1.00  0.00     0.115 C 
HETATM    5  C   UNL     1     -43.042  57.365 -57.894  1.00  0.00     0.087 C 
ENDROOT
BRANCH   1   6
HETATM    6  N   UNL     1     -41.810  56.191 -56.100  1.00  0.00    -0.307 N 
HETATM    7  C   UNL     1     -42.479  55.545 -55.076  1.00  0.00     0.257 C 
HETATM    8  O   UNL     1     -43.576  55.834 -54.613  1.00  0.00    -0.267 OA
HETATM    9  H   UNL     1     -40.814  56.032 -56.193  1.00  0.00     0.170 HD
BRANCH   7  10
HETATM   10  C   UNL     1     -41.707  54.468 -54.431  1.00  0.00     0.032 A 
HETATM   11  C   UNL     1     -40.719  53.790 -55.155  1.00  0.00     0.020 A 
HETATM   12  C   UNL     1     -39.929  52.835 -54.513  1.00  0.00     0.038 A 
HETATM   13  C   UNL     1     -40.122  52.576 -53.154  1.00  0.00     0.069 A 
HETATM   14  C   UNL     1     -41.143  53.222 -52.451  1.00  0.00     0.038 A 
HETATM   15  C   UNL     1     -41.928  54.187 -53.083  1.00  0.00     0.020 A 
BRANCH  13  16
HETATM   16  O   UNL     1     -39.368  51.691 -52.433  1.00  0.00    -0.347 OA
BRANCH  16  17
HETATM   17  C   UNL     1     -39.931  50.377 -52.278  1.00  0.00     0.120 C 
HETATM   18  C   UNL     1     -39.428  49.847 -50.936  1.00  0.00     0.040 C 
HETATM   19  C   UNL     1     -39.482  49.437 -53.399  1.00  0.00     0.040 C 
ENDBRANCH  16  17
ENDBRANCH  13  16
ENDBRANCH   7  10
ENDBRANCH   1   6
BRANCH   2  20
HETATM   20  C   UNL     1     -42.206  59.133 -54.918  1.00  0.00     0.732 A 
HETATM   21  N   UNL     1     -41.362  58.705 -54.034  1.00  0.00    -0.067 NA
HETATM   22  C   UNL     1     -41.421  59.304 -52.794  1.00  0.00     0.065 A 
HETATM   23  C   UNL     1     -42.285  60.283 -52.464  1.00  0.00     0.036 A 
HETATM   24  C   UNL     1     -40.418  58.782 -51.789  1.00  0.00     0.060 C 
HETATM   25  C   UNL     1     -42.364  60.927 -51.112  1.00  0.00     0.046 C 
HETATM   26  C   UNL     1     -43.245  60.738 -53.495  1.00  0.00     0.268 A 
HETATM   27  C   UNL     1     -41.612  60.142 -50.036  1.00  0.00     0.005 C 
HETATM   28  C   UNL     1     -40.259  59.670 -50.552  1.00  0.00     0.006 C 
HETATM   29  O   UNL     1     -44.068  61.621 -53.284  1.00  0.00    -0.267 OA
HETATM   30  N   UNL     1     -43.153  60.095 -54.687  1.00  0.00    -0.152 N 
HETATM   31  H   UNL     1     -43.797  60.343 -55.430  1.00  0.00     0.188 HD
ENDBRANCH   2  20
BRANCH   4  32
HETATM   32  C   UNL     1     -43.718  59.289 -59.462  1.00  0.00     0.105 A 
HETATM   33  O   UNL     1     -42.978  59.824 -60.482  1.00  0.00    -0.320 OA
HETATM   34  C   UNL     1     -43.848  60.216 -61.448  1.00  0.00     0.142 A 
HETATM   35  C   UNL     1     -45.142  59.945 -61.071  1.00  0.00     0.027 A 
HETATM   36  C   UNL     1     -45.060  59.346 -59.790  1.00  0.00     0.041 A 
ENDBRANCH   4  32
TORSDOF 6
ENDMDL
MODEL 10
REMARK VINA RESULT:      -8.2      2.430      7.862
REMARK  6 active torsions:
REMARK  status: ('A' for Active; 'I' for Inactive)
REMARK    1  A    between atoms: C_2  and  O_3 
REMARK    2  A    between atoms: O_3  and  C_4 
REMARK    3  A    between atoms: C_7  and  C_8 
REMARK       I    between atoms: C_8  and  N_9 
REMARK    4  A    between atoms: N_9  and  C_10 
REMARK    5  A    between atoms: N_11  and  C_12 
REMARK    6  A    between atoms: C_24  and  C_25 
ROOT
HETATM    1  C   UNL     1     -44.579  58.691 -51.344  1.00  0.00     0.152 C 
HETATM    2  N   UNL     1     -45.158  58.964 -52.583  1.00  0.00    -0.044 N 
HETATM    3  N   UNL     1     -46.038  60.019 -52.489  1.00  0.00    -0.148 NA
HETATM    4  C   UNL     1     -45.754  60.565 -51.301  1.00  0.00     0.115 C 
HETATM    5  C   UNL     1     -44.818  59.805 -50.570  1.00  0.00     0.087 C 
ENDROOT
BRANCH   1   6
HETATM    6  N   UNL     1     -43.910  57.538 -50.964  1.00  0.00    -0.307 N 
HETATM    7  C   UNL     1     -42.538  57.442 -51.106  1.00  0.00     0.257 C 
HETATM    8  O   UNL     1     -41.777  58.305 -51.528  1.00  0.00    -0.267 OA
HETATM    9  H   UNL     1     -44.442  56.681 -50.876  1.00  0.00     0.170 HD
BRANCH   7  10
HETATM   10  C   UNL     1     -41.990  56.106 -50.810  1.00  0.00     0.032 A 
HETATM   11  C   UNL     1     -42.469  54.988 -51.501  1.00  0.00     0.020 A 
HETATM   12  C   UNL     1     -41.883  53.740 -51.281  1.00  0.00     0.038 A 
HETATM   13  C   UNL     1     -40.817  53.623 -50.387  1.00  0.00     0.069 A 
HETATM   14  C   UNL     1     -40.378  54.735 -49.664  1.00  0.00     0.038 A 
HETATM   15  C   UNL     1     -40.950  55.988 -49.887  1.00  0.00     0.020 A 
BRANCH  13  16
HETATM   16  O   UNL     1     -40.154  52.452 -50.142  1.00  0.00    -0.347 OA
BRANCH  16  17
HETATM   17  C   UNL     1     -40.252  51.453 -51.173  1.00  0.00     0.120 C 
HETATM   18  C   UNL     1     -39.940  50.114 -50.508  1.00  0.00     0.040 C 
HETATM   19  C   UNL     1     -39.251  51.711 -52.301  1.00  0.00     0.040 C 
ENDBRANCH  16  17
ENDBRANCH  13  16
ENDBRANCH   7  10
ENDBRANCH   1   6
BRANCH   2  20
HETATM   20  C   UNL     1     -44.854  58.469 -53.871  1.00  0.00     0.732 A 
HETATM   21  N   UNL     1     -43.997  57.529 -54.117  1.00  0.00    -0.067 NA
HETATM   22  C   UNL     1     -43.814  57.201 -55.443  1.00  0.00     0.065 A 
HETATM   23  C   UNL     1     -44.462  57.789 -56.467  1.00  0.00     0.036 A 
HETATM   24  C   UNL     1     -42.810  56.098 -55.691  1.00  0.00     0.060 C 
HETATM   25  C   UNL     1     -44.256  57.448 -57.913  1.00  0.00     0.046 C 
HETATM   26  C   UNL     1     -45.425  58.869 -56.151  1.00  0.00     0.268 A 
HETATM   27  C   UNL     1     -42.996  56.613 -58.150  1.00  0.00     0.005 C 
HETATM   28  C   UNL     1     -42.866  55.513 -57.105  1.00  0.00     0.006 C 
HETATM   29  O   UNL     1     -46.058  59.461 -57.017  1.00  0.00    -0.267 OA
HETATM   30  N   UNL     1     -45.544  59.162 -54.830  1.00  0.00    -0.152 N 
HETATM   31  H   UNL     1     -46.169  59.907 -54.547  1.00  0.00     0.188 HD
ENDBRANCH   2  20
BRANCH   4  32
HETATM   32  C   UNL     1     -46.399  61.820 -50.815  1.00  0.00     0.105 A 
HETATM   33  O   UNL     1     -47.426  62.460 -51.455  1.00  0.00    -0.320 OA
HETATM   34  C   UNL     1     -47.740  63.555 -50.716  1.00  0.00     0.142 A 
HETATM   35  C   UNL     1     -46.932  63.637 -49.607  1.00  0.00     0.027 A 
HETATM   36  C   UNL     1     -46.066  62.518 -49.670  1.00  0.00     0.041 A 
ENDBRANCH   4  32
TORSDOF 6
ENDMDL
