MODEL 1
REMARK VINA RESULT:      -8.2      0.000      0.000
REMARK  7 active torsions:
REMARK  status: ('A' for Active; 'I' for Inactive)
REMARK    1  A    between atoms: C_2  and  O_3 
REMARK    2  A    between atoms: O_3  and  C_4 
REMARK    3  A    between atoms: C_5  and  O_6 
REMARK    4  A    between atoms: C_10  and  C_11 
REMARK    5  A    between atoms: C_12  and  C_13 
REMARK       I    between atoms: C_13  and  N_14 
REMARK    6  A    between atoms: N_14  and  N_15 
REMARK       I    between atoms: N_15  and  C_16 
REMARK    7  A    between atoms: C_16  and  C_17 
ROOT
HETATM    1  C   UNL     1     -42.660  55.531 -56.910  1.00  0.00     0.259 C 
HETATM    2  N   UNL     1     -42.063  56.767 -56.843  1.00  0.00    -0.264 N 
HETATM    3  O   UNL     1     -43.287  55.141 -57.891  1.00  0.00    -0.267 OA
HETATM    4  H   UNL     1     -41.458  57.084 -56.088  1.00  0.00     0.190 HD
ENDROOT
BRANCH   2   5
HETATM    5  N   UNL     1     -42.123  57.581 -57.981  1.00  0.00    -0.263 N 
HETATM    6  C   UNL     1     -42.806  58.782 -57.911  1.00  0.00     0.272 C 
HETATM    7  O   UNL     1     -43.467  59.084 -56.918  1.00  0.00    -0.266 OA
HETATM    8  H   UNL     1     -41.436  57.386 -58.704  1.00  0.00     0.190 HD
BRANCH   6   9
HETATM    9  C   UNL     1     -42.669  59.645 -59.084  1.00  0.00     0.061 A 
HETATM   10  C   UNL     1     -41.791  60.775 -59.226  1.00  0.00     0.008 A 
HETATM   11  C   UNL     1     -41.978  61.312 -60.507  1.00  0.00     0.045 A 
HETATM   12  C   UNL     1     -40.846  61.390 -58.374  1.00  0.00     0.015 A 
HETATM   13  C   UNL     1     -41.253  62.428 -60.959  1.00  0.00     0.030 A 
HETATM   14  N   UNL     1     -42.939  60.544 -61.123  1.00  0.00    -0.359 N 
HETATM   15  C   UNL     1     -40.327  63.014 -60.091  1.00  0.00     0.002 A 
HETATM   16  C   UNL     1     -40.125  62.504 -58.814  1.00  0.00     0.001 A 
HETATM   17  C   UNL     1     -43.462  60.724 -62.460  1.00  0.00     0.156 C 
HETATM   18  C   UNL     1     -43.361  59.546 -60.281  1.00  0.00     0.108 A 
ENDBRANCH   6   9
ENDBRANCH   2   5
BRANCH   1  19
HETATM   19  C   UNL     1     -42.469  54.712 -55.687  1.00  0.00     0.076 C 
HETATM   20  C   UNL     1     -41.223  54.395 -55.304  1.00  0.00     0.017 C 
BRANCH  20  21
HETATM   21  C   UNL     1     -40.879  53.565 -54.141  1.00  0.00    -0.033 A 
HETATM   22  C   UNL     1     -40.196  52.365 -54.364  1.00  0.00     0.014 A 
HETATM   23  C   UNL     1     -39.807  51.552 -53.298  1.00  0.00     0.040 A 
HETATM   24  C   UNL     1     -40.087  51.931 -51.983  1.00  0.00     0.101 A 
HETATM   25  C   UNL     1     -40.771  53.140 -51.742  1.00  0.00     0.102 A 
HETATM   26  C   UNL     1     -41.153  53.950 -52.821  1.00  0.00     0.051 A 
BRANCH  24  27
HETATM   27  O   UNL     1     -39.744  51.196 -50.875  1.00  0.00    -0.353 OA
HETATM   28  C   UNL     1     -39.416  49.829 -51.071  1.00  0.00     0.210 C 
ENDBRANCH  24  27
BRANCH  25  29
HETATM   29  O   UNL     1     -41.002  53.440 -50.423  1.00  0.00    -0.349 OA
BRANCH  29  30
HETATM   30  C   UNL     1     -40.095  54.319 -49.764  1.00  0.00     0.171 C 
HETATM   31  C   UNL     1     -40.228  54.092 -48.269  1.00  0.00     0.034 C 
ENDBRANCH  29  30
ENDBRANCH  25  29
ENDBRANCH  20  21
ENDBRANCH   1  19
TORSDOF 7
ENDMDL
MODEL 2
REMARK VINA RESULT:      -8.2      2.778      4.168
REMARK  7 active torsions:
REMARK  status: ('A' for Active; 'I' for Inactive)
REMARK    1  A    between atoms: C_2  and  O_3 
REMARK    2  A    between atoms: O_3  and  C_4 
REMARK    3  A    between atoms: C_5  and  O_6 
REMARK    4  A    between atoms: C_10  and  C_11 
REMARK    5  A    between atoms: C_12  and  C_13 
REMARK       I    between atoms: C_13  and  N_14 
REMARK    6  A    between atoms: N_14  and  N_15 
REMARK       I    between atoms: N_15  and  C_16 
REMARK    7  A    between atoms: C_16  and  C_17 
ROOT
HETATM    1  C   UNL     1     -42.713  55.932 -56.351  1.00  0.00     0.259 C 
HETATM    2  N   UNL     1     -43.737  55.663 -57.225  1.00  0.00    -0.264 N 
HETATM    3  O   UNL     1     -42.242  57.054 -56.192  1.00  0.00    -0.267 OA
HETATM    4  H   UNL     1     -44.213  54.768 -57.311  1.00  0.00     0.190 HD
ENDROOT
BRANCH   2   5
HETATM    5  N   UNL     1     -44.308  56.744 -57.910  1.00  0.00    -0.263 N 
HETATM    6  C   UNL     1     -44.666  56.583 -59.236  1.00  0.00     0.272 C 
HETATM    7  O   UNL     1     -44.374  55.562 -59.858  1.00  0.00    -0.266 OA
HETATM    8  H   UNL     1     -44.684  57.489 -57.331  1.00  0.00     0.190 HD
BRANCH   6   9
HETATM    9  C   UNL     1     -45.412  57.699 -59.819  1.00  0.00     0.061 A 
HETATM   10  C   UNL     1     -46.576  57.613 -60.660  1.00  0.00     0.008 A 
HETATM   11  C   UNL     1     -46.970  58.916 -60.990  1.00  0.00     0.045 A 
HETATM   12  C   UNL     1     -47.334  56.535 -61.170  1.00  0.00     0.015 A 
HETATM   13  C   UNL     1     -48.090  59.172 -61.800  1.00  0.00     0.030 A 
HETATM   14  N   UNL     1     -46.077  59.767 -60.380  1.00  0.00    -0.359 N 
HETATM   15  C   UNL     1     -48.818  58.084 -62.289  1.00  0.00     0.002 A 
HETATM   16  C   UNL     1     -48.446  56.781 -61.980  1.00  0.00     0.001 A 
HETATM   17  C   UNL     1     -46.084  61.213 -60.441  1.00  0.00     0.156 C 
HETATM   18  C   UNL     1     -45.140  59.051 -59.679  1.00  0.00     0.108 A 
ENDBRANCH   6   9
ENDBRANCH   2   5
BRANCH   1  19
HETATM   19  C   UNL     1     -42.233  54.736 -55.613  1.00  0.00     0.076 C 
HETATM   20  C   UNL     1     -41.468  54.907 -54.524  1.00  0.00     0.017 C 
BRANCH  20  21
HETATM   21  C   UNL     1     -40.891  53.824 -53.715  1.00  0.00    -0.033 A 
HETATM   22  C   UNL     1     -40.366  52.711 -54.380  1.00  0.00     0.014 A 
HETATM   23  C   UNL     1     -39.770  51.667 -53.670  1.00  0.00     0.040 A 
HETATM   24  C   UNL     1     -39.678  51.723 -52.277  1.00  0.00     0.101 A 
HETATM   25  C   UNL     1     -40.198  52.841 -51.594  1.00  0.00     0.102 A 
HETATM   26  C   UNL     1     -40.792  53.885 -52.318  1.00  0.00     0.051 A 
BRANCH  24  27
HETATM   27  O   UNL     1     -39.109  50.746 -51.498  1.00  0.00    -0.353 OA
HETATM   28  C   UNL     1     -39.673  49.444 -51.564  1.00  0.00     0.210 C 
ENDBRANCH  24  27
BRANCH  25  29
HETATM   29  O   UNL     1     -40.062  52.820 -50.228  1.00  0.00    -0.349 OA
BRANCH  29  30
HETATM   30  C   UNL     1     -39.874  54.058 -49.551  1.00  0.00     0.171 C 
HETATM   31  C   UNL     1     -40.364  53.890 -48.124  1.00  0.00     0.034 C 
ENDBRANCH  29  30
ENDBRANCH  25  29
ENDBRANCH  20  21
ENDBRANCH   1  19
TORSDOF 7
ENDMDL
MODEL 3
REMARK VINA RESULT:      -8.1      3.021      3.824
REMARK  7 active torsions:
REMARK  status: ('A' for Active; 'I' for Inactive)
REMARK    1  A    between atoms: C_2  and  O_3 
REMARK    2  A    between atoms: O_3  and  C_4 
REMARK    3  A    between atoms: C_5  and  O_6 
REMARK    4  A    between atoms: C_10  and  C_11 
REMARK    5  A    between atoms: C_12  and  C_13 
REMARK       I    between atoms: C_13  and  N_14 
REMARK    6  A    between atoms: N_14  and  N_15 
REMARK       I    between atoms: N_15  and  C_16 
REMARK    7  A    between atoms: C_16  and  C_17 
ROOT
HETATM    1  C   UNL     1     -43.134  55.905 -56.403  1.00  0.00     0.259 C 
HETATM    2  N   UNL     1     -43.511  55.454 -57.645  1.00  0.00    -0.264 N 
HETATM    3  O   UNL     1     -43.571  56.937 -55.902  1.00  0.00    -0.267 OA
HETATM    4  H   UNL     1     -43.243  54.559 -58.048  1.00  0.00     0.190 HD
ENDROOT
BRANCH   2   5
HETATM    5  N   UNL     1     -44.494  56.181 -58.330  1.00  0.00    -0.263 N 
HETATM    6  C   UNL     1     -44.577  56.063 -59.705  1.00  0.00     0.272 C 
HETATM    7  O   UNL     1     -43.729  55.443 -60.346  1.00  0.00    -0.266 OA
HETATM    8  H   UNL     1     -45.262  56.531 -57.765  1.00  0.00     0.190 HD
BRANCH   6   9
HETATM    9  C   UNL     1     -45.736  56.714 -60.317  1.00  0.00     0.061 A 
HETATM   10  C   UNL     1     -46.071  58.112 -60.260  1.00  0.00     0.008 A 
HETATM   11  C   UNL     1     -47.257  58.303 -60.981  1.00  0.00     0.045 A 
HETATM   12  C   UNL     1     -45.463  59.237 -59.659  1.00  0.00     0.015 A 
HETATM   13  C   UNL     1     -47.845  59.572 -61.121  1.00  0.00     0.030 A 
HETATM   14  N   UNL     1     -47.638  57.069 -61.454  1.00  0.00    -0.359 N 
HETATM   15  C   UNL     1     -47.220  60.665 -60.513  1.00  0.00     0.002 A 
HETATM   16  C   UNL     1     -46.044  60.501 -59.790  1.00  0.00     0.001 A 
HETATM   17  C   UNL     1     -48.809  56.774 -62.251  1.00  0.00     0.156 C 
HETATM   18  C   UNL     1     -46.737  56.110 -61.061  1.00  0.00     0.108 A 
ENDBRANCH   6   9
ENDBRANCH   2   5
BRANCH   1  19
HETATM   19  C   UNL     1     -42.152  55.023 -55.724  1.00  0.00     0.076 C 
HETATM   20  C   UNL     1     -42.482  54.465 -54.549  1.00  0.00     0.017 C 
BRANCH  20  21
HETATM   21  C   UNL     1     -41.606  53.602 -53.744  1.00  0.00    -0.033 A 
HETATM   22  C   UNL     1     -40.837  52.641 -54.408  1.00  0.00     0.014 A 
HETATM   23  C   UNL     1     -39.955  51.817 -53.704  1.00  0.00     0.040 A 
HETATM   24  C   UNL     1     -39.820  51.948 -52.321  1.00  0.00     0.101 A 
HETATM   25  C   UNL     1     -40.584  52.917 -51.639  1.00  0.00     0.102 A 
HETATM   26  C   UNL     1     -41.464  53.741 -52.357  1.00  0.00     0.051 A 
BRANCH  24  27
HETATM   27  O   UNL     1     -38.980  51.184 -51.548  1.00  0.00    -0.353 OA
HETATM   28  C   UNL     1     -39.411  49.875 -51.210  1.00  0.00     0.210 C 
ENDBRANCH  24  27
BRANCH  25  29
HETATM   29  O   UNL     1     -40.388  52.984 -50.282  1.00  0.00    -0.349 OA
BRANCH  29  30
HETATM   30  C   UNL     1     -39.896  54.202 -49.733  1.00  0.00     0.171 C 
HETATM   31  C   UNL     1     -40.941  54.734 -48.767  1.00  0.00     0.034 C 
ENDBRANCH  29  30
ENDBRANCH  25  29
ENDBRANCH  20  21
ENDBRANCH   1  19
TORSDOF 7
ENDMDL
MODEL 4
REMARK VINA RESULT:      -8.0      1.671      2.137
REMARK  7 active torsions:
REMARK  status: ('A' for Active; 'I' for Inactive)
REMARK    1  A    between atoms: C_2  and  O_3 
REMARK    2  A    between atoms: O_3  and  C_4 
REMARK    3  A    between atoms: C_5  and  O_6 
REMARK    4  A    between atoms: C_10  and  C_11 
REMARK    5  A    between atoms: C_12  and  C_13 
REMARK       I    between atoms: C_13  and  N_14 
REMARK    6  A    between atoms: N_14  and  N_15 
REMARK       I    between atoms: N_15  and  C_16 
REMARK    7  A    between atoms: C_16  and  C_17 
ROOT
HETATM    1  C   UNL     1     -42.762  56.031 -56.330  1.00  0.00     0.259 C 
HETATM    2  N   UNL     1     -42.194  56.379 -57.531  1.00  0.00    -0.264 N 
HETATM    3  O   UNL     1     -43.716  56.629 -55.840  1.00  0.00    -0.267 OA
HETATM    4  H   UNL     1     -41.468  55.850 -58.010  1.00  0.00     0.190 HD
ENDROOT
BRANCH   2   5
HETATM    5  N   UNL     1     -42.787  57.424 -58.253  1.00  0.00    -0.263 N 
HETATM    6  C   UNL     1     -43.060  57.239 -59.596  1.00  0.00     0.272 C 
HETATM    7  O   UNL     1     -42.675  56.235 -60.195  1.00  0.00    -0.266 OA
HETATM    8  H   UNL     1     -43.238  58.146 -57.699  1.00  0.00     0.190 HD
BRANCH   6   9
HETATM    9  C   UNL     1     -43.836  58.308 -60.226  1.00  0.00     0.061 A 
HETATM   10  C   UNL     1     -43.319  59.486 -60.869  1.00  0.00     0.008 A 
HETATM   11  C   UNL     1     -44.405  60.237 -61.336  1.00  0.00     0.045 A 
HETATM   12  C   UNL     1     -42.015  59.979 -61.099  1.00  0.00     0.015 A 
HETATM   13  C   UNL     1     -44.229  61.451 -62.023  1.00  0.00     0.030 A 
HETATM   14  N   UNL     1     -45.544  59.550 -60.985  1.00  0.00    -0.359 N 
HETATM   15  C   UNL     1     -42.926  61.912 -62.233  1.00  0.00     0.002 A 
HETATM   16  C   UNL     1     -41.832  61.187 -61.778  1.00  0.00     0.001 A 
HETATM   17  C   UNL     1     -46.909  59.946 -61.255  1.00  0.00     0.156 C 
HETATM   18  C   UNL     1     -45.216  58.395 -60.319  1.00  0.00     0.108 A 
ENDBRANCH   6   9
ENDBRANCH   2   5
BRANCH   1  19
HETATM   19  C   UNL     1     -42.115  54.862 -55.684  1.00  0.00     0.076 C 
HETATM   20  C   UNL     1     -41.787  54.936 -54.385  1.00  0.00     0.017 C 
BRANCH  20  21
HETATM   21  C   UNL     1     -41.111  53.878 -53.620  1.00  0.00    -0.033 A 
HETATM   22  C   UNL     1     -40.528  52.822 -54.327  1.00  0.00     0.014 A 
HETATM   23  C   UNL     1     -39.839  51.806 -53.661  1.00  0.00     0.040 A 
HETATM   24  C   UNL     1     -39.711  51.835 -52.270  1.00  0.00     0.101 A 
HETATM   25  C   UNL     1     -40.290  52.896 -51.544  1.00  0.00     0.102 A 
HETATM   26  C   UNL     1     -40.977  53.912 -52.225  1.00  0.00     0.051 A 
BRANCH  24  27
HETATM   27  O   UNL     1     -39.053  50.883 -51.532  1.00  0.00    -0.353 OA
HETATM   28  C   UNL     1     -39.671  49.612 -51.402  1.00  0.00     0.210 C 
ENDBRANCH  24  27
BRANCH  25  29
HETATM   29  O   UNL     1     -40.114  52.852 -50.183  1.00  0.00    -0.349 OA
BRANCH  29  30
HETATM   30  C   UNL     1     -39.833  54.070 -49.501  1.00  0.00     0.171 C 
HETATM   31  C   UNL     1     -40.379  53.951 -48.090  1.00  0.00     0.034 C 
ENDBRANCH  29  30
ENDBRANCH  25  29
ENDBRANCH  20  21
ENDBRANCH   1  19
TORSDOF 7
ENDMDL
MODEL 5
REMARK VINA RESULT:      -7.8      1.664      2.797
REMARK  7 active torsions:
REMARK  status: ('A' for Active; 'I' for Inactive)
REMARK    1  A    between atoms: C_2  and  O_3 
REMARK    2  A    between atoms: O_3  and  C_4 
REMARK    3  A    between atoms: C_5  and  O_6 
REMARK    4  A    between atoms: C_10  and  C_11 
REMARK    5  A    between atoms: C_12  and  C_13 
REMARK       I    between atoms: C_13  and  N_14 
REMARK    6  A    between atoms: N_14  and  N_15 
REMARK       I    between atoms: N_15  and  C_16 
REMARK    7  A    between atoms: C_16  and  C_17 
ROOT
HETATM    1  C   UNL     1     -42.838  56.444 -55.959  1.00  0.00     0.259 C 
HETATM    2  N   UNL     1     -41.895  56.623 -56.942  1.00  0.00    -0.264 N 
HETATM    3  O   UNL     1     -43.835  57.151 -55.848  1.00  0.00    -0.267 OA
HETATM    4  H   UNL     1     -41.111  56.000 -57.120  1.00  0.00     0.190 HD
ENDROOT
BRANCH   2   5
HETATM    5  N   UNL     1     -42.133  57.621 -57.897  1.00  0.00    -0.263 N 
HETATM    6  C   UNL     1     -42.574  57.252 -59.155  1.00  0.00     0.272 C 
HETATM    7  O   UNL     1     -42.633  56.070 -59.490  1.00  0.00    -0.266 OA
HETATM    8  H   UNL     1     -42.240  58.565 -57.536  1.00  0.00     0.190 HD
BRANCH   6   9
HETATM    9  C   UNL     1     -42.964  58.361 -60.027  1.00  0.00     0.061 A 
HETATM   10  C   UNL     1     -44.303  58.770 -60.355  1.00  0.00     0.008 A 
HETATM   11  C   UNL     1     -44.221  59.873 -61.216  1.00  0.00     0.045 A 
HETATM   12  C   UNL     1     -45.585  58.298 -59.991  1.00  0.00     0.015 A 
HETATM   13  C   UNL     1     -45.369  60.514 -61.713  1.00  0.00     0.030 A 
HETATM   14  N   UNL     1     -42.883  60.123 -61.413  1.00  0.00    -0.359 N 
HETATM   15  C   UNL     1     -46.621  60.023 -61.334  1.00  0.00     0.002 A 
HETATM   16  C   UNL     1     -46.730  58.929 -60.485  1.00  0.00     0.001 A 
HETATM   17  C   UNL     1     -42.313  61.169 -62.234  1.00  0.00     0.156 C 
HETATM   18  C   UNL     1     -42.122  59.225 -60.709  1.00  0.00     0.108 A 
ENDBRANCH   6   9
ENDBRANCH   2   5
BRANCH   1  19
HETATM   19  C   UNL     1     -42.538  55.311 -55.048  1.00  0.00     0.076 C 
HETATM   20  C   UNL     1     -41.260  55.053 -54.730  1.00  0.00     0.017 C 
BRANCH  20  21
HETATM   21  C   UNL     1     -40.806  53.949 -53.872  1.00  0.00    -0.033 A 
HETATM   22  C   UNL     1     -40.239  52.828 -54.485  1.00  0.00     0.014 A 
HETATM   23  C   UNL     1     -39.753  51.762 -53.724  1.00  0.00     0.040 A 
HETATM   24  C   UNL     1     -39.817  51.806 -52.329  1.00  0.00     0.101 A 
HETATM   25  C   UNL     1     -40.383  52.932 -51.697  1.00  0.00     0.102 A 
HETATM   26  C   UNL     1     -40.864  53.997 -52.473  1.00  0.00     0.051 A 
BRANCH  24  27
HETATM   27  O   UNL     1     -39.366  50.808 -51.501  1.00  0.00    -0.353 OA
HETATM   28  C   UNL     1     -39.619  49.467 -51.893  1.00  0.00     0.210 C 
ENDBRANCH  24  27
BRANCH  25  29
HETATM   29  O   UNL     1     -40.404  52.896 -50.325  1.00  0.00    -0.349 OA
BRANCH  29  30
HETATM   30  C   UNL     1     -40.702  54.100 -49.625  1.00  0.00     0.171 C 
HETATM   31  C   UNL     1     -40.383  53.878 -48.158  1.00  0.00     0.034 C 
ENDBRANCH  29  30
ENDBRANCH  25  29
ENDBRANCH  20  21
ENDBRANCH   1  19
TORSDOF 7
ENDMDL
MODEL 6
REMARK VINA RESULT:      -7.7      2.482     10.827
REMARK  7 active torsions:
REMARK  status: ('A' for Active; 'I' for Inactive)
REMARK    1  A    between atoms: C_2  and  O_3 
REMARK    2  A    between atoms: O_3  and  C_4 
REMARK    3  A    between atoms: C_5  and  O_6 
REMARK    4  A    between atoms: C_10  and  C_11 
REMARK    5  A    between atoms: C_12  and  C_13 
REMARK       I    between atoms: C_13  and  N_14 
REMARK    6  A    between atoms: N_14  and  N_15 
REMARK       I    between atoms: N_15  and  C_16 
REMARK    7  A    between atoms: C_16  and  C_17 
ROOT
HETATM    1  C   UNL     1     -43.216  56.231 -55.722  1.00  0.00     0.259 C 
HETATM    2  N   UNL     1     -42.396  55.173 -56.033  1.00  0.00    -0.264 N 
HETATM    3  O   UNL     1     -43.693  56.404 -54.604  1.00  0.00    -0.267 OA
HETATM    4  H   UNL     1     -41.908  55.052 -56.918  1.00  0.00     0.190 HD
ENDROOT
BRANCH   2   5
HETATM    5  N   UNL     1     -42.041  54.299 -54.997  1.00  0.00    -0.263 N 
HETATM    6  C   UNL     1     -40.757  54.350 -54.488  1.00  0.00     0.272 C 
HETATM    7  O   UNL     1     -39.889  55.050 -55.009  1.00  0.00    -0.266 OA
HETATM    8  H   UNL     1     -42.813  53.874 -54.490  1.00  0.00     0.190 HD
BRANCH   6   9
HETATM    9  C   UNL     1     -40.526  53.531 -53.297  1.00  0.00     0.061 A 
HETATM   10  C   UNL     1     -40.182  52.135 -53.264  1.00  0.00     0.008 A 
HETATM   11  C   UNL     1     -40.052  51.752 -51.922  1.00  0.00     0.045 A 
HETATM   12  C   UNL     1     -39.965  51.159 -54.263  1.00  0.00     0.015 A 
HETATM   13  C   UNL     1     -39.710  50.439 -51.553  1.00  0.00     0.030 A 
HETATM   14  N   UNL     1     -40.314  52.869 -51.163  1.00  0.00    -0.359 N 
HETATM   15  C   UNL     1     -39.504  49.498 -52.566  1.00  0.00     0.002 A 
HETATM   16  C   UNL     1     -39.629  49.851 -53.904  1.00  0.00     0.001 A 
HETATM   17  C   UNL     1     -40.303  52.953 -49.719  1.00  0.00     0.156 C 
HETATM   18  C   UNL     1     -40.601  53.939 -51.974  1.00  0.00     0.108 A 
ENDBRANCH   6   9
ENDBRANCH   2   5
BRANCH   1  19
HETATM   19  C   UNL     1     -43.465  57.145 -56.864  1.00  0.00     0.076 C 
HETATM   20  C   UNL     1     -42.431  57.808 -57.404  1.00  0.00     0.017 C 
BRANCH  20  21
HETATM   21  C   UNL     1     -42.526  58.771 -58.511  1.00  0.00    -0.033 A 
HETATM   22  C   UNL     1     -43.305  58.426 -59.620  1.00  0.00     0.014 A 
HETATM   23  C   UNL     1     -43.467  59.313 -60.687  1.00  0.00     0.040 A 
HETATM   24  C   UNL     1     -42.859  60.570 -60.657  1.00  0.00     0.101 A 
HETATM   25  C   UNL     1     -42.075  60.934 -59.543  1.00  0.00     0.102 A 
HETATM   26  C   UNL     1     -41.922  60.035 -58.476  1.00  0.00     0.051 A 
BRANCH  24  27
HETATM   27  O   UNL     1     -42.962  61.505 -61.657  1.00  0.00    -0.353 OA
HETATM   28  C   UNL     1     -42.390  61.184 -62.916  1.00  0.00     0.210 C 
ENDBRANCH  24  27
BRANCH  25  29
HETATM   29  O   UNL     1     -41.517  62.187 -59.591  1.00  0.00    -0.349 OA
BRANCH  29  30
HETATM   30  C   UNL     1     -40.192  62.353 -59.096  1.00  0.00     0.171 C 
HETATM   31  C   UNL     1     -40.081  63.753 -58.520  1.00  0.00     0.034 C 
ENDBRANCH  29  30
ENDBRANCH  25  29
ENDBRANCH  20  21
ENDBRANCH   1  19
TORSDOF 7
ENDMDL
MODEL 7
REMARK VINA RESULT:      -7.5      3.710     11.150
REMARK  7 active torsions:
REMARK  status: ('A' for Active; 'I' for Inactive)
REMARK    1  A    between atoms: C_2  and  O_3 
REMARK    2  A    between atoms: O_3  and  C_4 
REMARK    3  A    between atoms: C_5  and  O_6 
REMARK    4  A    between atoms: C_10  and  C_11 
REMARK    5  A    between atoms: C_12  and  C_13 
REMARK       I    between atoms: C_13  and  N_14 
REMARK    6  A    between atoms: N_14  and  N_15 
REMARK       I    between atoms: N_15  and  C_16 
REMARK    7  A    between atoms: C_16  and  C_17 
ROOT
HETATM    1  C   UNL     1     -42.965  56.629 -57.382  1.00  0.00     0.259 C 
HETATM    2  N   UNL     1     -43.101  55.380 -56.826  1.00  0.00    -0.264 N 
HETATM    3  O   UNL     1     -42.223  57.492 -56.921  1.00  0.00    -0.267 OA
HETATM    4  H   UNL     1     -43.630  54.613 -57.235  1.00  0.00     0.190 HD
ENDROOT
BRANCH   2   5
HETATM    5  N   UNL     1     -42.297  55.068 -55.722  1.00  0.00    -0.263 N 
HETATM    6  C   UNL     1     -42.902  54.695 -54.536  1.00  0.00     0.272 C 
HETATM    7  O   UNL     1     -44.123  54.760 -54.393  1.00  0.00    -0.266 OA
HETATM    8  H   UNL     1     -41.323  54.860 -55.926  1.00  0.00     0.190 HD
BRANCH   6   9
HETATM    9  C   UNL     1     -41.991  54.219 -53.495  1.00  0.00     0.061 A 
HETATM   10  C   UNL     1     -41.201  53.017 -53.524  1.00  0.00     0.008 A 
HETATM   11  C   UNL     1     -40.472  52.949 -52.329  1.00  0.00     0.045 A 
HETATM   12  C   UNL     1     -41.039  51.978 -54.468  1.00  0.00     0.015 A 
HETATM   13  C   UNL     1     -39.591  51.888 -52.056  1.00  0.00     0.030 A 
HETATM   14  N   UNL     1     -40.809  54.062 -51.594  1.00  0.00    -0.359 N 
HETATM   15  C   UNL     1     -39.455  50.876 -53.010  1.00  0.00     0.002 A 
HETATM   16  C   UNL     1     -40.169  50.918 -54.201  1.00  0.00     0.001 A 
HETATM   17  C   UNL     1     -40.306  54.416 -50.285  1.00  0.00     0.156 C 
HETATM   18  C   UNL     1     -41.718  54.828 -52.280  1.00  0.00     0.108 A 
ENDBRANCH   6   9
ENDBRANCH   2   5
BRANCH   1  19
HETATM   19  C   UNL     1     -43.796  56.833 -58.595  1.00  0.00     0.076 C 
HETATM   20  C   UNL     1     -45.053  57.279 -58.454  1.00  0.00     0.017 C 
BRANCH  20  21
HETATM   21  C   UNL     1     -46.004  57.495 -59.554  1.00  0.00    -0.033 A 
HETATM   22  C   UNL     1     -46.614  56.375 -60.129  1.00  0.00     0.014 A 
HETATM   23  C   UNL     1     -47.555  56.516 -61.151  1.00  0.00     0.040 A 
HETATM   24  C   UNL     1     -47.913  57.786 -61.610  1.00  0.00     0.101 A 
HETATM   25  C   UNL     1     -47.310  58.924 -61.036  1.00  0.00     0.102 A 
HETATM   26  C   UNL     1     -46.369  58.770 -60.008  1.00  0.00     0.051 A 
BRANCH  24  27
HETATM   27  O   UNL     1     -48.826  58.020 -62.607  1.00  0.00    -0.353 OA
HETATM   28  C   UNL     1     -48.647  57.330 -63.835  1.00  0.00     0.210 C 
ENDBRANCH  24  27
BRANCH  25  29
HETATM   29  O   UNL     1     -47.721  60.133 -61.542  1.00  0.00    -0.349 OA
BRANCH  29  30
HETATM   30  C   UNL     1     -46.798  60.882 -62.327  1.00  0.00     0.171 C 
HETATM   31  C   UNL     1     -47.366  62.278 -62.508  1.00  0.00     0.034 C 
ENDBRANCH  29  30
ENDBRANCH  25  29
ENDBRANCH  20  21
ENDBRANCH   1  19
TORSDOF 7
ENDMDL
MODEL 8
REMARK VINA RESULT:      -7.4      3.472      4.871
REMARK  7 active torsions:
REMARK  status: ('A' for Active; 'I' for Inactive)
REMARK    1  A    between atoms: C_2  and  O_3 
REMARK    2  A    between atoms: O_3  and  C_4 
REMARK    3  A    between atoms: C_5  and  O_6 
REMARK    4  A    between atoms: C_10  and  C_11 
REMARK    5  A    between atoms: C_12  and  C_13 
REMARK       I    between atoms: C_13  and  N_14 
REMARK    6  A    between atoms: N_14  and  N_15 
REMARK       I    between atoms: N_15  and  C_16 
REMARK    7  A    between atoms: C_16  and  C_17 
ROOT
HETATM    1  C   UNL     1     -43.123  56.080 -57.439  1.00  0.00     0.259 C 
HETATM    2  N   UNL     1     -44.146  56.952 -57.154  1.00  0.00    -0.264 N 
HETATM    3  O   UNL     1     -42.866  55.697 -58.577  1.00  0.00    -0.267 OA
HETATM    4  H   UNL     1     -44.326  57.363 -56.240  1.00  0.00     0.190 HD
ENDROOT
BRANCH   2   5
HETATM    5  N   UNL     1     -44.875  57.474 -58.231  1.00  0.00    -0.263 N 
HETATM    6  C   UNL     1     -46.099  58.070 -57.985  1.00  0.00     0.272 C 
HETATM    7  O   UNL     1     -46.616  58.032 -56.868  1.00  0.00    -0.266 OA
HETATM    8  H   UNL     1     -44.350  57.640 -59.084  1.00  0.00     0.190 HD
BRANCH   6   9
HETATM    9  C   UNL     1     -46.706  58.741 -59.134  1.00  0.00     0.061 A 
HETATM   10  C   UNL     1     -47.282  58.115 -60.294  1.00  0.00     0.008 A 
HETATM   11  C   UNL     1     -47.750  59.125 -61.145  1.00  0.00     0.045 A 
HETATM   12  C   UNL     1     -47.449  56.771 -60.696  1.00  0.00     0.015 A 
HETATM   13  C   UNL     1     -48.378  58.835 -62.368  1.00  0.00     0.030 A 
HETATM   14  N   UNL     1     -47.464  60.324 -60.533  1.00  0.00    -0.359 N 
HETATM   15  C   UNL     1     -48.527  57.495 -62.737  1.00  0.00     0.002 A 
HETATM   16  C   UNL     1     -48.069  56.475 -61.913  1.00  0.00     0.001 A 
HETATM   17  C   UNL     1     -47.760  61.645 -61.042  1.00  0.00     0.156 C 
HETATM   18  C   UNL     1     -46.839  60.107 -59.331  1.00  0.00     0.108 A 
ENDBRANCH   6   9
ENDBRANCH   2   5
BRANCH   1  19
HETATM   19  C   UNL     1     -42.359  55.649 -56.242  1.00  0.00     0.076 C 
HETATM   20  C   UNL     1     -42.787  54.585 -55.545  1.00  0.00     0.017 C 
BRANCH  20  21
HETATM   21  C   UNL     1     -42.158  54.064 -54.323  1.00  0.00    -0.033 A 
HETATM   22  C   UNL     1     -42.693  54.449 -53.090  1.00  0.00     0.014 A 
HETATM   23  C   UNL     1     -42.164  53.957 -51.894  1.00  0.00     0.040 A 
HETATM   24  C   UNL     1     -41.094  53.060 -51.912  1.00  0.00     0.101 A 
HETATM   25  C   UNL     1     -40.548  52.660 -53.148  1.00  0.00     0.102 A 
HETATM   26  C   UNL     1     -41.089  53.158 -54.343  1.00  0.00     0.051 A 
BRANCH  24  27
HETATM   27  O   UNL     1     -40.512  52.526 -50.789  1.00  0.00    -0.353 OA
HETATM   28  C   UNL     1     -40.207  53.414 -49.723  1.00  0.00     0.210 C 
ENDBRANCH  24  27
BRANCH  25  29
HETATM   29  O   UNL     1     -39.502  51.773 -53.077  1.00  0.00    -0.349 OA
BRANCH  29  30
HETATM   30  C   UNL     1     -39.796  50.380 -53.119  1.00  0.00     0.171 C 
HETATM   31  C   UNL     1     -39.505  49.883 -54.523  1.00  0.00     0.034 C 
ENDBRANCH  29  30
ENDBRANCH  25  29
ENDBRANCH  20  21
ENDBRANCH   1  19
TORSDOF 7
ENDMDL
MODEL 9
REMARK VINA RESULT:      -7.2      2.873     10.989
REMARK  7 active torsions:
REMARK  status: ('A' for Active; 'I' for Inactive)
REMARK    1  A    between atoms: C_2  and  O_3 
REMARK    2  A    between atoms: O_3  and  C_4 
REMARK    3  A    between atoms: C_5  and  O_6 
REMARK    4  A    between atoms: C_10  and  C_11 
REMARK    5  A    between atoms: C_12  and  C_13 
REMARK       I    between atoms: C_13  and  N_14 
REMARK    6  A    between atoms: N_14  and  N_15 
REMARK       I    between atoms: N_15  and  C_16 
REMARK    7  A    between atoms: C_16  and  C_17 
ROOT
HETATM    1  C   UNL     1     -42.628  57.096 -55.039  1.00  0.00     0.259 C 
HETATM    2  N   UNL     1     -42.405  55.803 -55.446  1.00  0.00    -0.264 N 
HETATM    3  O   UNL     1     -42.636  57.437 -53.860  1.00  0.00    -0.267 OA
HETATM    4  H   UNL     1     -42.297  55.504 -56.413  1.00  0.00     0.190 HD
ENDROOT
BRANCH   2   5
HETATM    5  N   UNL     1     -42.102  54.854 -54.460  1.00  0.00    -0.263 N 
HETATM    6  C   UNL     1     -40.788  54.457 -54.293  1.00  0.00     0.272 C 
HETATM    7  O   UNL     1     -39.907  54.817 -55.073  1.00  0.00    -0.266 OA
HETATM    8  H   UNL     1     -42.808  54.720 -53.741  1.00  0.00     0.190 HD
BRANCH   6   9
HETATM    9  C   UNL     1     -40.539  53.603 -53.131  1.00  0.00     0.061 A 
HETATM   10  C   UNL     1     -40.186  52.208 -53.145  1.00  0.00     0.008 A 
HETATM   11  C   UNL     1     -40.038  51.785 -51.818  1.00  0.00     0.045 A 
HETATM   12  C   UNL     1     -39.975  51.266 -54.177  1.00  0.00     0.015 A 
HETATM   13  C   UNL     1     -39.684  50.464 -51.494  1.00  0.00     0.030 A 
HETATM   14  N   UNL     1     -40.298  52.876 -51.022  1.00  0.00    -0.359 N 
HETATM   15  C   UNL     1     -39.484  49.555 -52.537  1.00  0.00     0.002 A 
HETATM   16  C   UNL     1     -39.627  49.949 -53.862  1.00  0.00     0.001 A 
HETATM   17  C   UNL     1     -40.271  52.916 -49.576  1.00  0.00     0.156 C 
HETATM   18  C   UNL     1     -40.601  53.969 -51.796  1.00  0.00     0.108 A 
ENDBRANCH   6   9
ENDBRANCH   2   5
BRANCH   1  19
HETATM   19  C   UNL     1     -42.856  58.040 -56.162  1.00  0.00     0.076 C 
HETATM   20  C   UNL     1     -42.866  57.567 -57.418  1.00  0.00     0.017 C 
BRANCH  20  21
HETATM   21  C   UNL     1     -43.043  58.382 -58.629  1.00  0.00    -0.033 A 
HETATM   22  C   UNL     1     -41.974  58.471 -59.526  1.00  0.00     0.014 A 
HETATM   23  C   UNL     1     -42.093  59.197 -60.713  1.00  0.00     0.040 A 
HETATM   24  C   UNL     1     -43.291  59.840 -61.029  1.00  0.00     0.101 A 
HETATM   25  C   UNL     1     -44.379  59.755 -60.136  1.00  0.00     0.102 A 
HETATM   26  C   UNL     1     -44.249  59.021 -58.949  1.00  0.00     0.051 A 
BRANCH  24  27
HETATM   27  O   UNL     1     -43.499  60.575 -62.171  1.00  0.00    -0.353 OA
HETATM   28  C   UNL     1     -42.376  61.228 -62.743  1.00  0.00     0.210 C 
ENDBRANCH  24  27
BRANCH  25  29
HETATM   29  O   UNL     1     -45.520  60.412 -60.524  1.00  0.00    -0.349 OA
BRANCH  29  30
HETATM   30  C   UNL     1     -46.006  61.464 -59.695  1.00  0.00     0.171 C 
HETATM   31  C   UNL     1     -45.652  62.782 -60.358  1.00  0.00     0.034 C 
ENDBRANCH  29  30
ENDBRANCH  25  29
ENDBRANCH  20  21
ENDBRANCH   1  19
TORSDOF 7
ENDMDL
MODEL 10
REMARK VINA RESULT:      -7.1      2.781     11.149
REMARK  7 active torsions:
REMARK  status: ('A' for Active; 'I' for Inactive)
REMARK    1  A    between atoms: C_2  and  O_3 
REMARK    2  A    between atoms: O_3  and  C_4 
REMARK    3  A    between atoms: C_5  and  O_6 
REMARK    4  A    between atoms: C_10  and  C_11 
REMARK    5  A    between atoms: C_12  and  C_13 
REMARK       I    between atoms: C_13  and  N_14 
REMARK    6  A    between atoms: N_14  and  N_15 
REMARK       I    between atoms: N_15  and  C_16 
REMARK    7  A    between atoms: C_16  and  C_17 
ROOT
HETATM    1  C   UNL     1     -43.020  56.376 -55.542  1.00  0.00     0.259 C 
HETATM    2  N   UNL     1     -42.421  55.179 -55.851  1.00  0.00    -0.264 N 
HETATM    3  O   UNL     1     -43.323  56.699 -54.397  1.00  0.00    -0.267 OA
HETATM    4  H   UNL     1     -42.072  54.920 -56.771  1.00  0.00     0.190 HD
ENDROOT
BRANCH   2   5
HETATM    5  N   UNL     1     -42.082  54.328 -54.790  1.00  0.00    -0.263 N 
HETATM    6  C   UNL     1     -40.754  54.211 -54.424  1.00  0.00     0.272 C 
HETATM    7  O   UNL     1     -39.859  54.732 -55.089  1.00  0.00    -0.266 OA
HETATM    8  H   UNL     1     -42.843  54.063 -54.172  1.00  0.00     0.190 HD
BRANCH   6   9
HETATM    9  C   UNL     1     -40.510  53.444 -53.202  1.00  0.00     0.061 A 
HETATM   10  C   UNL     1     -40.166  52.051 -53.111  1.00  0.00     0.008 A 
HETATM   11  C   UNL     1     -40.022  51.727 -51.756  1.00  0.00     0.045 A 
HETATM   12  C   UNL     1     -39.962  51.032 -54.069  1.00  0.00     0.015 A 
HETATM   13  C   UNL     1     -39.677  50.431 -51.334  1.00  0.00     0.030 A 
HETATM   14  N   UNL     1     -40.275  52.876 -51.044  1.00  0.00    -0.359 N 
HETATM   15  C   UNL     1     -39.482  49.446 -52.307  1.00  0.00     0.002 A 
HETATM   16  C   UNL     1     -39.623  49.740 -53.657  1.00  0.00     0.001 A 
HETATM   17  C   UNL     1     -40.247  53.023 -49.605  1.00  0.00     0.156 C 
HETATM   18  C   UNL     1     -40.570  53.910 -51.897  1.00  0.00     0.108 A 
ENDBRANCH   6   9
ENDBRANCH   2   5
BRANCH   1  19
HETATM   19  C   UNL     1     -43.263  57.241 -56.723  1.00  0.00     0.076 C 
HETATM   20  C   UNL     1     -44.488  57.267 -57.270  1.00  0.00     0.017 C 
BRANCH  20  21
HETATM   21  C   UNL     1     -44.870  58.043 -58.458  1.00  0.00    -0.033 A 
HETATM   22  C   UNL     1     -46.075  57.729 -59.093  1.00  0.00     0.014 A 
HETATM   23  C   UNL     1     -46.512  58.455 -60.203  1.00  0.00     0.040 A 
HETATM   24  C   UNL     1     -45.753  59.520 -60.692  1.00  0.00     0.101 A 
HETATM   25  C   UNL     1     -44.538  59.852 -60.059  1.00  0.00     0.102 A 
HETATM   26  C   UNL     1     -44.111  59.117 -58.943  1.00  0.00     0.051 A 
BRANCH  24  27
HETATM   27  O   UNL     1     -46.103  60.288 -61.775  1.00  0.00    -0.353 OA
HETATM   28  C   UNL     1     -47.214  61.160 -61.628  1.00  0.00     0.210 C 
ENDBRANCH  24  27
BRANCH  25  29
HETATM   29  O   UNL     1     -43.856  60.913 -60.600  1.00  0.00    -0.349 OA
BRANCH  29  30
HETATM   30  C   UNL     1     -42.476  60.740 -60.908  1.00  0.00     0.171 C 
HETATM   31  C   UNL     1     -42.283  61.057 -62.380  1.00  0.00     0.034 C 
ENDBRANCH  29  30
ENDBRANCH  25  29
ENDBRANCH  20  21
ENDBRANCH   1  19
TORSDOF 7
ENDMDL
