MODEL 1
REMARK VINA RESULT:      -8.8      0.000      0.000
REMARK  13 active torsions:
REMARK  status: ('A' for Active; 'I' for Inactive)
REMARK    1  A    between atoms: C_2  and  O_3 
REMARK    2  A    between atoms: O_3  and  C_4 
REMARK    3  A    between atoms: C_5  and  O_6 
REMARK    4  A    between atoms: C_9  and  C_10 
REMARK    5  A    between atoms: N_11  and  C_12 
REMARK    6  A    between atoms: C_12  and  C_13 
REMARK    7  A    between atoms: C_13  and  N_14 
REMARK    8  A    between atoms: C_23  and  O_24 
REMARK    9  A    between atoms: C_25  and  C_26 
REMARK   10  A    between atoms: C_26  and  C_27 
REMARK   11  A    between atoms: C_31  and  O_32 
REMARK   12  A    between atoms: O_32  and  C_33 
REMARK   13  A    between atoms: C_33  and  C_34 
ROOT
HETATM    1  C   UNL     1     -44.201  58.736 -58.049  1.00  0.00     0.161 A 
HETATM    2  N   UNL     1     -43.083  59.516 -58.562  1.00  0.00    -0.332 N 
HETATM    3  C   UNL     1     -42.112  59.668 -57.583  1.00  0.00     0.278 A 
HETATM    4  O   UNL     1     -41.097  60.335 -57.665  1.00  0.00    -0.265 OA
HETATM    5  C   UNL     1     -42.558  58.942 -56.377  1.00  0.00     0.146 A 
HETATM    6  C   UNL     1     -43.776  58.454 -56.642  1.00  0.00     0.059 A 
ENDROOT
BRANCH   6   7
HETATM    7  C   UNL     1     -44.608  57.711 -55.664  1.00  0.00     0.194 C 
HETATM    8  O   UNL     1     -45.783  57.985 -55.461  1.00  0.00    -0.287 OA
BRANCH   7   9
HETATM    9  C   UNL     1     -43.946  56.647 -54.866  1.00  0.00     0.021 A 
HETATM   10  C   UNL     1     -43.821  56.767 -53.470  1.00  0.00    -0.045 A 
HETATM   11  C   UNL     1     -44.460  57.888 -52.698  1.00  0.00     0.049 C 
HETATM   12  C   UNL     1     -43.100  55.783 -52.777  1.00  0.00     0.044 A 
HETATM   13  C   UNL     1     -42.501  54.715 -53.450  1.00  0.00     0.069 A 
HETATM   14  C   UNL     1     -42.694  54.562 -54.820  1.00  0.00     0.038 A 
HETATM   15  C   UNL     1     -43.425  55.522 -55.526  1.00  0.00     0.019 A 
BRANCH  13  16
HETATM   16  O   UNL     1     -41.787  53.860 -52.661  1.00  0.00    -0.347 OA
BRANCH  16  17
HETATM   17  C   UNL     1     -40.425  53.643 -53.040  1.00  0.00     0.214 C 
BRANCH  17  18
HETATM   18  C   UNL     1     -40.089  52.168 -53.002  1.00  0.00    -0.034 A 
HETATM   19  C   UNL     1     -39.722  51.575 -51.783  1.00  0.00     0.009 A 
HETATM   20  C   UNL     1     -39.447  50.208 -51.711  1.00  0.00     0.001 A 
HETATM   21  C   UNL     1     -39.542  49.414 -52.851  1.00  0.00     0.000 A 
HETATM   22  C   UNL     1     -39.916  49.985 -54.064  1.00  0.00     0.001 A 
HETATM   23  C   UNL     1     -40.193  51.352 -54.139  1.00  0.00     0.009 A 
ENDBRANCH  17  18
ENDBRANCH  16  17
ENDBRANCH  13  16
ENDBRANCH   7   9
ENDBRANCH   6   7
BRANCH   1  24
HETATM   24  C   UNL     1     -44.399  57.511 -58.924  1.00  0.00    -0.028 A 
HETATM   25  C   UNL     1     -43.399  56.524 -59.029  1.00  0.00     0.012 A 
HETATM   26  C   UNL     1     -43.558  55.441 -59.888  1.00  0.00     0.040 A 
HETATM   27  C   UNL     1     -44.721  55.336 -60.637  1.00  0.00     0.099 A 
HETATM   28  C   UNL     1     -45.749  56.275 -60.530  1.00  0.00     0.102 A 
HETATM   29  C   UNL     1     -45.582  57.366 -59.675  1.00  0.00     0.049 A 
BRANCH  27  30
HETATM   30  O   UNL     1     -44.834  54.278 -61.494  1.00  0.00    -0.358 OA
HETATM   31  H   UNL     1     -45.192  54.642 -62.328  1.00  0.00     0.218 HD
ENDBRANCH  27  30
BRANCH  28  32
HETATM   32  O   UNL     1     -46.831  56.042 -61.335  1.00  0.00    -0.349 OA
BRANCH  32  33
HETATM   33  C   UNL     1     -47.735  57.128 -61.541  1.00  0.00     0.171 C 
HETATM   34  C   UNL     1     -48.849  56.637 -62.449  1.00  0.00     0.034 C 
ENDBRANCH  32  33
ENDBRANCH  28  32
ENDBRANCH   1  24
BRANCH   5  35
HETATM   35  O   UNL     1     -41.848  58.912 -55.218  1.00  0.00    -0.355 OA
HETATM   36  H   UNL     1     -41.591  57.985 -55.051  1.00  0.00     0.218 HD
ENDBRANCH   5  35
BRANCH   2  37
HETATM   37  C   UNL     1     -43.280  60.567 -59.555  1.00  0.00     0.155 C 
BRANCH  37  38
HETATM   38  C   UNL     1     -42.961  60.134 -60.995  1.00  0.00     0.255 C 
BRANCH  38  39
HETATM   39  N   UNL     1     -44.194  60.174 -61.884  1.00  0.00    -0.066 N 
HETATM   40  H   UNL     1     -44.356  59.212 -62.218  1.00  0.00     0.280 HD
HETATM   41  C   UNL     1     -45.454  60.642 -61.159  1.00  0.00     0.261 C 
HETATM   42  C   UNL     1     -46.626  60.753 -62.139  1.00  0.00     0.195 C 
HETATM   43  O   UNL     1     -46.301  61.640 -63.213  1.00  0.00    -0.388 OA
HETATM   44  C   UNL     1     -45.196  61.147 -63.976  1.00  0.00     0.195 C 
HETATM   45  C   UNL     1     -43.936  61.052 -63.111  1.00  0.00     0.261 C 
ENDBRANCH  38  39
ENDBRANCH  37  38
ENDBRANCH   2  37
TORSDOF 13
ENDMDL
MODEL 2
REMARK VINA RESULT:      -8.8      1.582      2.295
REMARK  13 active torsions:
REMARK  status: ('A' for Active; 'I' for Inactive)
REMARK    1  A    between atoms: C_2  and  O_3 
REMARK    2  A    between atoms: O_3  and  C_4 
REMARK    3  A    between atoms: C_5  and  O_6 
REMARK    4  A    between atoms: C_9  and  C_10 
REMARK    5  A    between atoms: N_11  and  C_12 
REMARK    6  A    between atoms: C_12  and  C_13 
REMARK    7  A    between atoms: C_13  and  N_14 
REMARK    8  A    between atoms: C_23  and  O_24 
REMARK    9  A    between atoms: C_25  and  C_26 
REMARK   10  A    between atoms: C_26  and  C_27 
REMARK   11  A    between atoms: C_31  and  O_32 
REMARK   12  A    between atoms: O_32  and  C_33 
REMARK   13  A    between atoms: C_33  and  C_34 
ROOT
HETATM    1  C   UNL     1     -44.204  58.724 -57.923  1.00  0.00     0.161 A 
HETATM    2  N   UNL     1     -43.098  59.531 -58.421  1.00  0.00    -0.332 N 
HETATM    3  C   UNL     1     -42.143  59.703 -57.430  1.00  0.00     0.278 A 
HETATM    4  O   UNL     1     -41.143  60.394 -57.498  1.00  0.00    -0.265 OA
HETATM    5  C   UNL     1     -42.587  58.965 -56.231  1.00  0.00     0.146 A 
HETATM    6  C   UNL     1     -43.789  58.449 -56.512  1.00  0.00     0.059 A 
ENDROOT
BRANCH   6   7
HETATM    7  C   UNL     1     -44.616  57.685 -55.545  1.00  0.00     0.194 C 
HETATM    8  O   UNL     1     -45.797  57.938 -55.348  1.00  0.00    -0.287 OA
BRANCH   7   9
HETATM    9  C   UNL     1     -43.942  56.626 -54.749  1.00  0.00     0.021 A 
HETATM   10  C   UNL     1     -43.751  56.779 -53.365  1.00  0.00    -0.045 A 
HETATM   11  C   UNL     1     -44.328  57.934 -52.594  1.00  0.00     0.049 C 
HETATM   12  C   UNL     1     -43.021  55.796 -52.679  1.00  0.00     0.044 A 
HETATM   13  C   UNL     1     -42.478  54.697 -53.350  1.00  0.00     0.069 A 
HETATM   14  C   UNL     1     -42.737  54.514 -54.705  1.00  0.00     0.038 A 
HETATM   15  C   UNL     1     -43.478  55.473 -55.402  1.00  0.00     0.019 A 
BRANCH  13  16
HETATM   16  O   UNL     1     -41.748  53.846 -52.572  1.00  0.00    -0.347 OA
BRANCH  16  17
HETATM   17  C   UNL     1     -40.405  53.598 -52.998  1.00  0.00     0.214 C 
BRANCH  17  18
HETATM   18  C   UNL     1     -40.104  52.116 -52.977  1.00  0.00    -0.034 A 
HETATM   19  C   UNL     1     -40.148  51.385 -54.175  1.00  0.00     0.009 A 
HETATM   20  C   UNL     1     -39.834  50.024 -54.192  1.00  0.00     0.001 A 
HETATM   21  C   UNL     1     -39.466  49.377 -53.015  1.00  0.00     0.000 A 
HETATM   22  C   UNL     1     -39.407  50.091 -51.821  1.00  0.00     0.001 A 
HETATM   23  C   UNL     1     -39.718  51.452 -51.802  1.00  0.00     0.009 A 
ENDBRANCH  17  18
ENDBRANCH  16  17
ENDBRANCH  13  16
ENDBRANCH   7   9
ENDBRANCH   6   7
BRANCH   1  24
HETATM   24  C   UNL     1     -44.363  57.497 -58.802  1.00  0.00    -0.028 A 
HETATM   25  C   UNL     1     -43.341  56.531 -58.893  1.00  0.00     0.012 A 
HETATM   26  C   UNL     1     -43.465  55.445 -59.756  1.00  0.00     0.040 A 
HETATM   27  C   UNL     1     -44.613  55.318 -60.522  1.00  0.00     0.099 A 
HETATM   28  C   UNL     1     -45.662  56.236 -60.431  1.00  0.00     0.102 A 
HETATM   29  C   UNL     1     -45.531  57.329 -59.572  1.00  0.00     0.049 A 
BRANCH  27  30
HETATM   30  O   UNL     1     -44.691  54.259 -61.383  1.00  0.00    -0.358 OA
HETATM   31  H   UNL     1     -44.283  54.559 -62.219  1.00  0.00     0.218 HD
ENDBRANCH  27  30
BRANCH  28  32
HETATM   32  O   UNL     1     -46.726  55.981 -61.253  1.00  0.00    -0.349 OA
BRANCH  32  33
HETATM   33  C   UNL     1     -47.846  56.864 -61.159  1.00  0.00     0.171 C 
HETATM   34  C   UNL     1     -48.608  56.783 -62.470  1.00  0.00     0.034 C 
ENDBRANCH  32  33
ENDBRANCH  28  32
ENDBRANCH   1  24
BRANCH   5  35
HETATM   35  O   UNL     1     -41.891  58.949 -55.063  1.00  0.00    -0.355 OA
HETATM   36  H   UNL     1     -41.000  59.309 -55.242  1.00  0.00     0.218 HD
ENDBRANCH   5  35
BRANCH   2  37
HETATM   37  C   UNL     1     -43.307  60.579 -59.414  1.00  0.00     0.155 C 
BRANCH  37  38
HETATM   38  C   UNL     1     -42.303  60.546 -60.578  1.00  0.00     0.255 C 
BRANCH  38  39
HETATM   39  N   UNL     1     -41.324  61.708 -60.513  1.00  0.00    -0.066 N 
HETATM   40  H   UNL     1     -40.495  61.375 -59.997  1.00  0.00     0.280 HD
HETATM   41  C   UNL     1     -40.862  62.193 -61.885  1.00  0.00     0.261 C 
HETATM   42  C   UNL     1     -39.961  63.424 -61.743  1.00  0.00     0.195 C 
HETATM   43  O   UNL     1     -40.642  64.467 -61.040  1.00  0.00    -0.388 OA
HETATM   44  C   UNL     1     -40.971  64.064 -59.707  1.00  0.00     0.195 C 
HETATM   45  C   UNL     1     -41.928  62.869 -59.721  1.00  0.00     0.261 C 
ENDBRANCH  38  39
ENDBRANCH  37  38
ENDBRANCH   2  37
TORSDOF 13
ENDMDL
MODEL 3
REMARK VINA RESULT:      -8.5      2.171      3.319
REMARK  13 active torsions:
REMARK  status: ('A' for Active; 'I' for Inactive)
REMARK    1  A    between atoms: C_2  and  O_3 
REMARK    2  A    between atoms: O_3  and  C_4 
REMARK    3  A    between atoms: C_5  and  O_6 
REMARK    4  A    between atoms: C_9  and  C_10 
REMARK    5  A    between atoms: N_11  and  C_12 
REMARK    6  A    between atoms: C_12  and  C_13 
REMARK    7  A    between atoms: C_13  and  N_14 
REMARK    8  A    between atoms: C_23  and  O_24 
REMARK    9  A    between atoms: C_25  and  C_26 
REMARK   10  A    between atoms: C_26  and  C_27 
REMARK   11  A    between atoms: C_31  and  O_32 
REMARK   12  A    between atoms: O_32  and  C_33 
REMARK   13  A    between atoms: C_33  and  C_34 
ROOT
HETATM    1  C   UNL     1     -43.973  58.273 -55.747  1.00  0.00     0.161 A 
HETATM    2  N   UNL     1     -45.171  59.042 -56.054  1.00  0.00    -0.332 N 
HETATM    3  C   UNL     1     -45.158  60.249 -55.370  1.00  0.00     0.278 A 
HETATM    4  O   UNL     1     -46.048  61.079 -55.344  1.00  0.00    -0.265 OA
HETATM    5  C   UNL     1     -43.900  60.327 -54.602  1.00  0.00     0.146 A 
HETATM    6  C   UNL     1     -43.253  59.170 -54.789  1.00  0.00     0.059 A 
ENDROOT
BRANCH   6   7
HETATM    7  C   UNL     1     -41.970  58.815 -54.135  1.00  0.00     0.194 C 
HETATM    8  O   UNL     1     -40.997  59.556 -54.155  1.00  0.00    -0.287 OA
BRANCH   7   9
HETATM    9  C   UNL     1     -41.869  57.475 -53.501  1.00  0.00     0.021 A 
HETATM   10  C   UNL     1     -42.320  57.265 -52.186  1.00  0.00    -0.045 A 
HETATM   11  C   UNL     1     -43.047  58.325 -51.406  1.00  0.00     0.049 C 
HETATM   12  C   UNL     1     -42.110  56.007 -51.601  1.00  0.00     0.044 A 
HETATM   13  C   UNL     1     -41.453  54.987 -52.293  1.00  0.00     0.069 A 
HETATM   14  C   UNL     1     -41.078  55.178 -53.619  1.00  0.00     0.038 A 
HETATM   15  C   UNL     1     -41.296  56.418 -54.227  1.00  0.00     0.019 A 
BRANCH  13  16
HETATM   16  O   UNL     1     -41.270  53.832 -51.587  1.00  0.00    -0.347 OA
BRANCH  16  17
HETATM   17  C   UNL     1     -39.930  53.334 -51.532  1.00  0.00     0.214 C 
BRANCH  17  18
HETATM   18  C   UNL     1     -39.845  51.962 -52.164  1.00  0.00    -0.034 A 
HETATM   19  C   UNL     1     -39.918  51.839 -53.560  1.00  0.00     0.009 A 
HETATM   20  C   UNL     1     -39.801  50.589 -54.172  1.00  0.00     0.001 A 
HETATM   21  C   UNL     1     -39.604  49.447 -53.399  1.00  0.00     0.000 A 
HETATM   22  C   UNL     1     -39.519  49.555 -52.013  1.00  0.00     0.001 A 
HETATM   23  C   UNL     1     -39.633  50.804 -51.400  1.00  0.00     0.009 A 
ENDBRANCH  17  18
ENDBRANCH  16  17
ENDBRANCH  13  16
ENDBRANCH   7   9
ENDBRANCH   6   7
BRANCH   1  24
HETATM   24  C   UNL     1     -43.229  57.972 -57.036  1.00  0.00    -0.028 A 
HETATM   25  C   UNL     1     -42.326  58.902 -57.588  1.00  0.00     0.012 A 
HETATM   26  C   UNL     1     -41.702  58.649 -58.806  1.00  0.00     0.040 A 
HETATM   27  C   UNL     1     -41.972  57.462 -59.471  1.00  0.00     0.099 A 
HETATM   28  C   UNL     1     -42.832  56.501 -58.935  1.00  0.00     0.102 A 
HETATM   29  C   UNL     1     -43.465  56.762 -57.718  1.00  0.00     0.049 A 
BRANCH  27  30
HETATM   30  O   UNL     1     -41.369  57.256 -60.679  1.00  0.00    -0.358 OA
HETATM   31  H   UNL     1     -41.079  58.137 -60.991  1.00  0.00     0.218 HD
ENDBRANCH  27  30
BRANCH  28  32
HETATM   32  O   UNL     1     -43.005  55.384 -59.708  1.00  0.00    -0.349 OA
BRANCH  32  33
HETATM   33  C   UNL     1     -44.334  55.090 -60.140  1.00  0.00     0.171 C 
HETATM   34  C   UNL     1     -44.722  53.743 -59.558  1.00  0.00     0.034 C 
ENDBRANCH  32  33
ENDBRANCH  28  32
ENDBRANCH   1  24
BRANCH   5  35
HETATM   35  O   UNL     1     -43.581  61.374 -53.794  1.00  0.00    -0.355 OA
HETATM   36  H   UNL     1     -44.292  62.039 -53.875  1.00  0.00     0.218 HD
ENDBRANCH   5  35
BRANCH   2  37
HETATM   37  C   UNL     1     -46.443  58.387 -56.340  1.00  0.00     0.155 C 
BRANCH  37  38
HETATM   38  C   UNL     1     -46.965  58.632 -57.766  1.00  0.00     0.255 C 
BRANCH  38  39
HETATM   39  N   UNL     1     -45.988  59.455 -58.592  1.00  0.00    -0.066 N 
HETATM   40  H   UNL     1     -45.137  59.573 -58.022  1.00  0.00     0.280 HD
HETATM   41  C   UNL     1     -45.588  58.787 -59.906  1.00  0.00     0.261 C 
HETATM   42  C   UNL     1     -44.687  59.716 -60.726  1.00  0.00     0.195 C 
HETATM   43  O   UNL     1     -45.341  60.964 -60.971  1.00  0.00    -0.388 OA
HETATM   44  C   UNL     1     -45.610  61.657 -59.748  1.00  0.00     0.195 C 
HETATM   45  C   UNL     1     -46.562  60.847 -58.863  1.00  0.00     0.261 C 
ENDBRANCH  38  39
ENDBRANCH  37  38
ENDBRANCH   2  37
TORSDOF 13
ENDMDL
MODEL 4
REMARK VINA RESULT:      -8.5      4.268      9.531
REMARK  13 active torsions:
REMARK  status: ('A' for Active; 'I' for Inactive)
REMARK    1  A    between atoms: C_2  and  O_3 
REMARK    2  A    between atoms: O_3  and  C_4 
REMARK    3  A    between atoms: C_5  and  O_6 
REMARK    4  A    between atoms: C_9  and  C_10 
REMARK    5  A    between atoms: N_11  and  C_12 
REMARK    6  A    between atoms: C_12  and  C_13 
REMARK    7  A    between atoms: C_13  and  N_14 
REMARK    8  A    between atoms: C_23  and  O_24 
REMARK    9  A    between atoms: C_25  and  C_26 
REMARK   10  A    between atoms: C_26  and  C_27 
REMARK   11  A    between atoms: C_31  and  O_32 
REMARK   12  A    between atoms: O_32  and  C_33 
REMARK   13  A    between atoms: C_33  and  C_34 
ROOT
HETATM    1  C   UNL     1     -41.689  56.143 -53.698  1.00  0.00     0.161 A 
HETATM    2  N   UNL     1     -42.159  54.892 -53.119  1.00  0.00    -0.332 N 
HETATM    3  C   UNL     1     -42.240  55.001 -51.738  1.00  0.00     0.278 A 
HETATM    4  O   UNL     1     -42.517  54.111 -50.955  1.00  0.00    -0.265 OA
HETATM    5  C   UNL     1     -41.852  56.374 -51.362  1.00  0.00     0.146 A 
HETATM    6  C   UNL     1     -41.494  57.003 -52.489  1.00  0.00     0.059 A 
ENDROOT
BRANCH   6   7
HETATM    7  C   UNL     1     -40.972  58.390 -52.541  1.00  0.00     0.194 C 
HETATM    8  O   UNL     1     -39.850  58.655 -52.951  1.00  0.00    -0.287 OA
BRANCH   7   9
HETATM    9  C   UNL     1     -41.839  59.471 -52.003  1.00  0.00     0.021 A 
HETATM   10  C   UNL     1     -41.548  60.078 -50.768  1.00  0.00    -0.045 A 
HETATM   11  C   UNL     1     -40.293  59.777 -49.998  1.00  0.00     0.049 C 
HETATM   12  C   UNL     1     -42.454  61.023 -50.260  1.00  0.00     0.044 A 
HETATM   13  C   UNL     1     -43.626  61.346 -50.947  1.00  0.00     0.069 A 
HETATM   14  C   UNL     1     -43.867  60.798 -52.203  1.00  0.00     0.038 A 
HETATM   15  C   UNL     1     -42.969  59.869 -52.736  1.00  0.00     0.019 A 
BRANCH  13  16
HETATM   16  O   UNL     1     -44.441  62.241 -50.314  1.00  0.00    -0.347 OA
BRANCH  16  17
HETATM   17  C   UNL     1     -45.519  61.683 -49.557  1.00  0.00     0.214 C 
BRANCH  17  18
HETATM   18  C   UNL     1     -45.333  61.962 -48.082  1.00  0.00    -0.034 A 
HETATM   19  C   UNL     1     -45.294  63.291 -47.630  1.00  0.00     0.009 A 
HETATM   20  C   UNL     1     -45.166  63.577 -46.269  1.00  0.00     0.001 A 
HETATM   21  C   UNL     1     -45.082  62.541 -45.341  1.00  0.00     0.000 A 
HETATM   22  C   UNL     1     -45.130  61.218 -45.773  1.00  0.00     0.001 A 
HETATM   23  C   UNL     1     -45.260  60.930 -47.133  1.00  0.00     0.009 A 
ENDBRANCH  17  18
ENDBRANCH  16  17
ENDBRANCH  13  16
ENDBRANCH   7   9
ENDBRANCH   6   7
BRANCH   1  24
HETATM   24  C   UNL     1     -42.717  56.650 -54.694  1.00  0.00    -0.028 A 
HETATM   25  C   UNL     1     -44.006  57.036 -54.274  1.00  0.00     0.012 A 
HETATM   26  C   UNL     1     -44.966  57.431 -55.202  1.00  0.00     0.040 A 
HETATM   27  C   UNL     1     -44.637  57.451 -56.549  1.00  0.00     0.099 A 
HETATM   28  C   UNL     1     -43.358  57.112 -56.997  1.00  0.00     0.102 A 
HETATM   29  C   UNL     1     -42.400  56.706 -56.066  1.00  0.00     0.049 A 
BRANCH  27  30
HETATM   30  O   UNL     1     -45.610  57.814 -57.437  1.00  0.00    -0.358 OA
HETATM   31  H   UNL     1     -46.260  57.083 -57.441  1.00  0.00     0.218 HD
ENDBRANCH  27  30
BRANCH  28  32
HETATM   32  O   UNL     1     -43.185  57.174 -58.353  1.00  0.00    -0.349 OA
BRANCH  32  33
HETATM   33  C   UNL     1     -42.907  55.947 -59.031  1.00  0.00     0.171 C 
HETATM   34  C   UNL     1     -44.040  55.693 -60.009  1.00  0.00     0.034 C 
ENDBRANCH  32  33
ENDBRANCH  28  32
ENDBRANCH   1  24
BRANCH   5  35
HETATM   35  O   UNL     1     -41.796  56.809 -50.075  1.00  0.00    -0.355 OA
HETATM   36  H   UNL     1     -41.212  56.202 -49.581  1.00  0.00     0.218 HD
ENDBRANCH   5  35
BRANCH   2  37
HETATM   37  C   UNL     1     -41.837  53.604 -53.725  1.00  0.00     0.155 C 
BRANCH  37  38
HETATM   38  C   UNL     1     -40.371  53.474 -54.172  1.00  0.00     0.255 C 
BRANCH  38  39
HETATM   39  N   UNL     1     -39.719  52.217 -53.615  1.00  0.00    -0.066 N 
HETATM   40  H   UNL     1     -38.708  52.294 -53.803  1.00  0.00     0.280 HD
HETATM   41  C   UNL     1     -39.909  52.049 -52.109  1.00  0.00     0.261 C 
HETATM   42  C   UNL     1     -39.316  50.716 -51.641  1.00  0.00     0.195 C 
HETATM   43  O   UNL     1     -39.907  49.625 -52.351  1.00  0.00    -0.388 OA
HETATM   44  C   UNL     1     -39.631  49.708 -53.753  1.00  0.00     0.195 C 
HETATM   45  C   UNL     1     -40.236  50.980 -54.352  1.00  0.00     0.261 C 
ENDBRANCH  38  39
ENDBRANCH  37  38
ENDBRANCH   2  37
TORSDOF 13
ENDMDL
MODEL 5
REMARK VINA RESULT:      -8.4      2.680      4.188
REMARK  13 active torsions:
REMARK  status: ('A' for Active; 'I' for Inactive)
REMARK    1  A    between atoms: C_2  and  O_3 
REMARK    2  A    between atoms: O_3  and  C_4 
REMARK    3  A    between atoms: C_5  and  O_6 
REMARK    4  A    between atoms: C_9  and  C_10 
REMARK    5  A    between atoms: N_11  and  C_12 
REMARK    6  A    between atoms: C_12  and  C_13 
REMARK    7  A    between atoms: C_13  and  N_14 
REMARK    8  A    between atoms: C_23  and  O_24 
REMARK    9  A    between atoms: C_25  and  C_26 
REMARK   10  A    between atoms: C_26  and  C_27 
REMARK   11  A    between atoms: C_31  and  O_32 
REMARK   12  A    between atoms: O_32  and  C_33 
REMARK   13  A    between atoms: C_33  and  C_34 
ROOT
HETATM    1  C   UNL     1     -44.758  59.431 -53.706  1.00  0.00     0.161 A 
HETATM    2  N   UNL     1     -44.411  60.845 -53.650  1.00  0.00    -0.332 N 
HETATM    3  C   UNL     1     -43.837  61.151 -52.424  1.00  0.00     0.278 A 
HETATM    4  O   UNL     1     -43.516  62.257 -52.030  1.00  0.00    -0.265 OA
HETATM    5  C   UNL     1     -43.753  59.908 -51.633  1.00  0.00     0.146 A 
HETATM    6  C   UNL     1     -44.326  58.941 -52.360  1.00  0.00     0.059 A 
ENDROOT
BRANCH   6   7
HETATM    7  C   UNL     1     -44.508  57.544 -51.895  1.00  0.00     0.194 C 
HETATM    8  O   UNL     1     -45.220  57.256 -50.943  1.00  0.00    -0.287 OA
BRANCH   7   9
HETATM    9  C   UNL     1     -43.729  56.483 -52.586  1.00  0.00     0.021 A 
HETATM   10  C   UNL     1     -42.392  56.227 -52.233  1.00  0.00    -0.045 A 
HETATM   11  C   UNL     1     -41.724  56.899 -51.066  1.00  0.00     0.049 C 
HETATM   12  C   UNL     1     -41.673  55.284 -52.983  1.00  0.00     0.044 A 
HETATM   13  C   UNL     1     -42.256  54.623 -54.068  1.00  0.00     0.069 A 
HETATM   14  C   UNL     1     -43.601  54.826 -54.361  1.00  0.00     0.038 A 
HETATM   15  C   UNL     1     -44.340  55.747 -53.615  1.00  0.00     0.019 A 
BRANCH  13  16
HETATM   16  O   UNL     1     -41.428  53.771 -54.741  1.00  0.00    -0.347 OA
BRANCH  16  17
HETATM   17  C   UNL     1     -40.125  53.585 -54.180  1.00  0.00     0.214 C 
BRANCH  17  18
HETATM   18  C   UNL     1     -39.987  52.194 -53.603  1.00  0.00    -0.034 A 
HETATM   19  C   UNL     1     -40.110  51.081 -54.449  1.00  0.00     0.009 A 
HETATM   20  C   UNL     1     -39.945  49.786 -53.950  1.00  0.00     0.001 A 
HETATM   21  C   UNL     1     -39.649  49.587 -52.604  1.00  0.00     0.000 A 
HETATM   22  C   UNL     1     -39.514  50.682 -51.755  1.00  0.00     0.001 A 
HETATM   23  C   UNL     1     -39.675  51.977 -52.251  1.00  0.00     0.009 A 
ENDBRANCH  17  18
ENDBRANCH  16  17
ENDBRANCH  13  16
ENDBRANCH   7   9
ENDBRANCH   6   7
BRANCH   1  24
HETATM   24  C   UNL     1     -44.048  58.790 -54.886  1.00  0.00    -0.028 A 
HETATM   25  C   UNL     1     -42.642  58.782 -54.972  1.00  0.00     0.012 A 
HETATM   26  C   UNL     1     -42.002  58.257 -56.091  1.00  0.00     0.040 A 
HETATM   27  C   UNL     1     -42.765  57.729 -57.122  1.00  0.00     0.099 A 
HETATM   28  C   UNL     1     -44.159  57.685 -57.054  1.00  0.00     0.102 A 
HETATM   29  C   UNL     1     -44.799  58.222 -55.935  1.00  0.00     0.049 A 
BRANCH  27  30
HETATM   30  O   UNL     1     -42.109  57.249 -58.220  1.00  0.00    -0.358 OA
HETATM   31  H   UNL     1     -41.599  58.001 -58.581  1.00  0.00     0.218 HD
ENDBRANCH  27  30
BRANCH  28  32
HETATM   32  O   UNL     1     -44.775  57.141 -58.148  1.00  0.00    -0.349 OA
BRANCH  32  33
HETATM   33  C   UNL     1     -45.927  57.819 -58.651  1.00  0.00     0.171 C 
HETATM   34  C   UNL     1     -46.662  56.860 -59.571  1.00  0.00     0.034 C 
ENDBRANCH  32  33
ENDBRANCH  28  32
ENDBRANCH   1  24
BRANCH   5  35
HETATM   35  O   UNL     1     -43.263  59.861 -50.365  1.00  0.00    -0.355 OA
HETATM   36  H   UNL     1     -43.606  59.048 -49.944  1.00  0.00     0.218 HD
ENDBRANCH   5  35
BRANCH   2  37
HETATM   37  C   UNL     1     -45.203  61.851 -54.349  1.00  0.00     0.155 C 
BRANCH  37  38
HETATM   38  C   UNL     1     -44.361  62.925 -55.058  1.00  0.00     0.255 C 
BRANCH  38  39
HETATM   39  N   UNL     1     -44.163  62.607 -56.532  1.00  0.00    -0.066 N 
HETATM   40  H   UNL     1     -44.178  63.505 -57.039  1.00  0.00     0.280 HD
HETATM   41  C   UNL     1     -42.834  61.917 -56.833  1.00  0.00     0.261 C 
HETATM   42  C   UNL     1     -42.751  61.538 -58.315  1.00  0.00     0.195 C 
HETATM   43  O   UNL     1     -43.850  60.701 -58.683  1.00  0.00    -0.388 OA
HETATM   44  C   UNL     1     -45.098  61.384 -58.521  1.00  0.00     0.195 C 
HETATM   45  C   UNL     1     -45.325  61.760 -57.054  1.00  0.00     0.261 C 
ENDBRANCH  38  39
ENDBRANCH  37  38
ENDBRANCH   2  37
TORSDOF 13
ENDMDL
MODEL 6
REMARK VINA RESULT:      -8.3      2.029      2.934
REMARK  13 active torsions:
REMARK  status: ('A' for Active; 'I' for Inactive)
REMARK    1  A    between atoms: C_2  and  O_3 
REMARK    2  A    between atoms: O_3  and  C_4 
REMARK    3  A    between atoms: C_5  and  O_6 
REMARK    4  A    between atoms: C_9  and  C_10 
REMARK    5  A    between atoms: N_11  and  C_12 
REMARK    6  A    between atoms: C_12  and  C_13 
REMARK    7  A    between atoms: C_13  and  N_14 
REMARK    8  A    between atoms: C_23  and  O_24 
REMARK    9  A    between atoms: C_25  and  C_26 
REMARK   10  A    between atoms: C_26  and  C_27 
REMARK   11  A    between atoms: C_31  and  O_32 
REMARK   12  A    between atoms: O_32  and  C_33 
REMARK   13  A    between atoms: C_33  and  C_34 
ROOT
HETATM    1  C   UNL     1     -44.299  60.377 -57.126  1.00  0.00     0.161 A 
HETATM    2  N   UNL     1     -43.157  60.761 -57.945  1.00  0.00    -0.332 N 
HETATM    3  C   UNL     1     -41.977  60.591 -57.236  1.00  0.00     0.278 A 
HETATM    4  O   UNL     1     -40.859  60.899 -57.604  1.00  0.00    -0.265 OA
HETATM    5  C   UNL     1     -42.314  60.042 -55.908  1.00  0.00     0.146 A 
HETATM    6  C   UNL     1     -43.649  59.968 -55.842  1.00  0.00     0.059 A 
ENDROOT
BRANCH   6   7
HETATM    7  C   UNL     1     -44.402  59.527 -54.642  1.00  0.00     0.194 C 
HETATM    8  O   UNL     1     -45.224  60.241 -54.084  1.00  0.00    -0.287 OA
BRANCH   7   9
HETATM    9  C   UNL     1     -44.075  58.192 -54.077  1.00  0.00     0.021 A 
HETATM   10  C   UNL     1     -43.431  58.076 -52.833  1.00  0.00    -0.045 A 
HETATM   11  C   UNL     1     -43.164  59.263 -51.950  1.00  0.00     0.049 C 
HETATM   12  C   UNL     1     -43.055  56.797 -52.393  1.00  0.00     0.044 A 
HETATM   13  C   UNL     1     -43.295  55.662 -53.172  1.00  0.00     0.069 A 
HETATM   14  C   UNL     1     -44.001  55.778 -54.366  1.00  0.00     0.038 A 
HETATM   15  C   UNL     1     -44.401  57.041 -54.813  1.00  0.00     0.019 A 
BRANCH  13  16
HETATM   16  O   UNL     1     -42.832  54.490 -52.648  1.00  0.00    -0.347 OA
BRANCH  16  17
HETATM   17  C   UNL     1     -41.462  54.482 -52.238  1.00  0.00     0.214 C 
BRANCH  17  18
HETATM   18  C   UNL     1     -40.790  53.190 -52.649  1.00  0.00    -0.034 A 
HETATM   19  C   UNL     1     -40.078  52.448 -51.694  1.00  0.00     0.009 A 
HETATM   20  C   UNL     1     -39.483  51.232 -52.036  1.00  0.00     0.001 A 
HETATM   21  C   UNL     1     -39.596  50.738 -53.333  1.00  0.00     0.000 A 
HETATM   22  C   UNL     1     -40.308  51.458 -54.289  1.00  0.00     0.001 A 
HETATM   23  C   UNL     1     -40.906  52.673 -53.948  1.00  0.00     0.009 A 
ENDBRANCH  17  18
ENDBRANCH  16  17
ENDBRANCH  13  16
ENDBRANCH   7   9
ENDBRANCH   6   7
BRANCH   1  24
HETATM   24  C   UNL     1     -45.077  59.282 -57.835  1.00  0.00    -0.028 A 
HETATM   25  C   UNL     1     -46.446  59.075 -57.570  1.00  0.00     0.012 A 
HETATM   26  C   UNL     1     -47.134  58.025 -58.171  1.00  0.00     0.040 A 
HETATM   27  C   UNL     1     -46.459  57.185 -59.044  1.00  0.00     0.099 A 
HETATM   28  C   UNL     1     -45.112  57.382 -59.358  1.00  0.00     0.102 A 
HETATM   29  C   UNL     1     -44.422  58.431 -58.747  1.00  0.00     0.049 A 
BRANCH  27  30
HETATM   30  O   UNL     1     -47.153  56.144 -59.593  1.00  0.00    -0.358 OA
HETATM   31  H   UNL     1     -46.507  55.635 -60.121  1.00  0.00     0.218 HD
ENDBRANCH  27  30
BRANCH  28  32
HETATM   32  O   UNL     1     -44.582  56.470 -60.230  1.00  0.00    -0.349 OA
BRANCH  32  33
HETATM   33  C   UNL     1     -43.619  55.554 -59.708  1.00  0.00     0.171 C 
HETATM   34  C   UNL     1     -44.315  54.222 -59.497  1.00  0.00     0.034 C 
ENDBRANCH  32  33
ENDBRANCH  28  32
ENDBRANCH   1  24
BRANCH   5  35
HETATM   35  O   UNL     1     -41.386  59.782 -54.949  1.00  0.00    -0.355 OA
HETATM   36  H   UNL     1     -41.362  60.549 -54.343  1.00  0.00     0.218 HD
ENDBRANCH   5  35
BRANCH   2  37
HETATM   37  C   UNL     1     -43.257  61.823 -58.940  1.00  0.00     0.155 C 
BRANCH  37  38
HETATM   38  C   UNL     1     -42.982  61.358 -60.380  1.00  0.00     0.255 C 
BRANCH  38  39
HETATM   39  N   UNL     1     -42.065  62.320 -61.120  1.00  0.00    -0.066 N 
HETATM   40  H   UNL     1     -42.529  63.241 -61.116  1.00  0.00     0.280 HD
HETATM   41  C   UNL     1     -40.694  62.479 -60.467  1.00  0.00     0.261 C 
HETATM   42  C   UNL     1     -39.796  63.380 -61.321  1.00  0.00     0.195 C 
HETATM   43  O   UNL     1     -39.668  62.854 -62.644  1.00  0.00    -0.388 OA
HETATM   44  C   UNL     1     -40.934  62.816 -63.311  1.00  0.00     0.195 C 
HETATM   45  C   UNL     1     -41.907  61.887 -62.579  1.00  0.00     0.261 C 
ENDBRANCH  38  39
ENDBRANCH  37  38
ENDBRANCH   2  37
TORSDOF 13
ENDMDL
MODEL 7
REMARK VINA RESULT:      -8.3      4.215      8.591
REMARK  13 active torsions:
REMARK  status: ('A' for Active; 'I' for Inactive)
REMARK    1  A    between atoms: C_2  and  O_3 
REMARK    2  A    between atoms: O_3  and  C_4 
REMARK    3  A    between atoms: C_5  and  O_6 
REMARK    4  A    between atoms: C_9  and  C_10 
REMARK    5  A    between atoms: N_11  and  C_12 
REMARK    6  A    between atoms: C_12  and  C_13 
REMARK    7  A    between atoms: C_13  and  N_14 
REMARK    8  A    between atoms: C_23  and  O_24 
REMARK    9  A    between atoms: C_25  and  C_26 
REMARK   10  A    between atoms: C_26  and  C_27 
REMARK   11  A    between atoms: C_31  and  O_32 
REMARK   12  A    between atoms: O_32  and  C_33 
REMARK   13  A    between atoms: C_33  and  C_34 
ROOT
HETATM    1  C   UNL     1     -43.272  60.486 -52.450  1.00  0.00     0.161 A 
HETATM    2  N   UNL     1     -44.529  60.714 -51.750  1.00  0.00    -0.332 N 
HETATM    3  C   UNL     1     -45.601  60.516 -52.607  1.00  0.00     0.278 A 
HETATM    4  O   UNL     1     -46.776  60.709 -52.356  1.00  0.00    -0.265 OA
HETATM    5  C   UNL     1     -45.068  60.106 -53.921  1.00  0.00     0.146 A 
HETATM    6  C   UNL     1     -43.733  60.138 -53.830  1.00  0.00     0.059 A 
ENDROOT
BRANCH   6   7
HETATM    7  C   UNL     1     -42.813  59.855 -54.959  1.00  0.00     0.194 C 
HETATM    8  O   UNL     1     -42.431  60.727 -55.729  1.00  0.00    -0.287 OA
BRANCH   7   9
HETATM    9  C   UNL     1     -42.411  58.442 -55.181  1.00  0.00     0.021 A 
HETATM   10  C   UNL     1     -43.043  57.661 -56.165  1.00  0.00    -0.045 A 
HETATM   11  C   UNL     1     -44.045  58.234 -57.128  1.00  0.00     0.049 C 
HETATM   12  C   UNL     1     -42.695  56.305 -56.266  1.00  0.00     0.044 A 
HETATM   13  C   UNL     1     -41.758  55.731 -55.403  1.00  0.00     0.069 A 
HETATM   14  C   UNL     1     -41.082  56.528 -54.484  1.00  0.00     0.038 A 
HETATM   15  C   UNL     1     -41.401  57.885 -54.380  1.00  0.00     0.019 A 
BRANCH  13  16
HETATM   16  O   UNL     1     -41.553  54.392 -55.577  1.00  0.00    -0.347 OA
BRANCH  16  17
HETATM   17  C   UNL     1     -42.174  53.531 -54.619  1.00  0.00     0.214 C 
BRANCH  17  18
HETATM   18  C   UNL     1     -41.130  52.828 -53.779  1.00  0.00    -0.034 A 
HETATM   19  C   UNL     1     -40.809  53.336 -52.511  1.00  0.00     0.009 A 
HETATM   20  C   UNL     1     -39.880  52.684 -51.697  1.00  0.00     0.001 A 
HETATM   21  C   UNL     1     -39.265  51.514 -52.136  1.00  0.00     0.000 A 
HETATM   22  C   UNL     1     -39.581  50.992 -53.387  1.00  0.00     0.001 A 
HETATM   23  C   UNL     1     -40.512  51.641 -54.201  1.00  0.00     0.009 A 
ENDBRANCH  17  18
ENDBRANCH  16  17
ENDBRANCH  13  16
ENDBRANCH   7   9
ENDBRANCH   6   7
BRANCH   1  24
HETATM   24  C   UNL     1     -42.492  59.397 -51.735  1.00  0.00    -0.028 A 
HETATM   25  C   UNL     1     -41.149  59.596 -51.356  1.00  0.00     0.012 A 
HETATM   26  C   UNL     1     -40.420  58.568 -50.764  1.00  0.00     0.040 A 
HETATM   27  C   UNL     1     -41.032  57.344 -50.542  1.00  0.00     0.099 A 
HETATM   28  C   UNL     1     -42.372  57.124 -50.871  1.00  0.00     0.102 A 
HETATM   29  C   UNL     1     -43.099  58.153 -51.473  1.00  0.00     0.049 A 
BRANCH  27  30
HETATM   30  O   UNL     1     -40.281  56.346 -49.989  1.00  0.00    -0.358 OA
HETATM   31  H   UNL     1     -40.519  55.528 -50.471  1.00  0.00     0.218 HD
ENDBRANCH  27  30
BRANCH  28  32
HETATM   32  O   UNL     1     -42.836  55.865 -50.598  1.00  0.00    -0.349 OA
BRANCH  32  33
HETATM   33  C   UNL     1     -43.674  55.253 -51.579  1.00  0.00     0.171 C 
HETATM   34  C   UNL     1     -44.040  53.869 -51.075  1.00  0.00     0.034 C 
ENDBRANCH  32  33
ENDBRANCH  28  32
ENDBRANCH   1  24
BRANCH   5  35
HETATM   35  O   UNL     1     -45.855  59.859 -55.003  1.00  0.00    -0.355 OA
HETATM   36  H   UNL     1     -45.331  60.056 -55.803  1.00  0.00     0.218 HD
ENDBRANCH   5  35
BRANCH   2  37
HETATM   37  C   UNL     1     -44.633  61.695 -50.674  1.00  0.00     0.155 C 
BRANCH  37  38
HETATM   38  C   UNL     1     -44.526  61.090 -49.265  1.00  0.00     0.255 C 
BRANCH  38  39
HETATM   39  N   UNL     1     -45.794  61.315 -48.455  1.00  0.00    -0.066 N 
HETATM   40  H   UNL     1     -46.527  60.720 -48.871  1.00  0.00     0.280 HD
HETATM   41  C   UNL     1     -45.653  60.932 -46.983  1.00  0.00     0.261 C 
HETATM   42  C   UNL     1     -46.932  61.280 -46.215  1.00  0.00     0.195 C 
HETATM   43  O   UNL     1     -47.236  62.671 -46.349  1.00  0.00    -0.388 OA
HETATM   44  C   UNL     1     -47.492  63.016 -47.714  1.00  0.00     0.195 C 
HETATM   45  C   UNL     1     -46.252  62.769 -48.579  1.00  0.00     0.261 C 
ENDBRANCH  38  39
ENDBRANCH  37  38
ENDBRANCH   2  37
TORSDOF 13
ENDMDL
MODEL 8
REMARK VINA RESULT:      -8.1      3.159      4.829
REMARK  13 active torsions:
REMARK  status: ('A' for Active; 'I' for Inactive)
REMARK    1  A    between atoms: C_2  and  O_3 
REMARK    2  A    between atoms: O_3  and  C_4 
REMARK    3  A    between atoms: C_5  and  O_6 
REMARK    4  A    between atoms: C_9  and  C_10 
REMARK    5  A    between atoms: N_11  and  C_12 
REMARK    6  A    between atoms: C_12  and  C_13 
REMARK    7  A    between atoms: C_13  and  N_14 
REMARK    8  A    between atoms: C_23  and  O_24 
REMARK    9  A    between atoms: C_25  and  C_26 
REMARK   10  A    between atoms: C_26  and  C_27 
REMARK   11  A    between atoms: C_31  and  O_32 
REMARK   12  A    between atoms: O_32  and  C_33 
REMARK   13  A    between atoms: C_33  and  C_34 
ROOT
HETATM    1  C   UNL     1     -44.475  59.495 -54.632  1.00  0.00     0.161 A 
HETATM    2  N   UNL     1     -44.006  60.865 -54.794  1.00  0.00    -0.332 N 
HETATM    3  C   UNL     1     -43.330  61.280 -53.656  1.00  0.00     0.278 A 
HETATM    4  O   UNL     1     -42.891  62.394 -53.439  1.00  0.00    -0.265 OA
HETATM    5  C   UNL     1     -43.301  60.154 -52.702  1.00  0.00     0.146 A 
HETATM    6  C   UNL     1     -44.000  59.155 -53.254  1.00  0.00     0.059 A 
ENDROOT
BRANCH   6   7
HETATM    7  C   UNL     1     -44.270  57.857 -52.588  1.00  0.00     0.194 C 
HETATM    8  O   UNL     1     -44.980  57.764 -51.596  1.00  0.00    -0.287 OA
BRANCH   7   9
HETATM    9  C   UNL     1     -43.584  56.653 -53.124  1.00  0.00     0.021 A 
HETATM   10  C   UNL     1     -42.256  56.363 -52.765  1.00  0.00    -0.045 A 
HETATM   11  C   UNL     1     -41.509  57.157 -51.730  1.00  0.00     0.049 C 
HETATM   12  C   UNL     1     -41.622  55.270 -53.378  1.00  0.00     0.044 A 
HETATM   13  C   UNL     1     -42.281  54.494 -54.335  1.00  0.00     0.069 A 
HETATM   14  C   UNL     1     -43.619  54.741 -54.627  1.00  0.00     0.038 A 
HETATM   15  C   UNL     1     -44.273  55.813 -54.014  1.00  0.00     0.019 A 
BRANCH  13  16
HETATM   16  O   UNL     1     -41.531  53.495 -54.887  1.00  0.00    -0.347 OA
BRANCH  16  17
HETATM   17  C   UNL     1     -40.186  53.385 -54.416  1.00  0.00     0.214 C 
BRANCH  17  18
HETATM   18  C   UNL     1     -39.991  52.091 -53.655  1.00  0.00    -0.034 A 
HETATM   19  C   UNL     1     -39.956  50.876 -54.357  1.00  0.00     0.009 A 
HETATM   20  C   UNL     1     -39.737  49.671 -53.685  1.00  0.00     0.001 A 
HETATM   21  C   UNL     1     -39.544  49.665 -52.306  1.00  0.00     0.000 A 
HETATM   22  C   UNL     1     -39.565  50.864 -51.597  1.00  0.00     0.001 A 
HETATM   23  C   UNL     1     -39.782  52.069 -52.267  1.00  0.00     0.009 A 
ENDBRANCH  17  18
ENDBRANCH  16  17
ENDBRANCH  13  16
ENDBRANCH   7   9
ENDBRANCH   6   7
BRANCH   1  24
HETATM   24  C   UNL     1     -43.901  58.636 -55.745  1.00  0.00    -0.028 A 
HETATM   25  C   UNL     1     -42.512  58.429 -55.860  1.00  0.00     0.012 A 
HETATM   26  C   UNL     1     -41.989  57.699 -56.924  1.00  0.00     0.040 A 
HETATM   27  C   UNL     1     -42.853  57.168 -57.870  1.00  0.00     0.099 A 
HETATM   28  C   UNL     1     -44.238  57.321 -57.767  1.00  0.00     0.102 A 
HETATM   29  C   UNL     1     -44.759  58.062 -56.704  1.00  0.00     0.049 A 
BRANCH  27  30
HETATM   30  O   UNL     1     -42.307  56.484 -58.919  1.00  0.00    -0.358 OA
HETATM   31  H   UNL     1     -41.663  57.092 -59.334  1.00  0.00     0.218 HD
ENDBRANCH  27  30
BRANCH  28  32
HETATM   32  O   UNL     1     -44.960  56.746 -58.777  1.00  0.00    -0.349 OA
BRANCH  32  33
HETATM   33  C   UNL     1     -46.038  57.508 -59.322  1.00  0.00     0.171 C 
HETATM   34  C   UNL     1     -46.919  56.561 -60.115  1.00  0.00     0.034 C 
ENDBRANCH  32  33
ENDBRANCH  28  32
ENDBRANCH   1  24
BRANCH   5  35
HETATM   35  O   UNL     1     -42.736  60.234 -51.468  1.00  0.00    -0.355 OA
HETATM   36  H   UNL     1     -43.263  60.866 -50.940  1.00  0.00     0.218 HD
ENDBRANCH   5  35
BRANCH   2  37
HETATM   37  C   UNL     1     -44.753  61.836 -55.586  1.00  0.00     0.155 C 
BRANCH  37  38
HETATM   38  C   UNL     1     -46.277  61.639 -55.541  1.00  0.00     0.255 C 
BRANCH  38  39
HETATM   39  N   UNL     1     -46.926  62.496 -54.465  1.00  0.00    -0.066 N 
HETATM   40  H   UNL     1     -47.894  62.682 -54.770  1.00  0.00     0.280 HD
HETATM   41  C   UNL     1     -46.984  61.816 -53.098  1.00  0.00     0.261 C 
HETATM   42  C   UNL     1     -47.556  62.774 -52.048  1.00  0.00     0.195 C 
HETATM   43  O   UNL     1     -46.779  63.973 -51.984  1.00  0.00    -0.388 OA
HETATM   44  C   UNL     1     -46.818  64.682 -53.227  1.00  0.00     0.195 C 
HETATM   45  C   UNL     1     -46.209  63.842 -54.353  1.00  0.00     0.261 C 
ENDBRANCH  38  39
ENDBRANCH  37  38
ENDBRANCH   2  37
TORSDOF 13
ENDMDL
MODEL 9
REMARK VINA RESULT:      -8.1      2.433      5.521
REMARK  13 active torsions:
REMARK  status: ('A' for Active; 'I' for Inactive)
REMARK    1  A    between atoms: C_2  and  O_3 
REMARK    2  A    between atoms: O_3  and  C_4 
REMARK    3  A    between atoms: C_5  and  O_6 
REMARK    4  A    between atoms: C_9  and  C_10 
REMARK    5  A    between atoms: N_11  and  C_12 
REMARK    6  A    between atoms: C_12  and  C_13 
REMARK    7  A    between atoms: C_13  and  N_14 
REMARK    8  A    between atoms: C_23  and  O_24 
REMARK    9  A    between atoms: C_25  and  C_26 
REMARK   10  A    between atoms: C_26  and  C_27 
REMARK   11  A    between atoms: C_31  and  O_32 
REMARK   12  A    between atoms: O_32  and  C_33 
REMARK   13  A    between atoms: C_33  and  C_34 
ROOT
HETATM    1  C   UNL     1     -42.851  59.149 -55.687  1.00  0.00     0.161 A 
HETATM    2  N   UNL     1     -42.989  60.407 -56.410  1.00  0.00    -0.332 N 
HETATM    3  C   UNL     1     -44.304  60.589 -56.812  1.00  0.00     0.278 A 
HETATM    4  O   UNL     1     -44.731  61.493 -57.506  1.00  0.00    -0.265 OA
HETATM    5  C   UNL     1     -45.097  59.446 -56.321  1.00  0.00     0.146 A 
HETATM    6  C   UNL     1     -44.245  58.607 -55.720  1.00  0.00     0.059 A 
ENDROOT
BRANCH   6   7
HETATM    7  C   UNL     1     -44.632  57.296 -55.144  1.00  0.00     0.194 C 
HETATM    8  O   UNL     1     -45.789  57.020 -54.858  1.00  0.00    -0.287 OA
BRANCH   7   9
HETATM    9  C   UNL     1     -43.544  56.327 -54.849  1.00  0.00     0.021 A 
HETATM   10  C   UNL     1     -43.116  56.107 -53.528  1.00  0.00    -0.045 A 
HETATM   11  C   UNL     1     -43.810  56.720 -52.343  1.00  0.00     0.049 C 
HETATM   12  C   UNL     1     -42.019  55.258 -53.314  1.00  0.00     0.044 A 
HETATM   13  C   UNL     1     -41.351  54.654 -54.383  1.00  0.00     0.069 A 
HETATM   14  C   UNL     1     -41.829  54.815 -55.679  1.00  0.00     0.038 A 
HETATM   15  C   UNL     1     -42.932  55.643 -55.912  1.00  0.00     0.019 A 
BRANCH  13  16
HETATM   16  O   UNL     1     -40.271  53.894 -54.036  1.00  0.00    -0.347 OA
BRANCH  16  17
HETATM   17  C   UNL     1     -40.285  52.538 -54.488  1.00  0.00     0.214 C 
BRANCH  17  18
HETATM   18  C   UNL     1     -39.995  51.591 -53.344  1.00  0.00    -0.034 A 
HETATM   19  C   UNL     1     -39.986  52.082 -52.028  1.00  0.00     0.009 A 
HETATM   20  C   UNL     1     -39.763  51.223 -50.949  1.00  0.00     0.001 A 
HETATM   21  C   UNL     1     -39.551  49.864 -51.170  1.00  0.00     0.000 A 
HETATM   22  C   UNL     1     -39.568  49.361 -52.468  1.00  0.00     0.001 A 
HETATM   23  C   UNL     1     -39.793  50.218 -53.547  1.00  0.00     0.009 A 
ENDBRANCH  17  18
ENDBRANCH  16  17
ENDBRANCH  13  16
ENDBRANCH   7   9
ENDBRANCH   6   7
BRANCH   1  24
HETATM   24  C   UNL     1     -42.298  59.428 -54.301  1.00  0.00    -0.028 A 
HETATM   25  C   UNL     1     -41.083  58.856 -53.875  1.00  0.00     0.012 A 
HETATM   26  C   UNL     1     -40.618  59.059 -52.578  1.00  0.00     0.040 A 
HETATM   27  C   UNL     1     -41.361  59.842 -51.708  1.00  0.00     0.099 A 
HETATM   28  C   UNL     1     -42.551  60.456 -52.107  1.00  0.00     0.102 A 
HETATM   29  C   UNL     1     -43.020  60.243 -53.405  1.00  0.00     0.049 A 
BRANCH  27  30
HETATM   30  O   UNL     1     -40.895  59.997 -50.433  1.00  0.00    -0.358 OA
HETATM   31  H   UNL     1     -41.641  60.360 -49.914  1.00  0.00     0.218 HD
ENDBRANCH  27  30
BRANCH  28  32
HETATM   32  O   UNL     1     -43.175  61.193 -51.138  1.00  0.00    -0.349 OA
BRANCH  32  33
HETATM   33  C   UNL     1     -44.604  61.177 -51.126  1.00  0.00     0.171 C 
HETATM   34  C   UNL     1     -45.045  59.898 -50.437  1.00  0.00     0.034 C 
ENDBRANCH  32  33
ENDBRANCH  28  32
ENDBRANCH   1  24
BRANCH   5  35
HETATM   35  O   UNL     1     -46.427  59.298 -56.568  1.00  0.00    -0.355 OA
HETATM   36  H   UNL     1     -46.910  59.565 -55.762  1.00  0.00     0.218 HD
ENDBRANCH   5  35
BRANCH   2  37
HETATM   37  C   UNL     1     -41.902  60.939 -57.225  1.00  0.00     0.155 C 
BRANCH  37  38
HETATM   38  C   UNL     1     -42.014  60.592 -58.719  1.00  0.00     0.255 C 
BRANCH  38  39
HETATM   39  N   UNL     1     -42.742  59.274 -58.941  1.00  0.00    -0.066 N 
HETATM   40  H   UNL     1     -43.282  59.081 -58.084  1.00  0.00     0.280 HD
HETATM   41  C   UNL     1     -43.716  59.306 -60.116  1.00  0.00     0.261 C 
HETATM   42  C   UNL     1     -44.332  57.922 -60.339  1.00  0.00     0.195 C 
HETATM   43  O   UNL     1     -43.310  56.945 -60.555  1.00  0.00    -0.388 OA
HETATM   44  C   UNL     1     -42.463  56.819 -59.408  1.00  0.00     0.195 C 
HETATM   45  C   UNL     1     -41.736  58.136 -59.121  1.00  0.00     0.261 C 
ENDBRANCH  38  39
ENDBRANCH  37  38
ENDBRANCH   2  37
TORSDOF 13
ENDMDL
MODEL 10
REMARK VINA RESULT:      -8.1      1.587      2.557
REMARK  13 active torsions:
REMARK  status: ('A' for Active; 'I' for Inactive)
REMARK    1  A    between atoms: C_2  and  O_3 
REMARK    2  A    between atoms: O_3  and  C_4 
REMARK    3  A    between atoms: C_5  and  O_6 
REMARK    4  A    between atoms: C_9  and  C_10 
REMARK    5  A    between atoms: N_11  and  C_12 
REMARK    6  A    between atoms: C_12  and  C_13 
REMARK    7  A    between atoms: C_13  and  N_14 
REMARK    8  A    between atoms: C_23  and  O_24 
REMARK    9  A    between atoms: C_25  and  C_26 
REMARK   10  A    between atoms: C_26  and  C_27 
REMARK   11  A    between atoms: C_31  and  O_32 
REMARK   12  A    between atoms: O_32  and  C_33 
REMARK   13  A    between atoms: C_33  and  C_34 
ROOT
HETATM    1  C   UNL     1     -44.365  60.276 -56.896  1.00  0.00     0.161 A 
HETATM    2  N   UNL     1     -43.285  60.802 -57.721  1.00  0.00    -0.332 N 
HETATM    3  C   UNL     1     -42.067  60.646 -57.076  1.00  0.00     0.278 A 
HETATM    4  O   UNL     1     -40.986  61.055 -57.458  1.00  0.00    -0.265 OA
HETATM    5  C   UNL     1     -42.312  59.961 -55.791  1.00  0.00     0.146 A 
HETATM    6  C   UNL     1     -43.636  59.798 -55.681  1.00  0.00     0.059 A 
ENDROOT
BRANCH   6   7
HETATM    7  C   UNL     1     -44.308  59.206 -54.498  1.00  0.00     0.194 C 
HETATM    8  O   UNL     1     -45.152  59.811 -53.852  1.00  0.00    -0.287 OA
BRANCH   7   9
HETATM    9  C   UNL     1     -43.869  57.854 -54.062  1.00  0.00     0.021 A 
HETATM   10  C   UNL     1     -43.253  57.666 -52.813  1.00  0.00    -0.045 A 
HETATM   11  C   UNL     1     -43.129  58.771 -51.801  1.00  0.00     0.049 C 
HETATM   12  C   UNL     1     -42.768  56.388 -52.493  1.00  0.00     0.044 A 
HETATM   13  C   UNL     1     -42.873  55.326 -53.395  1.00  0.00     0.069 A 
HETATM   14  C   UNL     1     -43.552  55.503 -54.597  1.00  0.00     0.038 A 
HETATM   15  C   UNL     1     -44.059  56.763 -54.926  1.00  0.00     0.019 A 
BRANCH  13  16
HETATM   16  O   UNL     1     -42.314  54.153 -52.978  1.00  0.00    -0.347 OA
BRANCH  16  17
HETATM   17  C   UNL     1     -40.895  54.049 -53.115  1.00  0.00     0.214 C 
BRANCH  17  18
HETATM   18  C   UNL     1     -40.467  52.598 -53.150  1.00  0.00    -0.034 A 
HETATM   19  C   UNL     1     -40.643  51.855 -54.328  1.00  0.00     0.009 A 
HETATM   20  C   UNL     1     -40.220  50.526 -54.401  1.00  0.00     0.001 A 
HETATM   21  C   UNL     1     -39.611  49.924 -53.303  1.00  0.00     0.000 A 
HETATM   22  C   UNL     1     -39.420  50.652 -52.131  1.00  0.00     0.001 A 
HETATM   23  C   UNL     1     -39.840  51.981 -52.057  1.00  0.00     0.009 A 
ENDBRANCH  17  18
ENDBRANCH  16  17
ENDBRANCH  13  16
ENDBRANCH   7   9
ENDBRANCH   6   7
BRANCH   1  24
HETATM   24  C   UNL     1     -45.107  59.202 -57.671  1.00  0.00    -0.028 A 
HETATM   25  C   UNL     1     -46.502  59.047 -57.545  1.00  0.00     0.012 A 
HETATM   26  C   UNL     1     -47.164  58.014 -58.203  1.00  0.00     0.040 A 
HETATM   27  C   UNL     1     -46.436  57.141 -58.996  1.00  0.00     0.099 A 
HETATM   28  C   UNL     1     -45.058  57.286 -59.175  1.00  0.00     0.102 A 
HETATM   29  C   UNL     1     -44.395  58.317 -58.505  1.00  0.00     0.049 A 
BRANCH  27  30
HETATM   30  O   UNL     1     -47.109  56.119 -59.604  1.00  0.00    -0.358 OA
HETATM   31  H   UNL     1     -47.330  56.436 -60.502  1.00  0.00     0.218 HD
ENDBRANCH  27  30
BRANCH  28  32
HETATM   32  O   UNL     1     -44.476  56.346 -59.980  1.00  0.00    -0.349 OA
BRANCH  32  33
HETATM   33  C   UNL     1     -43.184  55.870 -59.598  1.00  0.00     0.171 C 
HETATM   34  C   UNL     1     -43.345  55.077 -58.314  1.00  0.00     0.034 C 
ENDBRANCH  32  33
ENDBRANCH  28  32
ENDBRANCH   1  24
BRANCH   5  35
HETATM   35  O   UNL     1     -41.328  59.677 -54.896  1.00  0.00    -0.355 OA
HETATM   36  H   UNL     1     -41.597  60.047 -54.033  1.00  0.00     0.218 HD
ENDBRANCH   5  35
BRANCH   2  37
HETATM   37  C   UNL     1     -43.492  61.940 -58.610  1.00  0.00     0.155 C 
BRANCH  37  38
HETATM   38  C   UNL     1     -43.503  61.572 -60.103  1.00  0.00     0.255 C 
BRANCH  38  39
HETATM   39  N   UNL     1     -44.902  61.650 -60.695  1.00  0.00    -0.066 N 
HETATM   40  H   UNL     1     -44.857  62.308 -61.488  1.00  0.00     0.280 HD
HETATM   41  C   UNL     1     -45.418  60.312 -61.219  1.00  0.00     0.261 C 
HETATM   42  C   UNL     1     -46.864  60.449 -61.705  1.00  0.00     0.195 C 
HETATM   43  O   UNL     1     -47.703  60.938 -60.655  1.00  0.00    -0.388 OA
HETATM   44  C   UNL     1     -47.302  62.247 -60.239  1.00  0.00     0.195 C 
HETATM   45  C   UNL     1     -45.881  62.226 -59.670  1.00  0.00     0.261 C 
ENDBRANCH  38  39
ENDBRANCH  37  38
ENDBRANCH   2  37
TORSDOF 13
ENDMDL
