MODEL 1
REMARK VINA RESULT:      -8.7      0.000      0.000
REMARK  4 active torsions:
REMARK  status: ('A' for Active; 'I' for Inactive)
REMARK    1  A    between atoms: C_9  and  C_10 
REMARK       I    between atoms: C_10  and  N_11 
REMARK    2  A    between atoms: N_11  and  C_12 
REMARK    3  A    between atoms: C_13  and  N_14 
REMARK    4  A    between atoms: C_17  and  O_18 
ROOT
HETATM    1  C   UNL     1     -43.544  55.486 -50.848  1.00  0.00     0.257 C 
HETATM    2  N   UNL     1     -43.611  56.545 -51.712  1.00  0.00    -0.321 N 
HETATM    3  O   UNL     1     -44.566  55.102 -50.277  1.00  0.00    -0.267 OA
HETATM    4  H   UNL     1     -44.554  56.752 -52.011  1.00  0.00     0.169 HD
ENDROOT
BRANCH   2   5
HETATM    5  C   UNL     1     -42.576  57.349 -52.237  1.00  0.00     0.061 C 
HETATM    6  C   UNL     1     -42.414  57.634 -53.619  1.00  0.00     0.057 C 
HETATM    7  C   UNL     1     -41.418  58.571 -53.954  1.00  0.00     0.031 C 
HETATM    8  C   UNL     1     -40.561  59.122 -52.994  1.00  0.00     0.002 C 
HETATM    9  C   UNL     1     -40.673  58.744 -51.663  1.00  0.00     0.002 C 
HETATM   10  C   UNL     1     -41.672  57.852 -51.288  1.00  0.00     0.032 C 
BRANCH   6  11
HETATM   11  N   UNL     1     -43.130  56.957 -54.612  1.00  0.00    -0.379 N 
HETATM   12  C   UNL     1     -44.531  57.282 -54.916  1.00  0.00     0.125 C 
HETATM   13  C   UNL     1     -44.656  58.237 -56.103  1.00  0.00     0.051 C 
HETATM   14  C   UNL     1     -43.868  57.743 -57.314  1.00  0.00     0.121 C 
HETATM   15  C   UNL     1     -42.425  57.427 -56.937  1.00  0.00     0.051 C 
HETATM   16  C   UNL     1     -42.359  56.449 -55.766  1.00  0.00     0.125 C 
BRANCH  14  17
HETATM   17  O   UNL     1     -44.474  56.573 -57.862  1.00  0.00    -0.395 OA
HETATM   18  H   UNL     1     -45.305  56.839 -58.296  1.00  0.00     0.210 HD
ENDBRANCH  14  17
ENDBRANCH   6  11
ENDBRANCH   2   5
BRANCH   1  19
HETATM   19  C   UNL     1     -42.288  54.697 -50.735  1.00  0.00     0.050 A 
HETATM   20  C   UNL     1     -41.691  53.920 -51.838  1.00  0.00     0.006 A 
HETATM   21  C   UNL     1     -42.263  53.823 -53.114  1.00  0.00     0.015 A 
HETATM   22  C   UNL     1     -40.517  53.195 -51.581  1.00  0.00     0.046 A 
HETATM   23  C   UNL     1     -41.663  53.045 -54.109  1.00  0.00     0.001 A 
HETATM   24  C   UNL     1     -40.487  52.348 -53.840  1.00  0.00     0.002 A 
HETATM   25  C   UNL     1     -39.912  52.420 -52.573  1.00  0.00     0.030 A 
HETATM   26  N   UNL     1     -39.955  53.220 -50.299  1.00  0.00    -0.323 N 
HETATM   27  C   UNL     1     -40.511  53.887 -49.244  1.00  0.00     0.246 A 
HETATM   28  H   UNL     1     -39.110  52.704 -50.100  1.00  0.00     0.169 HD
HETATM   29  O   UNL     1     -39.992  53.891 -48.133  1.00  0.00    -0.268 OA
HETATM   30  C   UNL     1     -41.764  54.622 -49.500  1.00  0.00     0.092 A 
ENDBRANCH   1  19
TORSDOF 4
ENDMDL
MODEL 2
REMARK VINA RESULT:      -8.5      2.054      3.116
REMARK  4 active torsions:
REMARK  status: ('A' for Active; 'I' for Inactive)
REMARK    1  A    between atoms: C_9  and  C_10 
REMARK       I    between atoms: C_10  and  N_11 
REMARK    2  A    between atoms: N_11  and  C_12 
REMARK    3  A    between atoms: C_13  and  N_14 
REMARK    4  A    between atoms: C_17  and  O_18 
ROOT
HETATM    1  C   UNL     1     -43.632  55.120 -50.967  1.00  0.00     0.257 C 
HETATM    2  N   UNL     1     -43.534  56.470 -50.762  1.00  0.00    -0.321 N 
HETATM    3  O   UNL     1     -44.405  54.454 -50.276  1.00  0.00    -0.267 OA
HETATM    4  H   UNL     1     -44.308  56.846 -50.232  1.00  0.00     0.169 HD
ENDROOT
BRANCH   2   5
HETATM    5  C   UNL     1     -42.541  57.378 -51.187  1.00  0.00     0.061 C 
HETATM    6  C   UNL     1     -42.747  58.377 -52.175  1.00  0.00     0.057 C 
HETATM    7  C   UNL     1     -41.695  59.291 -52.372  1.00  0.00     0.031 C 
HETATM    8  C   UNL     1     -40.469  59.170 -51.708  1.00  0.00     0.002 C 
HETATM    9  C   UNL     1     -40.257  58.121 -50.825  1.00  0.00     0.002 C 
HETATM   10  C   UNL     1     -41.287  57.221 -50.573  1.00  0.00     0.032 C 
BRANCH   6  11
HETATM   11  N   UNL     1     -43.887  58.404 -52.985  1.00  0.00    -0.379 N 
HETATM   12  C   UNL     1     -45.081  59.180 -52.618  1.00  0.00     0.125 C 
HETATM   13  C   UNL     1     -45.110  60.548 -53.297  1.00  0.00     0.051 C 
HETATM   14  C   UNL     1     -44.895  60.438 -54.805  1.00  0.00     0.121 C 
HETATM   15  C   UNL     1     -43.643  59.628 -55.122  1.00  0.00     0.051 C 
HETATM   16  C   UNL     1     -43.679  58.261 -54.442  1.00  0.00     0.125 C 
BRANCH  14  17
HETATM   17  O   UNL     1     -46.020  59.820 -55.427  1.00  0.00    -0.395 OA
HETATM   18  H   UNL     1     -45.875  59.829 -56.390  1.00  0.00     0.210 HD
ENDBRANCH  14  17
ENDBRANCH   6  11
ENDBRANCH   2   5
BRANCH   1  19
HETATM   19  C   UNL     1     -42.946  54.493 -52.129  1.00  0.00     0.050 A 
HETATM   20  C   UNL     1     -41.758  53.624 -52.024  1.00  0.00     0.006 A 
HETATM   21  C   UNL     1     -41.130  53.316 -50.809  1.00  0.00     0.015 A 
HETATM   22  C   UNL     1     -41.193  53.125 -53.208  1.00  0.00     0.046 A 
HETATM   23  C   UNL     1     -39.988  52.509 -50.781  1.00  0.00     0.001 A 
HETATM   24  C   UNL     1     -39.453  52.007 -51.965  1.00  0.00     0.002 A 
HETATM   25  C   UNL     1     -40.055  52.316 -53.184  1.00  0.00     0.030 A 
HETATM   26  N   UNL     1     -41.758  53.468 -54.442  1.00  0.00    -0.323 N 
HETATM   27  C   UNL     1     -42.825  54.310 -54.576  1.00  0.00     0.246 A 
HETATM   28  H   UNL     1     -41.363  53.115 -55.302  1.00  0.00     0.169 HD
HETATM   29  O   UNL     1     -43.299  54.588 -55.672  1.00  0.00    -0.268 OA
HETATM   30  C   UNL     1     -43.401  54.866 -53.337  1.00  0.00     0.092 A 
ENDBRANCH   1  19
TORSDOF 4
ENDMDL
MODEL 3
REMARK VINA RESULT:      -8.4      2.423      3.253
REMARK  4 active torsions:
REMARK  status: ('A' for Active; 'I' for Inactive)
REMARK    1  A    between atoms: C_9  and  C_10 
REMARK       I    between atoms: C_10  and  N_11 
REMARK    2  A    between atoms: N_11  and  C_12 
REMARK    3  A    between atoms: C_13  and  N_14 
REMARK    4  A    between atoms: C_17  and  O_18 
ROOT
HETATM    1  C   UNL     1     -43.218  55.165 -53.664  1.00  0.00     0.257 C 
HETATM    2  N   UNL     1     -42.964  56.452 -54.055  1.00  0.00    -0.321 N 
HETATM    3  O   UNL     1     -44.075  54.508 -54.256  1.00  0.00    -0.267 OA
HETATM    4  H   UNL     1     -43.321  56.662 -54.977  1.00  0.00     0.169 HD
ENDROOT
BRANCH   2   5
HETATM    5  C   UNL     1     -42.282  57.485 -53.376  1.00  0.00     0.061 C 
HETATM    6  C   UNL     1     -42.921  58.466 -52.573  1.00  0.00     0.057 C 
HETATM    7  C   UNL     1     -42.079  59.332 -51.852  1.00  0.00     0.031 C 
HETATM    8  C   UNL     1     -40.686  59.302 -51.990  1.00  0.00     0.002 C 
HETATM    9  C   UNL     1     -40.093  58.403 -52.864  1.00  0.00     0.002 C 
HETATM   10  C   UNL     1     -40.890  57.503 -53.563  1.00  0.00     0.032 C 
BRANCH   6  11
HETATM   11  N   UNL     1     -44.310  58.639 -52.565  1.00  0.00    -0.379 N 
HETATM   12  C   UNL     1     -45.084  58.631 -51.316  1.00  0.00     0.125 C 
HETATM   13  C   UNL     1     -45.353  60.043 -50.796  1.00  0.00     0.051 C 
HETATM   14  C   UNL     1     -45.949  60.941 -51.877  1.00  0.00     0.121 C 
HETATM   15  C   UNL     1     -45.101  60.910 -53.143  1.00  0.00     0.051 C 
HETATM   16  C   UNL     1     -44.888  59.480 -53.634  1.00  0.00     0.125 C 
BRANCH  14  17
HETATM   17  O   UNL     1     -47.277  60.528 -52.195  1.00  0.00    -0.395 OA
HETATM   18  H   UNL     1     -47.227  59.888 -52.926  1.00  0.00     0.210 HD
ENDBRANCH  14  17
ENDBRANCH   6  11
ENDBRANCH   2   5
BRANCH   1  19
HETATM   19  C   UNL     1     -42.346  54.510 -52.651  1.00  0.00     0.050 A 
HETATM   20  C   UNL     1     -41.339  53.479 -52.964  1.00  0.00     0.006 A 
HETATM   21  C   UNL     1     -41.112  52.985 -54.256  1.00  0.00     0.015 A 
HETATM   22  C   UNL     1     -40.607  52.923 -51.903  1.00  0.00     0.046 A 
HETATM   23  C   UNL     1     -40.161  51.985 -54.481  1.00  0.00     0.001 A 
HETATM   24  C   UNL     1     -39.430  51.459 -53.418  1.00  0.00     0.002 A 
HETATM   25  C   UNL     1     -39.653  51.926 -52.125  1.00  0.00     0.030 A 
HETATM   26  N   UNL     1     -40.855  53.349 -50.593  1.00  0.00    -0.323 N 
HETATM   27  C   UNL     1     -41.815  54.263 -50.266  1.00  0.00     0.246 A 
HETATM   28  H   UNL     1     -40.335  52.958 -49.820  1.00  0.00     0.169 HD
HETATM   29  O   UNL     1     -42.006  54.617 -49.107  1.00  0.00    -0.268 OA
HETATM   30  C   UNL     1     -42.612  54.824 -51.373  1.00  0.00     0.092 A 
ENDBRANCH   1  19
TORSDOF 4
ENDMDL
MODEL 4
REMARK VINA RESULT:      -8.2      2.850      4.407
REMARK  4 active torsions:
REMARK  status: ('A' for Active; 'I' for Inactive)
REMARK    1  A    between atoms: C_9  and  C_10 
REMARK       I    between atoms: C_10  and  N_11 
REMARK    2  A    between atoms: N_11  and  C_12 
REMARK    3  A    between atoms: C_13  and  N_14 
REMARK    4  A    between atoms: C_17  and  O_18 
ROOT
HETATM    1  C   UNL     1     -42.841  57.470 -54.196  1.00  0.00     0.257 C 
HETATM    2  N   UNL     1     -42.163  58.619 -53.889  1.00  0.00    -0.321 N 
HETATM    3  O   UNL     1     -43.496  57.411 -55.239  1.00  0.00    -0.267 OA
HETATM    4  H   UNL     1     -42.043  59.231 -54.685  1.00  0.00     0.169 HD
ENDROOT
BRANCH   2   5
HETATM    5  C   UNL     1     -41.615  59.042 -52.660  1.00  0.00     0.061 C 
HETATM    6  C   UNL     1     -42.351  59.721 -51.652  1.00  0.00     0.057 C 
HETATM    7  C   UNL     1     -41.687  59.940 -50.430  1.00  0.00     0.031 C 
HETATM    8  C   UNL     1     -40.342  59.602 -50.243  1.00  0.00     0.002 C 
HETATM    9  C   UNL     1     -39.615  59.036 -51.281  1.00  0.00     0.002 C 
HETATM   10  C   UNL     1     -40.248  58.767 -52.490  1.00  0.00     0.032 C 
BRANCH   6  11
HETATM   11  N   UNL     1     -43.631  60.236 -51.880  1.00  0.00    -0.379 N 
HETATM   12  C   UNL     1     -44.844  59.471 -51.555  1.00  0.00     0.125 C 
HETATM   13  C   UNL     1     -45.417  59.852 -50.191  1.00  0.00     0.051 C 
HETATM   14  C   UNL     1     -45.595  61.362 -50.052  1.00  0.00     0.121 C 
HETATM   15  C   UNL     1     -44.306  62.098 -50.396  1.00  0.00     0.051 C 
HETATM   16  C   UNL     1     -43.793  61.702 -51.779  1.00  0.00     0.125 C 
BRANCH  14  17
HETATM   17  O   UNL     1     -46.639  61.824 -50.906  1.00  0.00    -0.395 OA
HETATM   18  H   UNL     1     -47.176  61.056 -51.170  1.00  0.00     0.210 HD
ENDBRANCH  14  17
ENDBRANCH   6  11
ENDBRANCH   2   5
BRANCH   1  19
HETATM   19  C   UNL     1     -42.648  56.249 -53.369  1.00  0.00     0.050 A 
HETATM   20  C   UNL     1     -41.726  55.149 -53.713  1.00  0.00     0.006 A 
HETATM   21  C   UNL     1     -40.947  55.128 -54.878  1.00  0.00     0.015 A 
HETATM   22  C   UNL     1     -41.666  54.040 -52.855  1.00  0.00     0.046 A 
HETATM   23  C   UNL     1     -40.114  54.041 -55.161  1.00  0.00     0.001 A 
HETATM   24  C   UNL     1     -40.054  52.957 -54.287  1.00  0.00     0.002 A 
HETATM   25  C   UNL     1     -40.833  52.953 -53.132  1.00  0.00     0.030 A 
HETATM   26  N   UNL     1     -42.480  54.001 -51.717  1.00  0.00    -0.323 N 
HETATM   27  C   UNL     1     -43.380  54.978 -51.398  1.00  0.00     0.246 A 
HETATM   28  H   UNL     1     -42.447  53.209 -51.090  1.00  0.00     0.169 HD
HETATM   29  O   UNL     1     -44.076  54.915 -50.391  1.00  0.00    -0.268 OA
HETATM   30  C   UNL     1     -43.471  56.130 -52.315  1.00  0.00     0.092 A 
ENDBRANCH   1  19
TORSDOF 4
ENDMDL
MODEL 5
REMARK VINA RESULT:      -7.9      3.312      8.006
REMARK  4 active torsions:
REMARK  status: ('A' for Active; 'I' for Inactive)
REMARK    1  A    between atoms: C_9  and  C_10 
REMARK       I    between atoms: C_10  and  N_11 
REMARK    2  A    between atoms: N_11  and  C_12 
REMARK    3  A    between atoms: C_13  and  N_14 
REMARK    4  A    between atoms: C_17  and  O_18 
ROOT
HETATM    1  C   UNL     1     -42.298  57.376 -59.314  1.00  0.00     0.257 C 
HETATM    2  N   UNL     1     -41.968  57.743 -58.037  1.00  0.00    -0.321 N 
HETATM    3  O   UNL     1     -41.480  57.532 -60.222  1.00  0.00    -0.267 OA
HETATM    4  H   UNL     1     -40.973  57.866 -57.906  1.00  0.00     0.169 HD
ENDROOT
BRANCH   2   5
HETATM    5  C   UNL     1     -42.797  57.949 -56.914  1.00  0.00     0.061 C 
HETATM    6  C   UNL     1     -42.777  57.136 -55.750  1.00  0.00     0.057 C 
HETATM    7  C   UNL     1     -43.564  57.570 -54.667  1.00  0.00     0.031 C 
HETATM    8  C   UNL     1     -44.403  58.687 -54.758  1.00  0.00     0.002 C 
HETATM    9  C   UNL     1     -44.484  59.402 -55.944  1.00  0.00     0.002 C 
HETATM   10  C   UNL     1     -43.690  59.028 -57.022  1.00  0.00     0.032 C 
BRANCH   6  11
HETATM   11  N   UNL     1     -42.095  55.915 -55.701  1.00  0.00    -0.379 N 
HETATM   12  C   UNL     1     -40.898  55.729 -54.868  1.00  0.00     0.125 C 
HETATM   13  C   UNL     1     -41.229  55.089 -53.520  1.00  0.00     0.051 C 
HETATM   14  C   UNL     1     -42.061  53.820 -53.684  1.00  0.00     0.121 C 
HETATM   15  C   UNL     1     -43.288  54.077 -54.552  1.00  0.00     0.051 C 
HETATM   16  C   UNL     1     -42.898  54.689 -55.896  1.00  0.00     0.125 C 
BRANCH  14  17
HETATM   17  O   UNL     1     -41.281  52.782 -54.275  1.00  0.00    -0.395 OA
HETATM   18  H   UNL     1     -40.390  52.814 -53.883  1.00  0.00     0.210 HD
ENDBRANCH  14  17
ENDBRANCH   6  11
ENDBRANCH   2   5
BRANCH   1  19
HETATM   19  C   UNL     1     -43.561  56.633 -59.571  1.00  0.00     0.050 A 
HETATM   20  C   UNL     1     -44.813  57.259 -60.038  1.00  0.00     0.006 A 
HETATM   21  C   UNL     1     -44.952  58.635 -60.268  1.00  0.00     0.015 A 
HETATM   22  C   UNL     1     -45.941  56.441 -60.210  1.00  0.00     0.046 A 
HETATM   23  C   UNL     1     -46.176  59.170 -60.682  1.00  0.00     0.001 A 
HETATM   24  C   UNL     1     -47.279  58.338 -60.866  1.00  0.00     0.002 A 
HETATM   25  C   UNL     1     -47.164  56.970 -60.628  1.00  0.00     0.030 A 
HETATM   26  N   UNL     1     -45.852  55.073 -59.927  1.00  0.00    -0.323 N 
HETATM   27  C   UNL     1     -44.724  54.473 -59.445  1.00  0.00     0.246 A 
HETATM   28  H   UNL     1     -46.655  54.472 -60.047  1.00  0.00     0.169 HD
HETATM   29  O   UNL     1     -44.678  53.270 -59.210  1.00  0.00    -0.268 OA
HETATM   30  C   UNL     1     -43.546  55.335 -59.229  1.00  0.00     0.092 A 
ENDBRANCH   1  19
TORSDOF 4
ENDMDL
MODEL 6
REMARK VINA RESULT:      -7.7      2.770      6.676
REMARK  4 active torsions:
REMARK  status: ('A' for Active; 'I' for Inactive)
REMARK    1  A    between atoms: C_9  and  C_10 
REMARK       I    between atoms: C_10  and  N_11 
REMARK    2  A    between atoms: N_11  and  C_12 
REMARK    3  A    between atoms: C_13  and  N_14 
REMARK    4  A    between atoms: C_17  and  O_18 
ROOT
HETATM    1  C   UNL     1     -44.724  57.426 -55.706  1.00  0.00     0.257 C 
HETATM    2  N   UNL     1     -44.316  56.659 -54.648  1.00  0.00    -0.321 N 
HETATM    3  O   UNL     1     -45.917  57.709 -55.828  1.00  0.00    -0.267 OA
HETATM    4  H   UNL     1     -45.001  56.614 -53.906  1.00  0.00     0.169 HD
ENDROOT
BRANCH   2   5
HETATM    5  C   UNL     1     -43.105  55.961 -54.453  1.00  0.00     0.061 C 
HETATM    6  C   UNL     1     -42.142  56.300 -53.465  1.00  0.00     0.057 C 
HETATM    7  C   UNL     1     -41.062  55.411 -53.311  1.00  0.00     0.031 C 
HETATM    8  C   UNL     1     -40.884  54.303 -54.149  1.00  0.00     0.002 C 
HETATM    9  C   UNL     1     -41.785  54.055 -55.175  1.00  0.00     0.002 C 
HETATM   10  C   UNL     1     -42.887  54.888 -55.332  1.00  0.00     0.032 C 
BRANCH   6  11
HETATM   11  N   UNL     1     -42.197  57.499 -52.746  1.00  0.00    -0.379 N 
HETATM   12  C   UNL     1     -42.406  57.521 -51.291  1.00  0.00     0.125 C 
HETATM   13  C   UNL     1     -41.091  57.638 -50.523  1.00  0.00     0.051 C 
HETATM   14  C   UNL     1     -40.237  58.796 -51.033  1.00  0.00     0.121 C 
HETATM   15  C   UNL     1     -40.053  58.716 -52.544  1.00  0.00     0.051 C 
HETATM   16  C   UNL     1     -41.398  58.629 -53.263  1.00  0.00     0.125 C 
BRANCH  14  17
HETATM   17  O   UNL     1     -40.839  60.046 -50.702  1.00  0.00    -0.395 OA
HETATM   18  H   UNL     1     -40.147  60.626 -50.336  1.00  0.00     0.210 HD
ENDBRANCH  14  17
ENDBRANCH   6  11
ENDBRANCH   2   5
BRANCH   1  19
HETATM   19  C   UNL     1     -43.715  58.058 -56.599  1.00  0.00     0.050 A 
HETATM   20  C   UNL     1     -43.251  57.475 -57.873  1.00  0.00     0.006 A 
HETATM   21  C   UNL     1     -43.697  56.242 -58.368  1.00  0.00     0.015 A 
HETATM   22  C   UNL     1     -42.270  58.166 -58.601  1.00  0.00     0.046 A 
HETATM   23  C   UNL     1     -43.195  55.730 -59.568  1.00  0.00     0.001 A 
HETATM   24  C   UNL     1     -42.235  56.440 -60.287  1.00  0.00     0.002 A 
HETATM   25  C   UNL     1     -41.768  57.660 -59.802  1.00  0.00     0.030 A 
HETATM   26  N   UNL     1     -41.757  59.369 -58.101  1.00  0.00    -0.323 N 
HETATM   27  C   UNL     1     -42.128  59.908 -56.902  1.00  0.00     0.246 A 
HETATM   28  H   UNL     1     -41.051  59.877 -58.615  1.00  0.00     0.169 HD
HETATM   29  O   UNL     1     -41.661  60.965 -56.494  1.00  0.00    -0.268 OA
HETATM   30  C   UNL     1     -43.133  59.167 -56.117  1.00  0.00     0.092 A 
ENDBRANCH   1  19
TORSDOF 4
ENDMDL
MODEL 7
REMARK VINA RESULT:      -7.7      3.212      5.445
REMARK  4 active torsions:
REMARK  status: ('A' for Active; 'I' for Inactive)
REMARK    1  A    between atoms: C_9  and  C_10 
REMARK       I    between atoms: C_10  and  N_11 
REMARK    2  A    between atoms: N_11  and  C_12 
REMARK    3  A    between atoms: C_13  and  N_14 
REMARK    4  A    between atoms: C_17  and  O_18 
ROOT
HETATM    1  C   UNL     1     -44.420  57.670 -55.547  1.00  0.00     0.257 C 
HETATM    2  N   UNL     1     -44.642  57.428 -56.876  1.00  0.00    -0.321 N 
HETATM    3  O   UNL     1     -45.368  57.955 -54.814  1.00  0.00    -0.267 OA
HETATM    4  H   UNL     1     -45.613  57.243 -57.086  1.00  0.00     0.169 HD
ENDROOT
BRANCH   2   5
HETATM    5  C   UNL     1     -43.729  57.387 -57.951  1.00  0.00     0.061 C 
HETATM    6  C   UNL     1     -42.935  58.491 -58.362  1.00  0.00     0.057 C 
HETATM    7  C   UNL     1     -41.973  58.235 -59.357  1.00  0.00     0.031 C 
HETATM    8  C   UNL     1     -41.865  56.989 -59.986  1.00  0.00     0.002 C 
HETATM    9  C   UNL     1     -42.726  55.958 -59.639  1.00  0.00     0.002 C 
HETATM   10  C   UNL     1     -43.662  56.160 -58.631  1.00  0.00     0.032 C 
BRANCH   6  11
HETATM   11  N   UNL     1     -43.152  59.788 -57.885  1.00  0.00    -0.379 N 
HETATM   12  C   UNL     1     -42.080  60.570 -57.251  1.00  0.00     0.125 C 
HETATM   13  C   UNL     1     -41.403  61.523 -58.235  1.00  0.00     0.051 C 
HETATM   14  C   UNL     1     -42.420  62.380 -58.985  1.00  0.00     0.121 C 
HETATM   15  C   UNL     1     -43.501  61.515 -59.622  1.00  0.00     0.051 C 
HETATM   16  C   UNL     1     -44.163  60.603 -58.591  1.00  0.00     0.125 C 
BRANCH  14  17
HETATM   17  O   UNL     1     -43.034  63.317 -58.102  1.00  0.00    -0.395 OA
HETATM   18  H   UNL     1     -42.995  62.952 -57.200  1.00  0.00     0.210 HD
ENDBRANCH  14  17
ENDBRANCH   6  11
ENDBRANCH   2   5
BRANCH   1  19
HETATM   19  C   UNL     1     -43.076  57.418 -54.960  1.00  0.00     0.050 A 
HETATM   20  C   UNL     1     -42.475  56.079 -54.800  1.00  0.00     0.006 A 
HETATM   21  C   UNL     1     -43.124  54.892 -55.165  1.00  0.00     0.015 A 
HETATM   22  C   UNL     1     -41.210  55.987 -54.200  1.00  0.00     0.046 A 
HETATM   23  C   UNL     1     -42.512  53.652 -54.960  1.00  0.00     0.001 A 
HETATM   24  C   UNL     1     -41.247  53.581 -54.380  1.00  0.00     0.002 A 
HETATM   25  C   UNL     1     -40.593  54.750 -53.997  1.00  0.00     0.030 A 
HETATM   26  N   UNL     1     -40.563  57.150 -53.766  1.00  0.00    -0.323 N 
HETATM   27  C   UNL     1     -41.114  58.397 -53.853  1.00  0.00     0.246 A 
HETATM   28  H   UNL     1     -39.652  57.098 -53.333  1.00  0.00     0.169 HD
HETATM   29  O   UNL     1     -40.519  59.397 -53.465  1.00  0.00    -0.268 OA
HETATM   30  C   UNL     1     -42.458  58.496 -54.450  1.00  0.00     0.092 A 
ENDBRANCH   1  19
TORSDOF 4
ENDMDL
MODEL 8
REMARK VINA RESULT:      -7.6      3.139      4.792
REMARK  4 active torsions:
REMARK  status: ('A' for Active; 'I' for Inactive)
REMARK    1  A    between atoms: C_9  and  C_10 
REMARK       I    between atoms: C_10  and  N_11 
REMARK    2  A    between atoms: N_11  and  C_12 
REMARK    3  A    between atoms: C_13  and  N_14 
REMARK    4  A    between atoms: C_17  and  O_18 
ROOT
HETATM    1  C   UNL     1     -44.147  59.094 -54.571  1.00  0.00     0.257 C 
HETATM    2  N   UNL     1     -44.411  59.402 -55.878  1.00  0.00    -0.321 N 
HETATM    3  O   UNL     1     -45.007  59.298 -53.712  1.00  0.00    -0.267 OA
HETATM    4  H   UNL     1     -45.397  59.524 -56.063  1.00  0.00     0.169 HD
ENDROOT
BRANCH   2   5
HETATM    5  C   UNL     1     -43.526  59.551 -56.967  1.00  0.00     0.061 C 
HETATM    6  C   UNL     1     -43.496  58.685 -58.092  1.00  0.00     0.057 C 
HETATM    7  C   UNL     1     -42.653  59.064 -59.154  1.00  0.00     0.031 C 
HETATM    8  C   UNL     1     -41.810  60.178 -59.073  1.00  0.00     0.002 C 
HETATM    9  C   UNL     1     -41.781  60.947 -57.918  1.00  0.00     0.002 C 
HETATM   10  C   UNL     1     -42.630  60.628 -56.864  1.00  0.00     0.032 C 
BRANCH   6  11
HETATM   11  N   UNL     1     -44.185  57.467 -58.118  1.00  0.00    -0.379 N 
HETATM   12  C   UNL     1     -45.494  57.332 -58.773  1.00  0.00     0.125 C 
HETATM   13  C   UNL     1     -45.374  56.784 -60.194  1.00  0.00     0.051 C 
HETATM   14  C   UNL     1     -44.535  55.510 -60.241  1.00  0.00     0.121 C 
HETATM   15  C   UNL     1     -43.190  55.714 -59.552  1.00  0.00     0.051 C 
HETATM   16  C   UNL     1     -43.370  56.234 -58.128  1.00  0.00     0.125 C 
BRANCH  14  17
HETATM   17  O   UNL     1     -45.224  54.432 -59.609  1.00  0.00    -0.395 OA
HETATM   18  H   UNL     1     -44.811  53.599 -59.900  1.00  0.00     0.210 HD
ENDBRANCH  14  17
ENDBRANCH   6  11
ENDBRANCH   2   5
BRANCH   1  19
HETATM   19  C   UNL     1     -42.903  58.359 -54.216  1.00  0.00     0.050 A 
HETATM   20  C   UNL     1     -42.769  56.890 -54.242  1.00  0.00     0.006 A 
HETATM   21  C   UNL     1     -43.817  56.023 -54.583  1.00  0.00     0.015 A 
HETATM   22  C   UNL     1     -41.543  56.327 -53.853  1.00  0.00     0.046 A 
HETATM   23  C   UNL     1     -43.634  54.637 -54.559  1.00  0.00     0.001 A 
HETATM   24  C   UNL     1     -42.404  54.098 -54.188  1.00  0.00     0.002 A 
HETATM   25  C   UNL     1     -41.355  54.943 -53.831  1.00  0.00     0.030 A 
HETATM   26  N   UNL     1     -40.497  57.163 -53.445  1.00  0.00    -0.323 N 
HETATM   27  C   UNL     1     -40.606  58.522 -53.362  1.00  0.00     0.246 A 
HETATM   28  H   UNL     1     -39.609  56.773 -53.163  1.00  0.00     0.169 HD
HETATM   29  O   UNL     1     -39.668  59.227 -53.003  1.00  0.00    -0.268 OA
HETATM   30  C   UNL     1     -41.903  59.116 -53.736  1.00  0.00     0.092 A 
ENDBRANCH   1  19
TORSDOF 4
ENDMDL
MODEL 9
REMARK VINA RESULT:      -7.6      1.973      2.988
REMARK  4 active torsions:
REMARK  status: ('A' for Active; 'I' for Inactive)
REMARK    1  A    between atoms: C_9  and  C_10 
REMARK       I    between atoms: C_10  and  N_11 
REMARK    2  A    between atoms: N_11  and  C_12 
REMARK    3  A    between atoms: C_13  and  N_14 
REMARK    4  A    between atoms: C_17  and  O_18 
ROOT
HETATM    1  C   UNL     1     -42.811  54.568 -55.044  1.00  0.00     0.257 C 
HETATM    2  N   UNL     1     -42.304  55.697 -55.629  1.00  0.00    -0.321 N 
HETATM    3  O   UNL     1     -43.392  53.732 -55.738  1.00  0.00    -0.267 OA
HETATM    4  H   UNL     1     -42.218  55.616 -56.633  1.00  0.00     0.169 HD
ENDROOT
BRANCH   2   5
HETATM    5  C   UNL     1     -41.884  56.909 -55.040  1.00  0.00     0.061 C 
HETATM    6  C   UNL     1     -42.325  58.191 -55.461  1.00  0.00     0.057 C 
HETATM    7  C   UNL     1     -41.921  59.284 -54.670  1.00  0.00     0.031 C 
HETATM    8  C   UNL     1     -41.050  59.136 -53.585  1.00  0.00     0.002 C 
HETATM    9  C   UNL     1     -40.549  57.883 -53.261  1.00  0.00     0.002 C 
HETATM   10  C   UNL     1     -40.958  56.774 -53.993  1.00  0.00     0.032 C 
BRANCH   6  11
HETATM   11  N   UNL     1     -43.038  58.386 -56.648  1.00  0.00    -0.379 N 
HETATM   12  C   UNL     1     -44.306  59.128 -56.678  1.00  0.00     0.125 C 
HETATM   13  C   UNL     1     -44.109  60.589 -57.081  1.00  0.00     0.051 C 
HETATM   14  C   UNL     1     -43.298  60.718 -58.367  1.00  0.00     0.121 C 
HETATM   15  C   UNL     1     -41.995  59.931 -58.274  1.00  0.00     0.051 C 
HETATM   16  C   UNL     1     -42.253  58.474 -57.897  1.00  0.00     0.125 C 
BRANCH  14  17
HETATM   17  O   UNL     1     -44.050  60.245 -59.483  1.00  0.00    -0.395 OA
HETATM   18  H   UNL     1     -44.044  60.938 -60.167  1.00  0.00     0.210 HD
ENDBRANCH  14  17
ENDBRANCH   6  11
ENDBRANCH   2   5
BRANCH   1  19
HETATM   19  C   UNL     1     -42.509  54.270 -53.617  1.00  0.00     0.050 A 
HETATM   20  C   UNL     1     -41.404  53.404 -53.164  1.00  0.00     0.006 A 
HETATM   21  C   UNL     1     -40.529  52.745 -54.039  1.00  0.00     0.015 A 
HETATM   22  C   UNL     1     -41.255  53.184 -51.786  1.00  0.00     0.046 A 
HETATM   23  C   UNL     1     -39.519  51.913 -53.545  1.00  0.00     0.001 A 
HETATM   24  C   UNL     1     -39.374  51.723 -52.173  1.00  0.00     0.002 A 
HETATM   25  C   UNL     1     -40.244  52.357 -51.289  1.00  0.00     0.030 A 
HETATM   26  N   UNL     1     -42.152  53.777 -50.890  1.00  0.00    -0.323 N 
HETATM   27  C   UNL     1     -43.215  54.541 -51.280  1.00  0.00     0.246 A 
HETATM   28  H   UNL     1     -42.056  53.629 -49.895  1.00  0.00     0.169 HD
HETATM   29  O   UNL     1     -43.981  55.049 -50.469  1.00  0.00    -0.268 OA
HETATM   30  C   UNL     1     -43.397  54.746 -52.729  1.00  0.00     0.092 A 
ENDBRANCH   1  19
TORSDOF 4
ENDMDL
MODEL 10
REMARK VINA RESULT:      -7.6      2.617      4.282
REMARK  4 active torsions:
REMARK  status: ('A' for Active; 'I' for Inactive)
REMARK    1  A    between atoms: C_9  and  C_10 
REMARK       I    between atoms: C_10  and  N_11 
REMARK    2  A    between atoms: N_11  and  C_12 
REMARK    3  A    between atoms: C_13  and  N_14 
REMARK    4  A    between atoms: C_17  and  O_18 
ROOT
HETATM    1  C   UNL     1     -41.349  58.819 -53.832  1.00  0.00     0.257 C 
HETATM    2  N   UNL     1     -42.001  59.796 -54.535  1.00  0.00    -0.321 N 
HETATM    3  O   UNL     1     -40.150  58.949 -53.579  1.00  0.00    -0.267 OA
HETATM    4  H   UNL     1     -41.496  60.671 -54.555  1.00  0.00     0.169 HD
ENDROOT
BRANCH   2   5
HETATM    5  C   UNL     1     -43.246  59.753 -55.198  1.00  0.00     0.061 C 
HETATM    6  C   UNL     1     -43.503  58.972 -56.356  1.00  0.00     0.057 C 
HETATM    7  C   UNL     1     -44.838  58.933 -56.803  1.00  0.00     0.031 C 
HETATM    8  C   UNL     1     -45.845  59.700 -56.205  1.00  0.00     0.002 C 
HETATM    9  C   UNL     1     -45.544  60.537 -55.141  1.00  0.00     0.002 C 
HETATM   10  C   UNL     1     -44.245  60.571 -54.645  1.00  0.00     0.032 C 
BRANCH   6  11
HETATM   11  N   UNL     1     -42.482  58.350 -57.082  1.00  0.00    -0.379 N 
HETATM   12  C   UNL     1     -42.511  56.911 -57.382  1.00  0.00     0.125 C 
HETATM   13  C   UNL     1     -43.067  56.625 -58.776  1.00  0.00     0.051 C 
HETATM   14  C   UNL     1     -42.368  57.457 -59.848  1.00  0.00     0.121 C 
HETATM   15  C   UNL     1     -42.374  58.937 -59.483  1.00  0.00     0.051 C 
HETATM   16  C   UNL     1     -41.782  59.169 -58.094  1.00  0.00     0.125 C 
BRANCH  14  17
HETATM   17  O   UNL     1     -41.020  57.025 -60.018  1.00  0.00    -0.395 OA
HETATM   18  H   UNL     1     -40.787  56.459 -59.260  1.00  0.00     0.210 HD
ENDBRANCH  14  17
ENDBRANCH   6  11
ENDBRANCH   2   5
BRANCH   1  19
HETATM   19  C   UNL     1     -42.119  57.698 -53.228  1.00  0.00     0.050 A 
HETATM   20  C   UNL     1     -41.890  56.273 -53.532  1.00  0.00     0.006 A 
HETATM   21  C   UNL     1     -40.930  55.822 -54.448  1.00  0.00     0.015 A 
HETATM   22  C   UNL     1     -42.714  55.321 -52.911  1.00  0.00     0.046 A 
HETATM   23  C   UNL     1     -40.783  54.457 -54.714  1.00  0.00     0.001 A 
HETATM   24  C   UNL     1     -41.597  53.525 -54.073  1.00  0.00     0.002 A 
HETATM   25  C   UNL     1     -42.567  53.956 -53.171  1.00  0.00     0.030 A 
HETATM   26  N   UNL     1     -43.724  55.743 -52.039  1.00  0.00    -0.323 N 
HETATM   27  C   UNL     1     -43.995  57.056 -51.777  1.00  0.00     0.246 A 
HETATM   28  H   UNL     1     -44.324  55.069 -51.585  1.00  0.00     0.169 HD
HETATM   29  O   UNL     1     -44.886  57.393 -51.005  1.00  0.00    -0.268 OA
HETATM   30  C   UNL     1     -43.155  58.062 -52.454  1.00  0.00     0.092 A 
ENDBRANCH   1  19
TORSDOF 4
ENDMDL
