MODEL 1
REMARK VINA RESULT:      -8.5      0.000      0.000
REMARK  5 active torsions:
REMARK  status: ('A' for Active; 'I' for Inactive)
REMARK    1  A    between atoms: C_2  and  C_3 
REMARK    2  A    between atoms: C_8  and  C_9 
REMARK       I    between atoms: C_9  and  N_10 
REMARK    3  A    between atoms: N_10  and  C_11 
REMARK    4  A    between atoms: C_11  and  C_12 
REMARK    5  A    between atoms: C_19  and  C_20 
ROOT
HETATM    1  C   UNL     1     -43.524  54.857 -53.975  1.00  0.00     0.118 C 
HETATM    2  N   UNL     1     -43.604  54.824 -55.430  1.00  0.00    -0.366 N 
HETATM    3  C   UNL     1     -43.151  55.837 -56.200  1.00  0.00     0.123 A 
HETATM    4  N   UNL     1     -42.708  57.011 -55.659  1.00  0.00    -0.240 N 
HETATM    5  N   UNL     1     -42.349  57.930 -56.572  1.00  0.00    -0.165 NA
HETATM    6  C   UNL     1     -42.501  57.284 -57.751  1.00  0.00     0.148 A 
HETATM    7  C   UNL     1     -43.020  55.975 -57.556  1.00  0.00     0.088 A 
HETATM    8  C   UNL     1     -42.666  57.293 -54.239  1.00  0.00     0.221 C 
HETATM    9  C   UNL     1     -43.563  56.309 -53.463  1.00  0.00     0.066 C 
HETATM   10  H   UNL     1     -43.838  53.921 -55.840  1.00  0.00     0.161 HD
ENDROOT
BRANCH   6  11
HETATM   11  C   UNL     1     -42.153  57.906 -59.040  1.00  0.00     0.272 C 
HETATM   12  N   UNL     1     -42.344  59.269 -59.056  1.00  0.00    -0.353 N 
HETATM   13  H   UNL     1     -42.831  59.654 -58.251  1.00  0.00     0.162 HD
HETATM   14  O   UNL     1     -41.728  57.268 -59.998  1.00  0.00    -0.266 OA
BRANCH  12  15
HETATM   15  C   UNL     1     -42.143  60.078 -60.236  1.00  0.00     0.155 C 
BRANCH  15  16
HETATM   16  C   UNL     1     -41.704  61.506 -59.904  1.00  0.00     0.139 C 
HETATM   17  O   UNL     1     -40.843  61.518 -58.747  1.00  0.00    -0.384 OA
HETATM   18  C   UNL     1     -39.926  62.612 -58.887  1.00  0.00     0.168 C 
HETATM   19  C   UNL     1     -40.136  63.218 -60.261  1.00  0.00     0.029 C 
HETATM   20  C   UNL     1     -40.873  62.134 -61.008  1.00  0.00     0.035 C 
ENDBRANCH  15  16
ENDBRANCH  12  15
ENDBRANCH   6  11
BRANCH   8  21
HETATM   21  C   UNL     1     -41.235  57.326 -53.749  1.00  0.00     0.409 C 
HETATM   22  F   UNL     1     -40.660  58.537 -53.926  1.00  0.00    -0.169 F 
HETATM   23  F   UNL     1     -41.201  57.084 -52.411  1.00  0.00    -0.169 F 
HETATM   24  F   UNL     1     -40.440  56.410 -54.332  1.00  0.00    -0.169 F 
ENDBRANCH   8  21
BRANCH   1  25
HETATM   25  C   UNL     1     -42.386  54.008 -53.432  1.00  0.00    -0.034 A 
HETATM   26  C   UNL     1     -41.638  53.215 -54.320  1.00  0.00     0.011 A 
HETATM   27  C   UNL     1     -40.568  52.437 -53.865  1.00  0.00     0.026 A 
HETATM   28  C   UNL     1     -40.223  52.434 -52.512  1.00  0.00     0.055 A 
HETATM   29  C   UNL     1     -40.951  53.216 -51.612  1.00  0.00     0.056 A 
HETATM   30 CL   UNL     1     -38.889  51.452 -52.023  1.00  0.00    -0.083 Cl
HETATM   31  C   UNL     1     -42.017  53.999 -52.074  1.00  0.00     0.034 A 
HETATM   32 CL   UNL     1     -40.588  53.265 -49.924  1.00  0.00    -0.083 Cl
ENDBRANCH   1  25
TORSDOF 5
ENDMDL
MODEL 2
REMARK VINA RESULT:      -8.2      3.277      4.191
REMARK  5 active torsions:
REMARK  status: ('A' for Active; 'I' for Inactive)
REMARK    1  A    between atoms: C_2  and  C_3 
REMARK    2  A    between atoms: C_8  and  C_9 
REMARK       I    between atoms: C_9  and  N_10 
REMARK    3  A    between atoms: N_10  and  C_11 
REMARK    4  A    between atoms: C_11  and  C_12 
REMARK    5  A    between atoms: C_19  and  C_20 
ROOT
HETATM    1  C   UNL     1     -43.309  56.314 -51.436  1.00  0.00     0.118 C 
HETATM    2  N   UNL     1     -44.309  56.265 -52.494  1.00  0.00    -0.366 N 
HETATM    3  C   UNL     1     -44.280  57.103 -53.553  1.00  0.00     0.123 A 
HETATM    4  N   UNL     1     -43.385  58.132 -53.634  1.00  0.00    -0.240 N 
HETATM    5  N   UNL     1     -43.535  58.900 -54.726  1.00  0.00    -0.165 NA
HETATM    6  C   UNL     1     -44.525  58.287 -55.414  1.00  0.00     0.148 A 
HETATM    7  C   UNL     1     -45.029  57.166 -54.698  1.00  0.00     0.088 A 
HETATM    8  C   UNL     1     -42.388  58.431 -52.625  1.00  0.00     0.221 C 
HETATM    9  C   UNL     1     -42.739  57.738 -51.293  1.00  0.00     0.066 C 
HETATM   10  H   UNL     1     -44.914  55.445 -52.494  1.00  0.00     0.161 HD
ENDROOT
BRANCH   6  11
HETATM   11  C   UNL     1     -44.979  58.761 -56.732  1.00  0.00     0.272 C 
HETATM   12  N   UNL     1     -45.586  57.782 -57.484  1.00  0.00    -0.353 N 
HETATM   13  H   UNL     1     -45.517  56.838 -57.115  1.00  0.00     0.162 HD
HETATM   14  O   UNL     1     -44.833  59.919 -57.113  1.00  0.00    -0.266 OA
BRANCH  12  15
HETATM   15  C   UNL     1     -46.040  57.998 -58.839  1.00  0.00     0.155 C 
BRANCH  15  16
HETATM   16  C   UNL     1     -45.271  57.156 -59.860  1.00  0.00     0.139 C 
HETATM   17  O   UNL     1     -44.252  56.371 -59.208  1.00  0.00    -0.384 OA
HETATM   18  C   UNL     1     -44.078  55.159 -59.957  1.00  0.00     0.168 C 
HETATM   19  C   UNL     1     -45.139  55.130 -61.041  1.00  0.00     0.029 C 
HETATM   20  C   UNL     1     -46.152  56.137 -60.560  1.00  0.00     0.035 C 
ENDBRANCH  15  16
ENDBRANCH  12  15
ENDBRANCH   6  11
BRANCH   8  21
HETATM   21  C   UNL     1     -41.004  58.098 -53.136  1.00  0.00     0.409 C 
HETATM   22  F   UNL     1     -41.023  57.112 -54.062  1.00  0.00    -0.169 F 
HETATM   23  F   UNL     1     -40.468  59.185 -53.754  1.00  0.00    -0.169 F 
HETATM   24  F   UNL     1     -40.141  57.733 -52.171  1.00  0.00    -0.169 F 
ENDBRANCH   8  21
BRANCH   1  25
HETATM   25  C   UNL     1     -42.271  55.209 -51.560  1.00  0.00    -0.034 A 
HETATM   26  C   UNL     1     -41.397  54.968 -50.486  1.00  0.00     0.011 A 
HETATM   27  C   UNL     1     -40.442  53.947 -50.548  1.00  0.00     0.026 A 
HETATM   28  C   UNL     1     -40.342  53.144 -51.687  1.00  0.00     0.055 A 
HETATM   29  C   UNL     1     -41.202  53.365 -52.765  1.00  0.00     0.056 A 
HETATM   30 CL   UNL     1     -39.144  51.901 -51.692  1.00  0.00    -0.083 Cl
HETATM   31  C   UNL     1     -42.160  54.385 -52.694  1.00  0.00     0.034 A 
HETATM   32 CL   UNL     1     -41.140  52.417 -54.208  1.00  0.00    -0.083 Cl
ENDBRANCH   1  25
TORSDOF 5
ENDMDL
MODEL 3
REMARK VINA RESULT:      -8.2      0.711      1.525
REMARK  5 active torsions:
REMARK  status: ('A' for Active; 'I' for Inactive)
REMARK    1  A    between atoms: C_2  and  C_3 
REMARK    2  A    between atoms: C_8  and  C_9 
REMARK       I    between atoms: C_9  and  N_10 
REMARK    3  A    between atoms: N_10  and  C_11 
REMARK    4  A    between atoms: C_11  and  C_12 
REMARK    5  A    between atoms: C_19  and  C_20 
ROOT
HETATM    1  C   UNL     1     -43.516  55.260 -53.535  1.00  0.00     0.118 C 
HETATM    2  N   UNL     1     -43.674  55.233 -54.983  1.00  0.00    -0.366 N 
HETATM    3  C   UNL     1     -43.183  56.206 -55.781  1.00  0.00     0.123 A 
HETATM    4  N   UNL     1     -42.620  57.342 -55.270  1.00  0.00    -0.240 N 
HETATM    5  N   UNL     1     -42.238  58.229 -56.204  1.00  0.00    -0.165 NA
HETATM    6  C   UNL     1     -42.502  57.596 -57.371  1.00  0.00     0.148 A 
HETATM    7  C   UNL     1     -43.112  56.333 -57.143  1.00  0.00     0.088 A 
HETATM    8  C   UNL     1     -42.482  57.620 -53.854  1.00  0.00     0.221 C 
HETATM    9  C   UNL     1     -43.413  56.711 -53.028  1.00  0.00     0.066 C 
HETATM   10  H   UNL     1     -44.000  54.351 -55.377  1.00  0.00     0.161 HD
ENDROOT
BRANCH   6  11
HETATM   11  C   UNL     1     -42.173  58.188 -58.678  1.00  0.00     0.272 C 
HETATM   12  N   UNL     1     -42.176  59.564 -58.670  1.00  0.00    -0.353 N 
HETATM   13  H   UNL     1     -42.542  59.997 -57.826  1.00  0.00     0.162 HD
HETATM   14  O   UNL     1     -41.916  57.515 -59.672  1.00  0.00    -0.266 OA
BRANCH  12  15
HETATM   15  C   UNL     1     -41.959  60.359 -59.857  1.00  0.00     0.155 C 
BRANCH  15  16
HETATM   16  C   UNL     1     -41.430  61.760 -59.539  1.00  0.00     0.139 C 
HETATM   17  O   UNL     1     -40.481  61.712 -58.454  1.00  0.00    -0.384 OA
HETATM   18  C   UNL     1     -39.529  62.767 -58.651  1.00  0.00     0.168 C 
HETATM   19  C   UNL     1     -39.820  63.407 -59.994  1.00  0.00     0.029 C 
HETATM   20  C   UNL     1     -40.662  62.372 -60.696  1.00  0.00     0.035 C 
ENDBRANCH  15  16
ENDBRANCH  12  15
ENDBRANCH   6  11
BRANCH   8  21
HETATM   21  C   UNL     1     -41.030  57.539 -53.440  1.00  0.00     0.409 C 
HETATM   22  F   UNL     1     -40.352  56.591 -54.126  1.00  0.00    -0.169 F 
HETATM   23  F   UNL     1     -40.407  58.718 -53.710  1.00  0.00    -0.169 F 
HETATM   24  F   UNL     1     -40.851  57.296 -52.128  1.00  0.00    -0.169 F 
ENDBRANCH   8  21
BRANCH   1  25
HETATM   25  C   UNL     1     -42.422  54.323 -53.047  1.00  0.00    -0.034 A 
HETATM   26  C   UNL     1     -42.053  54.348 -51.691  1.00  0.00     0.011 A 
HETATM   27  C   UNL     1     -41.068  53.488 -51.196  1.00  0.00     0.026 A 
HETATM   28  C   UNL     1     -40.430  52.582 -52.046  1.00  0.00     0.055 A 
HETATM   29  C   UNL     1     -40.782  52.539 -53.397  1.00  0.00     0.056 A 
HETATM   30 CL   UNL     1     -39.227  51.548 -51.364  1.00  0.00    -0.083 Cl
HETATM   31  C   UNL     1     -41.774  53.398 -53.887  1.00  0.00     0.034 A 
HETATM   32 CL   UNL     1     -40.039  51.448 -54.513  1.00  0.00    -0.083 Cl
ENDBRANCH   1  25
TORSDOF 5
ENDMDL
MODEL 4
REMARK VINA RESULT:      -8.2      5.390      7.589
REMARK  5 active torsions:
REMARK  status: ('A' for Active; 'I' for Inactive)
REMARK    1  A    between atoms: C_2  and  C_3 
REMARK    2  A    between atoms: C_8  and  C_9 
REMARK       I    between atoms: C_9  and  N_10 
REMARK    3  A    between atoms: N_10  and  C_11 
REMARK    4  A    between atoms: C_11  and  C_12 
REMARK    5  A    between atoms: C_19  and  C_20 
ROOT
HETATM    1  C   UNL     1     -40.945  57.242 -53.969  1.00  0.00     0.118 C 
HETATM    2  N   UNL     1     -41.156  57.913 -52.693  1.00  0.00    -0.366 N 
HETATM    3  C   UNL     1     -42.378  58.321 -52.287  1.00  0.00     0.123 A 
HETATM    4  N   UNL     1     -43.471  58.246 -53.103  1.00  0.00    -0.240 N 
HETATM    5  N   UNL     1     -44.593  58.750 -52.559  1.00  0.00    -0.165 NA
HETATM    6  C   UNL     1     -44.213  59.094 -51.307  1.00  0.00     0.148 A 
HETATM    7  C   UNL     1     -42.826  58.856 -51.108  1.00  0.00     0.088 A 
HETATM    8  C   UNL     1     -43.448  57.728 -54.456  1.00  0.00     0.221 C 
HETATM    9  C   UNL     1     -42.005  57.683 -54.996  1.00  0.00     0.066 C 
HETATM   10  H   UNL     1     -40.373  57.882 -52.042  1.00  0.00     0.161 HD
ENDROOT
BRANCH   6  11
HETATM   11  C   UNL     1     -45.160  59.638 -50.320  1.00  0.00     0.272 C 
HETATM   12  N   UNL     1     -44.944  60.965 -50.031  1.00  0.00    -0.353 N 
HETATM   13  H   UNL     1     -44.089  61.364 -50.409  1.00  0.00     0.162 HD
HETATM   14  O   UNL     1     -46.055  58.969 -49.812  1.00  0.00    -0.266 OA
BRANCH  12  15
HETATM   15  C   UNL     1     -45.701  61.688 -49.034  1.00  0.00     0.155 C 
BRANCH  15  16
HETATM   16  C   UNL     1     -44.955  61.813 -47.704  1.00  0.00     0.139 C 
HETATM   17  O   UNL     1     -45.259  63.070 -47.065  1.00  0.00    -0.384 OA
HETATM   18  C   UNL     1     -45.186  62.876 -45.646  1.00  0.00     0.168 C 
HETATM   19  C   UNL     1     -44.966  61.397 -45.393  1.00  0.00     0.029 C 
HETATM   20  C   UNL     1     -45.374  60.758 -46.697  1.00  0.00     0.035 C 
ENDBRANCH  15  16
ENDBRANCH  12  15
ENDBRANCH   6  11
BRANCH   8  21
HETATM   21  C   UNL     1     -44.164  56.398 -54.524  1.00  0.00     0.409 C 
HETATM   22  F   UNL     1     -45.491  56.540 -54.746  1.00  0.00    -0.169 F 
HETATM   23  F   UNL     1     -43.683  55.669 -55.567  1.00  0.00    -0.169 F 
HETATM   24  F   UNL     1     -44.016  55.643 -53.420  1.00  0.00    -0.169 F 
ENDBRANCH   8  21
BRANCH   1  25
HETATM   25  C   UNL     1     -40.773  55.738 -53.819  1.00  0.00    -0.034 A 
HETATM   26  C   UNL     1     -40.433  54.972 -54.948  1.00  0.00     0.011 A 
HETATM   27  C   UNL     1     -40.243  53.590 -54.850  1.00  0.00     0.026 A 
HETATM   28  C   UNL     1     -40.387  52.943 -53.621  1.00  0.00     0.055 A 
HETATM   29  C   UNL     1     -40.721  53.685 -52.486  1.00  0.00     0.056 A 
HETATM   30 CL   UNL     1     -40.133  51.236 -53.575  1.00  0.00    -0.083 Cl
HETATM   31  C   UNL     1     -40.905  55.070 -52.588  1.00  0.00     0.034 A 
HETATM   32 CL   UNL     1     -40.920  52.959 -50.931  1.00  0.00    -0.083 Cl
ENDBRANCH   1  25
TORSDOF 5
ENDMDL
MODEL 5
REMARK VINA RESULT:      -8.1      5.045      6.770
REMARK  5 active torsions:
REMARK  status: ('A' for Active; 'I' for Inactive)
REMARK    1  A    between atoms: C_2  and  C_3 
REMARK    2  A    between atoms: C_8  and  C_9 
REMARK       I    between atoms: C_9  and  N_10 
REMARK    3  A    between atoms: N_10  and  C_11 
REMARK    4  A    between atoms: C_11  and  C_12 
REMARK    5  A    between atoms: C_19  and  C_20 
ROOT
HETATM    1  C   UNL     1     -41.595  54.841 -54.215  1.00  0.00     0.118 C 
HETATM    2  N   UNL     1     -40.892  56.093 -53.969  1.00  0.00    -0.366 N 
HETATM    3  C   UNL     1     -41.330  57.000 -53.069  1.00  0.00     0.123 A 
HETATM    4  N   UNL     1     -42.528  56.859 -52.427  1.00  0.00    -0.240 N 
HETATM    5  N   UNL     1     -42.832  57.882 -51.611  1.00  0.00    -0.165 NA
HETATM    6  C   UNL     1     -41.741  58.679 -51.677  1.00  0.00     0.148 A 
HETATM    7  C   UNL     1     -40.786  58.165 -52.597  1.00  0.00     0.088 A 
HETATM    8  C   UNL     1     -43.437  55.749 -52.626  1.00  0.00     0.221 C 
HETATM    9  C   UNL     1     -43.101  54.999 -53.931  1.00  0.00     0.066 C 
HETATM   10  H   UNL     1     -39.956  56.160 -54.364  1.00  0.00     0.161 HD
ENDROOT
BRANCH   6  11
HETATM   11  C   UNL     1     -41.613  59.906 -50.874  1.00  0.00     0.272 C 
HETATM   12  N   UNL     1     -42.706  60.736 -50.969  1.00  0.00    -0.353 N 
HETATM   13  H   UNL     1     -43.389  60.484 -51.678  1.00  0.00     0.162 HD
HETATM   14  O   UNL     1     -40.628  60.156 -50.186  1.00  0.00    -0.266 OA
BRANCH  12  15
HETATM   15  C   UNL     1     -42.770  62.031 -50.330  1.00  0.00     0.155 C 
BRANCH  15  16
HETATM   16  C   UNL     1     -44.094  62.263 -49.600  1.00  0.00     0.139 C 
HETATM   17  O   UNL     1     -44.293  61.268 -48.576  1.00  0.00    -0.384 OA
HETATM   18  C   UNL     1     -45.051  61.866 -47.515  1.00  0.00     0.168 C 
HETATM   19  C   UNL     1     -45.207  63.340 -47.835  1.00  0.00     0.029 C 
HETATM   20  C   UNL     1     -44.130  63.588 -48.860  1.00  0.00     0.035 C 
ENDBRANCH  15  16
ENDBRANCH  12  15
ENDBRANCH   6  11
BRANCH   8  21
HETATM   21  C   UNL     1     -43.461  54.859 -51.404  1.00  0.00     0.409 C 
HETATM   22  F   UNL     1     -44.487  55.155 -50.574  1.00  0.00    -0.169 F 
HETATM   23  F   UNL     1     -43.640  53.564 -51.779  1.00  0.00    -0.169 F 
HETATM   24  F   UNL     1     -42.327  54.901 -50.679  1.00  0.00    -0.169 F 
ENDBRANCH   8  21
BRANCH   1  25
HETATM   25  C   UNL     1     -40.929  53.651 -53.541  1.00  0.00    -0.034 A 
HETATM   26  C   UNL     1     -40.446  53.790 -52.228  1.00  0.00     0.011 A 
HETATM   27  C   UNL     1     -39.847  52.716 -51.563  1.00  0.00     0.026 A 
HETATM   28  C   UNL     1     -39.719  51.477 -52.196  1.00  0.00     0.055 A 
HETATM   29  C   UNL     1     -40.194  51.316 -53.499  1.00  0.00     0.056 A 
HETATM   30 CL   UNL     1     -38.974  50.195 -51.312  1.00  0.00    -0.083 Cl
HETATM   31  C   UNL     1     -40.799  52.394 -54.159  1.00  0.00     0.034 A 
HETATM   32 CL   UNL     1     -40.072  49.817 -54.350  1.00  0.00    -0.083 Cl
ENDBRANCH   1  25
TORSDOF 5
ENDMDL
MODEL 6
REMARK VINA RESULT:      -8.1      4.796      6.674
REMARK  5 active torsions:
REMARK  status: ('A' for Active; 'I' for Inactive)
REMARK    1  A    between atoms: C_2  and  C_3 
REMARK    2  A    between atoms: C_8  and  C_9 
REMARK       I    between atoms: C_9  and  N_10 
REMARK    3  A    between atoms: N_10  and  C_11 
REMARK    4  A    between atoms: C_11  and  C_12 
REMARK    5  A    between atoms: C_19  and  C_20 
ROOT
HETATM    1  C   UNL     1     -40.782  55.998 -54.035  1.00  0.00     0.118 C 
HETATM    2  N   UNL     1     -41.025  56.858 -52.885  1.00  0.00    -0.366 N 
HETATM    3  C   UNL     1     -42.265  57.264 -52.537  1.00  0.00     0.123 A 
HETATM    4  N   UNL     1     -43.356  56.998 -53.317  1.00  0.00    -0.240 N 
HETATM    5  N   UNL     1     -44.501  57.525 -52.850  1.00  0.00    -0.165 NA
HETATM    6  C   UNL     1     -44.136  58.091 -51.677  1.00  0.00     0.148 A 
HETATM    7  C   UNL     1     -42.738  57.962 -51.458  1.00  0.00     0.088 A 
HETATM    8  C   UNL     1     -43.309  56.265 -54.567  1.00  0.00     0.221 C 
HETATM    9  C   UNL     1     -41.867  56.207 -55.108  1.00  0.00     0.066 C 
HETATM   10  H   UNL     1     -40.240  56.977 -52.247  1.00  0.00     0.161 HD
ENDROOT
BRANCH   6  11
HETATM   11  C   UNL     1     -45.108  58.739 -50.781  1.00  0.00     0.272 C 
HETATM   12  N   UNL     1     -44.622  59.879 -50.184  1.00  0.00    -0.353 N 
HETATM   13  H   UNL     1     -43.629  60.052 -50.310  1.00  0.00     0.162 HD
HETATM   14  O   UNL     1     -46.241  58.304 -50.594  1.00  0.00    -0.266 OA
BRANCH  12  15
HETATM   15  C   UNL     1     -45.371  60.637 -49.207  1.00  0.00     0.155 C 
BRANCH  15  16
HETATM   16  C   UNL     1     -45.769  62.024 -49.716  1.00  0.00     0.139 C 
HETATM   17  O   UNL     1     -46.492  61.922 -50.960  1.00  0.00    -0.384 OA
HETATM   18  C   UNL     1     -47.420  63.014 -51.025  1.00  0.00     0.168 C 
HETATM   19  C   UNL     1     -47.367  63.745 -49.698  1.00  0.00     0.029 C 
HETATM   20  C   UNL     1     -46.721  62.741 -48.776  1.00  0.00     0.035 C 
ENDBRANCH  15  16
ENDBRANCH  12  15
ENDBRANCH   6  11
BRANCH   8  21
HETATM   21  C   UNL     1     -43.953  54.906 -54.406  1.00  0.00     0.409 C 
HETATM   22  F   UNL     1     -43.704  54.361 -53.193  1.00  0.00    -0.169 F 
HETATM   23  F   UNL     1     -45.305  55.023 -54.496  1.00  0.00    -0.169 F 
HETATM   24  F   UNL     1     -43.576  54.012 -55.339  1.00  0.00    -0.169 F 
ENDBRANCH   8  21
BRANCH   1  25
HETATM   25  C   UNL     1     -40.528  54.551 -53.642  1.00  0.00    -0.034 A 
HETATM   26  C   UNL     1     -40.275  53.603 -54.648  1.00  0.00     0.011 A 
HETATM   27  C   UNL     1     -40.015  52.266 -54.330  1.00  0.00     0.026 A 
HETATM   28  C   UNL     1     -40.001  51.848 -52.997  1.00  0.00     0.055 A 
HETATM   29  C   UNL     1     -40.247  52.775 -51.981  1.00  0.00     0.056 A 
HETATM   30 CL   UNL     1     -39.668  50.184 -52.678  1.00  0.00    -0.083 Cl
HETATM   31  C   UNL     1     -40.501  54.114 -52.305  1.00  0.00     0.034 A 
HETATM   32 CL   UNL     1     -40.250  52.336 -50.310  1.00  0.00    -0.083 Cl
ENDBRANCH   1  25
TORSDOF 5
ENDMDL
MODEL 7
REMARK VINA RESULT:      -8.1      4.971      6.952
REMARK  5 active torsions:
REMARK  status: ('A' for Active; 'I' for Inactive)
REMARK    1  A    between atoms: C_2  and  C_3 
REMARK    2  A    between atoms: C_8  and  C_9 
REMARK       I    between atoms: C_9  and  N_10 
REMARK    3  A    between atoms: N_10  and  C_11 
REMARK    4  A    between atoms: C_11  and  C_12 
REMARK    5  A    between atoms: C_19  and  C_20 
ROOT
HETATM    1  C   UNL     1     -40.588  55.558 -54.013  1.00  0.00     0.118 C 
HETATM    2  N   UNL     1     -40.842  56.571 -52.997  1.00  0.00    -0.366 N 
HETATM    3  C   UNL     1     -42.085  57.023 -52.724  1.00  0.00     0.123 A 
HETATM    4  N   UNL     1     -43.167  56.652 -53.474  1.00  0.00    -0.240 N 
HETATM    5  N   UNL     1     -44.316  57.241 -53.099  1.00  0.00    -0.165 NA
HETATM    6  C   UNL     1     -43.964  57.964 -52.012  1.00  0.00     0.148 A 
HETATM    7  C   UNL     1     -42.569  57.865 -51.759  1.00  0.00     0.088 A 
HETATM    8  C   UNL     1     -43.107  55.753 -54.608  1.00  0.00     0.221 C 
HETATM    9  C   UNL     1     -41.659  55.618 -55.118  1.00  0.00     0.066 C 
HETATM   10  H   UNL     1     -40.064  56.777 -52.372  1.00  0.00     0.161 HD
ENDROOT
BRANCH   6  11
HETATM   11  C   UNL     1     -44.945  58.733 -51.227  1.00  0.00     0.272 C 
HETATM   12  N   UNL     1     -44.714  60.089 -51.245  1.00  0.00    -0.353 N 
HETATM   13  H   UNL     1     -43.833  60.380 -51.661  1.00  0.00     0.162 HD
HETATM   14  O   UNL     1     -45.878  58.210 -50.625  1.00  0.00    -0.266 OA
BRANCH  12  15
HETATM   15  C   UNL     1     -45.501  61.032 -50.483  1.00  0.00     0.155 C 
BRANCH  15  16
HETATM   16  C   UNL     1     -44.830  61.434 -49.169  1.00  0.00     0.139 C 
HETATM   17  O   UNL     1     -44.924  62.858 -48.963  1.00  0.00    -0.384 OA
HETATM   18  C   UNL     1     -44.980  63.101 -47.550  1.00  0.00     0.168 C 
HETATM   19  C   UNL     1     -45.067  61.756 -46.854  1.00  0.00     0.029 C 
HETATM   20  C   UNL     1     -45.508  60.825 -47.955  1.00  0.00     0.035 C 
ENDBRANCH  15  16
ENDBRANCH  12  15
ENDBRANCH   6  11
BRANCH   8  21
HETATM   21  C   UNL     1     -43.757  54.431 -54.268  1.00  0.00     0.409 C 
HETATM   22  F   UNL     1     -45.102  54.469 -54.407  1.00  0.00    -0.169 F 
HETATM   23  F   UNL     1     -43.317  53.468 -55.122  1.00  0.00    -0.169 F 
HETATM   24  F   UNL     1     -43.490  53.998 -53.022  1.00  0.00    -0.169 F 
ENDBRANCH   8  21
BRANCH   1  25
HETATM   25  C   UNL     1     -40.344  54.180 -53.419  1.00  0.00    -0.034 A 
HETATM   26  C   UNL     1     -40.304  54.034 -52.022  1.00  0.00     0.011 A 
HETATM   27  C   UNL     1     -40.105  52.780 -51.433  1.00  0.00     0.026 A 
HETATM   28  C   UNL     1     -39.942  51.645 -52.230  1.00  0.00     0.055 A 
HETATM   29  C   UNL     1     -39.981  51.767 -53.621  1.00  0.00     0.056 A 
HETATM   30 CL   UNL     1     -39.705  50.131 -51.435  1.00  0.00    -0.083 Cl
HETATM   31  C   UNL     1     -40.187  53.023 -54.205  1.00  0.00     0.034 A 
HETATM   32 CL   UNL     1     -39.787  50.411 -54.674  1.00  0.00    -0.083 Cl
ENDBRANCH   1  25
TORSDOF 5
ENDMDL
MODEL 8
REMARK VINA RESULT:      -7.9      3.229      4.171
REMARK  5 active torsions:
REMARK  status: ('A' for Active; 'I' for Inactive)
REMARK    1  A    between atoms: C_2  and  C_3 
REMARK    2  A    between atoms: C_8  and  C_9 
REMARK       I    between atoms: C_9  and  N_10 
REMARK    3  A    between atoms: N_10  and  C_11 
REMARK    4  A    between atoms: C_11  and  C_12 
REMARK    5  A    between atoms: C_19  and  C_20 
ROOT
HETATM    1  C   UNL     1     -43.689  56.748 -51.237  1.00  0.00     0.118 C 
HETATM    2  N   UNL     1     -44.560  56.604 -52.396  1.00  0.00    -0.366 N 
HETATM    3  C   UNL     1     -44.308  57.222 -53.570  1.00  0.00     0.123 A 
HETATM    4  N   UNL     1     -43.290  58.125 -53.704  1.00  0.00    -0.240 N 
HETATM    5  N   UNL     1     -43.218  58.688 -54.923  1.00  0.00    -0.165 NA
HETATM    6  C   UNL     1     -44.191  58.059 -55.622  1.00  0.00     0.148 A 
HETATM    7  C   UNL     1     -44.906  57.146 -54.799  1.00  0.00     0.088 A 
HETATM    8  C   UNL     1     -42.386  58.505 -52.637  1.00  0.00     0.221 C 
HETATM    9  C   UNL     1     -42.970  58.110 -51.265  1.00  0.00     0.066 C 
HETATM   10  H   UNL     1     -45.257  55.863 -52.337  1.00  0.00     0.161 HD
ENDROOT
BRANCH   6  11
HETATM   11  C   UNL     1     -44.429  58.323 -57.051  1.00  0.00     0.272 C 
HETATM   12  N   UNL     1     -44.575  57.179 -57.799  1.00  0.00    -0.353 N 
HETATM   13  H   UNL     1     -44.359  56.309 -57.320  1.00  0.00     0.162 HD
HETATM   14  O   UNL     1     -44.495  59.455 -57.520  1.00  0.00    -0.266 OA
BRANCH  12  15
HETATM   15  C   UNL     1     -44.739  57.192 -59.236  1.00  0.00     0.155 C 
BRANCH  15  16
HETATM   16  C   UNL     1     -46.209  57.182 -59.661  1.00  0.00     0.139 C 
HETATM   17  O   UNL     1     -46.556  58.414 -60.324  1.00  0.00    -0.384 OA
HETATM   18  C   UNL     1     -47.580  58.127 -61.287  1.00  0.00     0.168 C 
HETATM   19  C   UNL     1     -47.775  56.624 -61.320  1.00  0.00     0.029 C 
HETATM   20  C   UNL     1     -46.516  56.098 -60.678  1.00  0.00     0.035 C 
ENDBRANCH  15  16
ENDBRANCH  12  15
ENDBRANCH   6  11
BRANCH   8  21
HETATM   21  C   UNL     1     -41.004  57.947 -52.892  1.00  0.00     0.409 C 
HETATM   22  F   UNL     1     -40.194  58.842 -53.501  1.00  0.00    -0.169 F 
HETATM   23  F   UNL     1     -40.406  57.640 -51.709  1.00  0.00    -0.169 F 
HETATM   24  F   UNL     1     -40.999  56.824 -53.633  1.00  0.00    -0.169 F 
ENDBRANCH   8  21
BRANCH   1  25
HETATM   25  C   UNL     1     -42.787  55.542 -51.028  1.00  0.00    -0.034 A 
HETATM   26  C   UNL     1     -42.686  54.577 -52.045  1.00  0.00     0.011 A 
HETATM   27  C   UNL     1     -41.851  53.465 -51.903  1.00  0.00     0.026 A 
HETATM   28  C   UNL     1     -41.097  53.292 -50.740  1.00  0.00     0.055 A 
HETATM   29  C   UNL     1     -41.180  54.240 -49.718  1.00  0.00     0.056 A 
HETATM   30 CL   UNL     1     -40.084  51.898 -50.637  1.00  0.00    -0.083 Cl
HETATM   31  C   UNL     1     -42.013  55.356 -49.867  1.00  0.00     0.034 A 
HETATM   32 CL   UNL     1     -40.281  54.097 -48.249  1.00  0.00    -0.083 Cl
ENDBRANCH   1  25
TORSDOF 5
ENDMDL
MODEL 9
REMARK VINA RESULT:      -7.8      1.569      2.178
REMARK  5 active torsions:
REMARK  status: ('A' for Active; 'I' for Inactive)
REMARK    1  A    between atoms: C_2  and  C_3 
REMARK    2  A    between atoms: C_8  and  C_9 
REMARK       I    between atoms: C_9  and  N_10 
REMARK    3  A    between atoms: N_10  and  C_11 
REMARK    4  A    between atoms: C_11  and  C_12 
REMARK    5  A    between atoms: C_19  and  C_20 
ROOT
HETATM    1  C   UNL     1     -43.491  55.327 -53.874  1.00  0.00     0.118 C 
HETATM    2  N   UNL     1     -43.556  55.607 -55.303  1.00  0.00    -0.366 N 
HETATM    3  C   UNL     1     -43.037  56.731 -55.841  1.00  0.00     0.123 A 
HETATM    4  N   UNL     1     -42.534  57.737 -55.064  1.00  0.00    -0.240 N 
HETATM    5  N   UNL     1     -42.113  58.806 -55.762  1.00  0.00    -0.165 NA
HETATM    6  C   UNL     1     -42.288  58.434 -57.051  1.00  0.00     0.148 A 
HETATM    7  C   UNL     1     -42.883  57.145 -57.137  1.00  0.00     0.088 A 
HETATM    8  C   UNL     1     -42.492  57.710 -53.616  1.00  0.00     0.221 C 
HETATM    9  C   UNL     1     -43.454  56.637 -53.066  1.00  0.00     0.066 C 
HETATM   10  H   UNL     1     -43.836  54.826 -55.895  1.00  0.00     0.161 HD
ENDROOT
BRANCH   6  11
HETATM   11  C   UNL     1     -41.890  59.293 -58.179  1.00  0.00     0.272 C 
HETATM   12  N   UNL     1     -42.323  58.827 -59.398  1.00  0.00    -0.353 N 
HETATM   13  H   UNL     1     -42.726  57.894 -59.395  1.00  0.00     0.162 HD
HETATM   14  O   UNL     1     -41.241  60.325 -58.037  1.00  0.00    -0.266 OA
BRANCH  12  15
HETATM   15  C   UNL     1     -41.985  59.465 -60.651  1.00  0.00     0.155 C 
BRANCH  15  16
HETATM   16  C   UNL     1     -43.044  60.471 -61.105  1.00  0.00     0.139 C 
HETATM   17  O   UNL     1     -42.891  60.774 -62.506  1.00  0.00    -0.384 OA
HETATM   18  C   UNL     1     -44.189  61.073 -63.041  1.00  0.00     0.168 C 
HETATM   19  C   UNL     1     -45.210  60.803 -61.952  1.00  0.00     0.029 C 
HETATM   20  C   UNL     1     -44.457  59.929 -60.981  1.00  0.00     0.035 C 
ENDBRANCH  15  16
ENDBRANCH  12  15
ENDBRANCH   6  11
BRANCH   8  21
HETATM   21  C   UNL     1     -41.068  57.555 -53.132  1.00  0.00     0.409 C 
HETATM   22  F   UNL     1     -40.409  58.735 -53.093  1.00  0.00    -0.169 F 
HETATM   23  F   UNL     1     -41.064  57.079 -51.858  1.00  0.00    -0.169 F 
HETATM   24  F   UNL     1     -40.333  56.702 -53.869  1.00  0.00    -0.169 F 
ENDBRANCH   8  21
BRANCH   1  25
HETATM   25  C   UNL     1     -42.409  54.317 -53.523  1.00  0.00    -0.034 A 
HETATM   26  C   UNL     1     -41.748  53.634 -54.559  1.00  0.00     0.011 A 
HETATM   27  C   UNL     1     -40.732  52.714 -54.281  1.00  0.00     0.026 A 
HETATM   28  C   UNL     1     -40.353  52.457 -52.962  1.00  0.00     0.055 A 
HETATM   29  C   UNL     1     -40.995  53.126 -51.918  1.00  0.00     0.056 A 
HETATM   30 CL   UNL     1     -39.088  51.313 -52.695  1.00  0.00    -0.083 Cl
HETATM   31  C   UNL     1     -42.008  54.052 -52.201  1.00  0.00     0.034 A 
HETATM   32 CL   UNL     1     -40.586  52.863 -50.259  1.00  0.00    -0.083 Cl
ENDBRANCH   1  25
TORSDOF 5
ENDMDL
MODEL 10
REMARK VINA RESULT:      -7.7      1.444      2.414
REMARK  5 active torsions:
REMARK  status: ('A' for Active; 'I' for Inactive)
REMARK    1  A    between atoms: C_2  and  C_3 
REMARK    2  A    between atoms: C_8  and  C_9 
REMARK       I    between atoms: C_9  and  N_10 
REMARK    3  A    between atoms: N_10  and  C_11 
REMARK    4  A    between atoms: C_11  and  C_12 
REMARK    5  A    between atoms: C_19  and  C_20 
ROOT
HETATM    1  C   UNL     1     -43.579  55.467 -53.594  1.00  0.00     0.118 C 
HETATM    2  N   UNL     1     -43.707  55.448 -55.045  1.00  0.00    -0.366 N 
HETATM    3  C   UNL     1     -43.176  56.412 -55.828  1.00  0.00     0.123 A 
HETATM    4  N   UNL     1     -42.597  57.532 -55.301  1.00  0.00    -0.240 N 
HETATM    5  N   UNL     1     -42.174  58.413 -56.224  1.00  0.00    -0.165 NA
HETATM    6  C   UNL     1     -42.427  57.790 -57.398  1.00  0.00     0.148 A 
HETATM    7  C   UNL     1     -43.072  56.541 -57.188  1.00  0.00     0.088 A 
HETATM    8  C   UNL     1     -42.483  57.804 -53.882  1.00  0.00     0.221 C 
HETATM    9  C   UNL     1     -43.453  56.914 -53.080  1.00  0.00     0.066 C 
HETATM   10  H   UNL     1     -44.044  54.576 -55.448  1.00  0.00     0.161 HD
ENDROOT
BRANCH   6  11
HETATM   11  C   UNL     1     -42.056  58.378 -58.696  1.00  0.00     0.272 C 
HETATM   12  N   UNL     1     -42.096  59.753 -58.703  1.00  0.00    -0.353 N 
HETATM   13  H   UNL     1     -42.509  60.185 -57.881  1.00  0.00     0.162 HD
HETATM   14  O   UNL     1     -41.738  57.703 -59.671  1.00  0.00    -0.266 OA
BRANCH  12  15
HETATM   15  C   UNL     1     -41.846  60.543 -59.887  1.00  0.00     0.155 C 
BRANCH  15  16
HETATM   16  C   UNL     1     -43.132  61.078 -60.521  1.00  0.00     0.139 C 
HETATM   17  O   UNL     1     -43.770  60.059 -61.317  1.00  0.00    -0.384 OA
HETATM   18  C   UNL     1     -45.186  60.285 -61.278  1.00  0.00     0.168 C 
HETATM   19  C   UNL     1     -45.446  61.412 -60.297  1.00  0.00     0.029 C 
HETATM   20  C   UNL     1     -44.175  61.467 -59.488  1.00  0.00     0.035 C 
ENDBRANCH  15  16
ENDBRANCH  12  15
ENDBRANCH   6  11
BRANCH   8  21
HETATM   21  C   UNL     1     -41.043  57.687 -53.437  1.00  0.00     0.409 C 
HETATM   22  F   UNL     1     -40.363  56.752 -54.138  1.00  0.00    -0.169 F 
HETATM   23  F   UNL     1     -40.397  58.864 -53.653  1.00  0.00    -0.169 F 
HETATM   24  F   UNL     1     -40.899  57.399 -52.130  1.00  0.00    -0.169 F 
ENDBRANCH   8  21
BRANCH   1  25
HETATM   25  C   UNL     1     -42.518  54.504 -53.086  1.00  0.00    -0.034 A 
HETATM   26  C   UNL     1     -42.251  54.445 -51.707  1.00  0.00     0.011 A 
HETATM   27  C   UNL     1     -41.299  53.557 -51.194  1.00  0.00     0.026 A 
HETATM   28  C   UNL     1     -40.595  52.707 -52.050  1.00  0.00     0.055 A 
HETATM   29  C   UNL     1     -40.847  52.746 -53.423  1.00  0.00     0.056 A 
HETATM   30 CL   UNL     1     -39.440  51.634 -51.347  1.00  0.00    -0.083 Cl
HETATM   31  C   UNL     1     -41.805  53.633 -53.931  1.00  0.00     0.034 A 
HETATM   32 CL   UNL     1     -40.017  51.729 -54.546  1.00  0.00    -0.083 Cl
ENDBRANCH   1  25
TORSDOF 5
ENDMDL
