MODEL 1
REMARK VINA RESULT:      -8.5      0.000      0.000
REMARK  8 active torsions:
REMARK  status: ('A' for Active; 'I' for Inactive)
REMARK    1  A    between atoms: C_4  and  N_5 
REMARK    2  A    between atoms: N_5  and  S_6 
REMARK    3  A    between atoms: S_6  and  C_7 
REMARK    4  A    between atoms: C_13  and  C_14 
REMARK       I    between atoms: C_14  and  N_15 
REMARK    5  A    between atoms: N_15  and  C_16 
REMARK    6  A    between atoms: C_16  and  C_17 
REMARK    7  A    between atoms: C_17  and  C_18 
REMARK    8  A    between atoms: C_18  and  O_19 
ROOT
HETATM    1  C   UNL     1     -42.417  56.910 -53.907  1.00  0.00     0.081 A 
HETATM    2  C   UNL     1     -43.416  57.329 -53.024  1.00  0.00     0.043 A 
HETATM    3  C   UNL     1     -43.213  58.488 -52.269  1.00  0.00     0.043 A 
HETATM    4  C   UNL     1     -42.033  59.241 -52.403  1.00  0.00     0.046 A 
HETATM    5  N   UNL     1     -41.835  60.370 -51.601  1.00  0.00    -0.364 N 
HETATM    6  C   UNL     1     -42.809  60.797 -50.735  1.00  0.00     0.109 A 
HETATM    7  C   UNL     1     -43.986  60.185 -50.522  1.00  0.00     0.098 A 
HETATM    8  C   UNL     1     -44.252  58.945 -51.307  1.00  0.00     0.201 A 
HETATM    9  O   UNL     1     -45.292  58.305 -51.173  1.00  0.00    -0.286 OA
HETATM   10  C   UNL     1     -41.046  58.807 -53.295  1.00  0.00     0.032 A 
HETATM   11  C   UNL     1     -41.240  57.651 -54.057  1.00  0.00     0.027 A 
HETATM   12  H   UNL     1     -41.048  60.984 -51.785  1.00  0.00     0.165 HD
ENDROOT
BRANCH   1  13
HETATM   13  S   UNL     1     -42.679  55.447 -54.887  1.00  0.00     0.263 S 
HETATM   14  O   UNL     1     -43.153  55.863 -56.189  1.00  0.00    -0.200 OA
HETATM   15  O   UNL     1     -43.438  54.520 -54.074  1.00  0.00    -0.200 OA
BRANCH  13  16
HETATM   16  N   UNL     1     -41.125  54.799 -55.016  1.00  0.00    -0.281 N 
HETATM   17  H   UNL     1     -40.822  54.702 -55.983  1.00  0.00     0.179 HD
BRANCH  16  18
HETATM   18  C   UNL     1     -40.713  53.803 -54.088  1.00  0.00     0.043 A 
HETATM   19  C   UNL     1     -40.593  54.124 -52.735  1.00  0.00     0.037 A 
HETATM   20  C   UNL     1     -40.149  53.160 -51.823  1.00  0.00    -0.059 A 
HETATM   21  C   UNL     1     -40.018  53.479 -50.362  1.00  0.00     0.048 C 
HETATM   22  C   UNL     1     -39.849  51.869 -52.282  1.00  0.00     0.013 A 
HETATM   23  C   UNL     1     -39.966  51.542 -53.639  1.00  0.00    -0.059 A 
HETATM   24  C   UNL     1     -40.395  52.523 -54.540  1.00  0.00     0.037 A 
HETATM   25  C   UNL     1     -39.664  50.149 -54.106  1.00  0.00     0.048 C 
ENDBRANCH  16  18
ENDBRANCH  13  16
ENDBRANCH   1  13
BRANCH   7  26
HETATM   26  C   UNL     1     -44.923  60.773 -49.521  1.00  0.00     0.257 C 
HETATM   27  N   UNL     1     -44.367  61.089 -48.308  1.00  0.00    -0.357 N 
HETATM   28  H   UNL     1     -43.371  60.908 -48.169  1.00  0.00     0.162 HD
HETATM   29  O   UNL     1     -46.108  60.965 -49.784  1.00  0.00    -0.267 OA
BRANCH  27  30
HETATM   30  C   UNL     1     -45.119  61.710 -47.242  1.00  0.00     0.125 C 
BRANCH  30  31
HETATM   31  C   UNL     1     -45.740  60.691 -46.294  1.00  0.00     0.046 C 
BRANCH  31  32
HETATM   32  C   UNL     1     -47.253  60.860 -46.227  1.00  0.00     0.168 C 
BRANCH  32  33
HETATM   33  O   UNL     1     -47.838  59.615 -45.853  1.00  0.00    -0.396 OA
HETATM   34  C   UNL     1     -46.860  58.589 -45.739  1.00  0.00     0.201 C 
ENDBRANCH  32  33
ENDBRANCH  31  32
ENDBRANCH  30  31
ENDBRANCH  27  30
ENDBRANCH   7  26
TORSDOF 8
ENDMDL
MODEL 2
REMARK VINA RESULT:      -8.5      5.775      8.558
REMARK  8 active torsions:
REMARK  status: ('A' for Active; 'I' for Inactive)
REMARK    1  A    between atoms: C_4  and  N_5 
REMARK    2  A    between atoms: N_5  and  S_6 
REMARK    3  A    between atoms: S_6  and  C_7 
REMARK    4  A    between atoms: C_13  and  C_14 
REMARK       I    between atoms: C_14  and  N_15 
REMARK    5  A    between atoms: N_15  and  C_16 
REMARK    6  A    between atoms: C_16  and  C_17 
REMARK    7  A    between atoms: C_17  and  C_18 
REMARK    8  A    between atoms: C_18  and  O_19 
ROOT
HETATM    1  C   UNL     1     -42.639  56.118 -56.709  1.00  0.00     0.081 A 
HETATM    2  C   UNL     1     -42.312  57.476 -56.675  1.00  0.00     0.043 A 
HETATM    3  C   UNL     1     -42.309  58.205 -57.868  1.00  0.00     0.043 A 
HETATM    4  C   UNL     1     -42.648  57.595 -59.089  1.00  0.00     0.046 A 
HETATM    5  N   UNL     1     -42.591  58.335 -60.274  1.00  0.00    -0.364 N 
HETATM    6  C   UNL     1     -42.278  59.671 -60.255  1.00  0.00     0.109 A 
HETATM    7  C   UNL     1     -41.952  60.379 -59.161  1.00  0.00     0.098 A 
HETATM    8  C   UNL     1     -41.944  59.648 -57.862  1.00  0.00     0.201 A 
HETATM    9  O   UNL     1     -41.646  60.203 -56.808  1.00  0.00    -0.286 OA
HETATM   10  C   UNL     1     -42.977  56.235 -59.102  1.00  0.00     0.032 A 
HETATM   11  C   UNL     1     -42.986  55.498 -57.913  1.00  0.00     0.027 A 
HETATM   12  H   UNL     1     -42.957  57.936 -61.132  1.00  0.00     0.165 HD
ENDROOT
BRANCH   1  13
HETATM   13  S   UNL     1     -42.666  55.190 -55.189  1.00  0.00     0.263 S 
HETATM   14  O   UNL     1     -43.360  53.946 -55.441  1.00  0.00    -0.200 OA
HETATM   15  O   UNL     1     -43.102  56.095 -54.146  1.00  0.00    -0.200 OA
BRANCH  13  16
HETATM   16  N   UNL     1     -41.029  54.893 -54.903  1.00  0.00    -0.281 N 
HETATM   17  H   UNL     1     -40.453  55.056 -55.727  1.00  0.00     0.179 HD
BRANCH  16  18
HETATM   18  C   UNL     1     -40.662  53.826 -54.037  1.00  0.00     0.043 A 
HETATM   19  C   UNL     1     -40.586  54.046 -52.661  1.00  0.00     0.037 A 
HETATM   20  C   UNL     1     -40.186  53.011 -51.807  1.00  0.00    -0.059 A 
HETATM   21  C   UNL     1     -40.103  53.222 -50.323  1.00  0.00     0.048 C 
HETATM   22  C   UNL     1     -39.886  51.753 -52.349  1.00  0.00     0.013 A 
HETATM   23  C   UNL     1     -39.960  51.528 -53.729  1.00  0.00    -0.059 A 
HETATM   24  C   UNL     1     -40.344  52.577 -54.570  1.00  0.00     0.037 A 
HETATM   25  C   UNL     1     -39.659  50.167 -54.287  1.00  0.00     0.048 C 
ENDBRANCH  16  18
ENDBRANCH  13  16
ENDBRANCH   1  13
BRANCH   7  26
HETATM   26  C   UNL     1     -41.613  61.823 -59.324  1.00  0.00     0.257 C 
HETATM   27  N   UNL     1     -40.457  62.230 -58.709  1.00  0.00    -0.357 N 
HETATM   28  H   UNL     1     -39.912  61.537 -58.191  1.00  0.00     0.162 HD
HETATM   29  O   UNL     1     -42.326  62.581 -59.977  1.00  0.00    -0.267 OA
BRANCH  27  30
HETATM   30  C   UNL     1     -39.955  63.582 -58.804  1.00  0.00     0.125 C 
BRANCH  30  31
HETATM   31  C   UNL     1     -38.693  63.678 -59.652  1.00  0.00     0.046 C 
BRANCH  31  32
HETATM   32  C   UNL     1     -39.032  64.015 -61.099  1.00  0.00     0.168 C 
BRANCH  32  33
HETATM   33  O   UNL     1     -39.420  62.818 -61.770  1.00  0.00    -0.396 OA
HETATM   34  C   UNL     1     -40.271  63.089 -62.876  1.00  0.00     0.201 C 
ENDBRANCH  32  33
ENDBRANCH  31  32
ENDBRANCH  30  31
ENDBRANCH  27  30
ENDBRANCH   7  26
TORSDOF 8
ENDMDL
MODEL 3
REMARK VINA RESULT:      -8.4      4.197      7.036
REMARK  8 active torsions:
REMARK  status: ('A' for Active; 'I' for Inactive)
REMARK    1  A    between atoms: C_4  and  N_5 
REMARK    2  A    between atoms: N_5  and  S_6 
REMARK    3  A    between atoms: S_6  and  C_7 
REMARK    4  A    between atoms: C_13  and  C_14 
REMARK       I    between atoms: C_14  and  N_15 
REMARK    5  A    between atoms: N_15  and  C_16 
REMARK    6  A    between atoms: C_16  and  C_17 
REMARK    7  A    between atoms: C_17  and  C_18 
REMARK    8  A    between atoms: C_18  and  O_19 
ROOT
HETATM    1  C   UNL     1     -41.485  56.167 -51.060  1.00  0.00     0.081 A 
HETATM    2  C   UNL     1     -41.944  56.074 -52.376  1.00  0.00     0.043 A 
HETATM    3  C   UNL     1     -41.884  57.204 -53.198  1.00  0.00     0.043 A 
HETATM    4  C   UNL     1     -41.354  58.417 -52.722  1.00  0.00     0.046 A 
HETATM    5  N   UNL     1     -41.351  59.545 -53.549  1.00  0.00    -0.364 N 
HETATM    6  C   UNL     1     -41.792  59.468 -54.846  1.00  0.00     0.109 A 
HETATM    7  C   UNL     1     -42.305  58.372 -55.431  1.00  0.00     0.098 A 
HETATM    8  C   UNL     1     -42.386  57.139 -54.597  1.00  0.00     0.201 A 
HETATM    9  O   UNL     1     -42.852  56.091 -55.036  1.00  0.00    -0.286 OA
HETATM   10  C   UNL     1     -40.896  58.488 -51.402  1.00  0.00     0.032 A 
HETATM   11  C   UNL     1     -40.947  57.363 -50.574  1.00  0.00     0.027 A 
HETATM   12  H   UNL     1     -40.855  60.380 -53.256  1.00  0.00     0.165 HD
ENDROOT
BRANCH   1  13
HETATM   13  S   UNL     1     -41.537  54.725 -50.016  1.00  0.00     0.263 S 
HETATM   14  O   UNL     1     -42.682  53.933 -50.409  1.00  0.00    -0.200 OA
HETATM   15  O   UNL     1     -41.372  55.181 -48.652  1.00  0.00    -0.200 OA
BRANCH  13  16
HETATM   16  N   UNL     1     -40.109  53.918 -50.421  1.00  0.00    -0.281 N 
HETATM   17  H   UNL     1     -39.277  54.459 -50.190  1.00  0.00     0.179 HD
BRANCH  16  18
HETATM   18  C   UNL     1     -40.077  53.120 -51.596  1.00  0.00     0.043 A 
HETATM   19  C   UNL     1     -39.857  51.745 -51.494  1.00  0.00     0.037 A 
HETATM   20  C   UNL     1     -39.783  50.959 -52.651  1.00  0.00    -0.059 A 
HETATM   21  C   UNL     1     -39.554  49.479 -52.566  1.00  0.00     0.048 C 
HETATM   22  C   UNL     1     -39.954  51.566 -53.903  1.00  0.00     0.013 A 
HETATM   23  C   UNL     1     -40.173  52.946 -54.011  1.00  0.00    -0.059 A 
HETATM   24  C   UNL     1     -40.227  53.719 -52.847  1.00  0.00     0.037 A 
HETATM   25  C   UNL     1     -40.379  53.572 -55.360  1.00  0.00     0.048 C 
ENDBRANCH  16  18
ENDBRANCH  13  16
ENDBRANCH   1  13
BRANCH   7  26
HETATM   26  C   UNL     1     -42.762  58.471 -56.848  1.00  0.00     0.257 C 
HETATM   27  N   UNL     1     -42.165  57.597 -57.721  1.00  0.00    -0.357 N 
HETATM   28  H   UNL     1     -41.465  56.949 -57.356  1.00  0.00     0.162 HD
HETATM   29  O   UNL     1     -43.622  59.279 -57.192  1.00  0.00    -0.267 OA
BRANCH  27  30
HETATM   30  C   UNL     1     -42.523  57.525 -59.120  1.00  0.00     0.125 C 
BRANCH  30  31
HETATM   31  C   UNL     1     -42.597  56.090 -59.629  1.00  0.00     0.046 C 
BRANCH  31  32
HETATM   32  C   UNL     1     -44.018  55.550 -59.533  1.00  0.00     0.168 C 
BRANCH  32  33
HETATM   33  O   UNL     1     -44.871  56.585 -59.048  1.00  0.00    -0.396 OA
HETATM   34  C   UNL     1     -46.086  56.651 -59.782  1.00  0.00     0.201 C 
ENDBRANCH  32  33
ENDBRANCH  31  32
ENDBRANCH  30  31
ENDBRANCH  27  30
ENDBRANCH   7  26
TORSDOF 8
ENDMDL
MODEL 4
REMARK VINA RESULT:      -8.4      1.726      2.543
REMARK  8 active torsions:
REMARK  status: ('A' for Active; 'I' for Inactive)
REMARK    1  A    between atoms: C_4  and  N_5 
REMARK    2  A    between atoms: N_5  and  S_6 
REMARK    3  A    between atoms: S_6  and  C_7 
REMARK    4  A    between atoms: C_13  and  C_14 
REMARK       I    between atoms: C_14  and  N_15 
REMARK    5  A    between atoms: N_15  and  C_16 
REMARK    6  A    between atoms: C_16  and  C_17 
REMARK    7  A    between atoms: C_17  and  C_18 
REMARK    8  A    between atoms: C_18  and  O_19 
ROOT
HETATM    1  C   UNL     1     -43.352  56.642 -55.051  1.00  0.00     0.081 A 
HETATM    2  C   UNL     1     -43.552  56.872 -53.687  1.00  0.00     0.043 A 
HETATM    3  C   UNL     1     -44.345  57.952 -53.288  1.00  0.00     0.043 A 
HETATM    4  C   UNL     1     -44.954  58.791 -54.239  1.00  0.00     0.046 A 
HETATM    5  N   UNL     1     -45.704  59.893 -53.813  1.00  0.00    -0.364 N 
HETATM    6  C   UNL     1     -45.914  60.127 -52.477  1.00  0.00     0.109 A 
HETATM    7  C   UNL     1     -45.407  59.398 -51.469  1.00  0.00     0.098 A 
HETATM    8  C   UNL     1     -44.557  58.232 -51.842  1.00  0.00     0.201 A 
HETATM    9  O   UNL     1     -44.036  57.512 -50.993  1.00  0.00    -0.286 OA
HETATM   10  C   UNL     1     -44.746  58.542 -55.600  1.00  0.00     0.032 A 
HETATM   11  C   UNL     1     -43.957  57.463 -56.009  1.00  0.00     0.027 A 
HETATM   12  H   UNL     1     -46.247  60.421 -54.488  1.00  0.00     0.165 HD
ENDROOT
BRANCH   1  13
HETATM   13  S   UNL     1     -42.362  55.255 -55.564  1.00  0.00     0.263 S 
HETATM   14  O   UNL     1     -40.971  55.623 -55.415  1.00  0.00    -0.200 OA
HETATM   15  O   UNL     1     -42.886  54.805 -56.837  1.00  0.00    -0.200 OA
BRANCH  13  16
HETATM   16  N   UNL     1     -42.771  54.065 -54.437  1.00  0.00    -0.281 N 
HETATM   17  H   UNL     1     -43.606  54.304 -53.905  1.00  0.00     0.179 HD
BRANCH  16  18
HETATM   18  C   UNL     1     -41.732  53.364 -53.766  1.00  0.00     0.043 A 
HETATM   19  C   UNL     1     -41.176  52.225 -54.350  1.00  0.00     0.037 A 
HETATM   20  C   UNL     1     -40.181  51.507 -53.676  1.00  0.00    -0.059 A 
HETATM   21  C   UNL     1     -39.563  50.283 -54.286  1.00  0.00     0.048 C 
HETATM   22  C   UNL     1     -39.740  51.958 -52.423  1.00  0.00     0.013 A 
HETATM   23  C   UNL     1     -40.297  53.099 -51.832  1.00  0.00    -0.059 A 
HETATM   24  C   UNL     1     -41.302  53.795 -52.512  1.00  0.00     0.037 A 
HETATM   25  C   UNL     1     -39.794  53.579 -50.502  1.00  0.00     0.048 C 
ENDBRANCH  16  18
ENDBRANCH  13  16
ENDBRANCH   1  13
BRANCH   7  26
HETATM   26  C   UNL     1     -45.716  59.810 -50.069  1.00  0.00     0.257 C 
HETATM   27  N   UNL     1     -45.538  61.142 -49.794  1.00  0.00    -0.357 N 
HETATM   28  H   UNL     1     -45.215  61.754 -50.545  1.00  0.00     0.162 HD
HETATM   29  O   UNL     1     -46.111  59.001 -49.233  1.00  0.00    -0.267 OA
BRANCH  27  30
HETATM   30  C   UNL     1     -45.836  61.719 -48.502  1.00  0.00     0.125 C 
BRANCH  30  31
HETATM   31  C   UNL     1     -44.927  61.186 -47.401  1.00  0.00     0.046 C 
BRANCH  31  32
HETATM   32  C   UNL     1     -45.697  61.006 -46.099  1.00  0.00     0.168 C 
BRANCH  32  33
HETATM   33  O   UNL     1     -46.878  60.253 -46.365  1.00  0.00    -0.396 OA
HETATM   34  C   UNL     1     -46.841  58.979 -45.735  1.00  0.00     0.201 C 
ENDBRANCH  32  33
ENDBRANCH  31  32
ENDBRANCH  30  31
ENDBRANCH  27  30
ENDBRANCH   7  26
TORSDOF 8
ENDMDL
MODEL 5
REMARK VINA RESULT:      -8.2      4.004      8.061
REMARK  8 active torsions:
REMARK  status: ('A' for Active; 'I' for Inactive)
REMARK    1  A    between atoms: C_4  and  N_5 
REMARK    2  A    between atoms: N_5  and  S_6 
REMARK    3  A    between atoms: S_6  and  C_7 
REMARK    4  A    between atoms: C_13  and  C_14 
REMARK       I    between atoms: C_14  and  N_15 
REMARK    5  A    between atoms: N_15  and  C_16 
REMARK    6  A    between atoms: C_16  and  C_17 
REMARK    7  A    between atoms: C_17  and  C_18 
REMARK    8  A    between atoms: C_18  and  O_19 
ROOT
HETATM    1  C   UNL     1     -42.191  58.180 -53.731  1.00  0.00     0.081 A 
HETATM    2  C   UNL     1     -41.850  56.856 -53.444  1.00  0.00     0.043 A 
HETATM    3  C   UNL     1     -41.649  56.478 -52.113  1.00  0.00     0.043 A 
HETATM    4  C   UNL     1     -41.803  57.406 -51.067  1.00  0.00     0.046 A 
HETATM    5  N   UNL     1     -41.549  57.014 -49.749  1.00  0.00    -0.364 N 
HETATM    6  C   UNL     1     -41.220  55.715 -49.452  1.00  0.00     0.109 A 
HETATM    7  C   UNL     1     -41.057  54.728 -50.348  1.00  0.00     0.098 A 
HETATM    8  C   UNL     1     -41.265  55.079 -51.782  1.00  0.00     0.201 A 
HETATM    9  O   UNL     1     -41.125  54.251 -52.678  1.00  0.00    -0.286 OA
HETATM   10  C   UNL     1     -42.149  58.726 -51.374  1.00  0.00     0.032 A 
HETATM   11  C   UNL     1     -42.356  59.113 -52.702  1.00  0.00     0.027 A 
HETATM   12  H   UNL     1     -41.783  57.641 -48.986  1.00  0.00     0.165 HD
ENDROOT
BRANCH   1  13
HETATM   13  S   UNL     1     -42.470  58.661 -55.422  1.00  0.00     0.263 S 
HETATM   14  O   UNL     1     -41.592  59.771 -55.719  1.00  0.00    -0.200 OA
HETATM   15  O   UNL     1     -43.903  58.769 -55.602  1.00  0.00    -0.200 OA
BRANCH  13  16
HETATM   16  N   UNL     1     -41.988  57.293 -56.285  1.00  0.00    -0.281 N 
HETATM   17  H   UNL     1     -41.048  56.987 -56.038  1.00  0.00     0.179 HD
BRANCH  16  18
HETATM   18  C   UNL     1     -42.397  57.150 -57.639  1.00  0.00     0.043 A 
HETATM   19  C   UNL     1     -43.167  56.049 -58.018  1.00  0.00     0.037 A 
HETATM   20  C   UNL     1     -43.540  55.882 -59.357  1.00  0.00    -0.059 A 
HETATM   21  C   UNL     1     -44.373  54.710 -59.787  1.00  0.00     0.048 C 
HETATM   22  C   UNL     1     -43.149  56.841 -60.302  1.00  0.00     0.013 A 
HETATM   23  C   UNL     1     -42.375  57.947 -59.927  1.00  0.00    -0.059 A 
HETATM   24  C   UNL     1     -41.996  58.090 -58.588  1.00  0.00     0.037 A 
HETATM   25  C   UNL     1     -41.988  58.976 -60.949  1.00  0.00     0.048 C 
ENDBRANCH  16  18
ENDBRANCH  13  16
ENDBRANCH   1  13
BRANCH   7  26
HETATM   26  C   UNL     1     -40.673  53.375 -49.853  1.00  0.00     0.257 C 
HETATM   27  N   UNL     1     -40.568  52.403 -50.815  1.00  0.00    -0.357 N 
HETATM   28  H   UNL     1     -40.752  52.660 -51.786  1.00  0.00     0.162 HD
HETATM   29  O   UNL     1     -40.459  53.162 -48.661  1.00  0.00    -0.267 OA
BRANCH  27  30
HETATM   30  C   UNL     1     -40.159  51.049 -50.516  1.00  0.00     0.125 C 
BRANCH  30  31
HETATM   31  C   UNL     1     -39.487  50.368 -51.702  1.00  0.00     0.046 C 
BRANCH  31  32
HETATM   32  C   UNL     1     -39.187  51.371 -52.809  1.00  0.00     0.168 C 
BRANCH  32  33
HETATM   33  O   UNL     1     -40.180  51.244 -53.824  1.00  0.00    -0.396 OA
HETATM   34  C   UNL     1     -40.247  49.918 -54.331  1.00  0.00     0.201 C 
ENDBRANCH  32  33
ENDBRANCH  31  32
ENDBRANCH  30  31
ENDBRANCH  27  30
ENDBRANCH   7  26
TORSDOF 8
ENDMDL
MODEL 6
REMARK VINA RESULT:      -8.0      4.018      7.974
REMARK  8 active torsions:
REMARK  status: ('A' for Active; 'I' for Inactive)
REMARK    1  A    between atoms: C_4  and  N_5 
REMARK    2  A    between atoms: N_5  and  S_6 
REMARK    3  A    between atoms: S_6  and  C_7 
REMARK    4  A    between atoms: C_13  and  C_14 
REMARK       I    between atoms: C_14  and  N_15 
REMARK    5  A    between atoms: N_15  and  C_16 
REMARK    6  A    between atoms: C_16  and  C_17 
REMARK    7  A    between atoms: C_17  and  C_18 
REMARK    8  A    between atoms: C_18  and  O_19 
ROOT
HETATM    1  C   UNL     1     -41.982  58.709 -53.208  1.00  0.00     0.081 A 
HETATM    2  C   UNL     1     -42.149  57.667 -54.124  1.00  0.00     0.043 A 
HETATM    3  C   UNL     1     -42.336  57.974 -55.476  1.00  0.00     0.043 A 
HETATM    4  C   UNL     1     -42.341  59.308 -55.920  1.00  0.00     0.046 A 
HETATM    5  N   UNL     1     -42.578  59.589 -57.270  1.00  0.00    -0.364 N 
HETATM    6  C   UNL     1     -42.737  58.576 -58.182  1.00  0.00     0.109 A 
HETATM    7  C   UNL     1     -42.738  57.263 -57.897  1.00  0.00     0.098 A 
HETATM    8  C   UNL     1     -42.536  56.884 -56.469  1.00  0.00     0.201 A 
HETATM    9  O   UNL     1     -42.536  55.711 -56.105  1.00  0.00    -0.286 OA
HETATM   10  C   UNL     1     -42.168  60.337 -54.988  1.00  0.00     0.032 A 
HETATM   11  C   UNL     1     -41.976  60.041 -53.635  1.00  0.00     0.027 A 
HETATM   12  H   UNL     1     -42.454  60.535 -57.614  1.00  0.00     0.165 HD
ENDROOT
BRANCH   1  13
HETATM   13  S   UNL     1     -41.720  58.324 -51.490  1.00  0.00     0.263 S 
HETATM   14  O   UNL     1     -42.386  59.337 -50.701  1.00  0.00    -0.200 OA
HETATM   15  O   UNL     1     -40.307  58.054 -51.325  1.00  0.00    -0.200 OA
BRANCH  13  16
HETATM   16  N   UNL     1     -42.508  56.841 -51.314  1.00  0.00    -0.281 N 
HETATM   17  H   UNL     1     -43.425  56.936 -50.880  1.00  0.00     0.179 HD
BRANCH  16  18
HETATM   18  C   UNL     1     -41.742  55.685 -51.001  1.00  0.00     0.043 A 
HETATM   19  C   UNL     1     -41.362  54.809 -52.019  1.00  0.00     0.037 A 
HETATM   20  C   UNL     1     -40.642  53.648 -51.713  1.00  0.00    -0.059 A 
HETATM   21  C   UNL     1     -40.216  52.695 -52.791  1.00  0.00     0.048 C 
HETATM   22  C   UNL     1     -40.293  53.391 -50.379  1.00  0.00     0.013 A 
HETATM   23  C   UNL     1     -40.674  54.265 -49.353  1.00  0.00    -0.059 A 
HETATM   24  C   UNL     1     -41.408  55.412 -49.675  1.00  0.00     0.037 A 
HETATM   25  C   UNL     1     -40.269  53.984 -47.936  1.00  0.00     0.048 C 
ENDBRANCH  16  18
ENDBRANCH  13  16
ENDBRANCH   1  13
BRANCH   7  26
HETATM   26  C   UNL     1     -42.950  56.294 -59.011  1.00  0.00     0.257 C 
HETATM   27  N   UNL     1     -44.058  55.495 -58.893  1.00  0.00    -0.357 N 
HETATM   28  H   UNL     1     -44.656  55.611 -58.073  1.00  0.00     0.162 HD
HETATM   29  O   UNL     1     -42.179  56.234 -59.966  1.00  0.00    -0.267 OA
BRANCH  27  30
HETATM   30  C   UNL     1     -44.440  54.535 -59.904  1.00  0.00     0.125 C 
BRANCH  30  31
HETATM   31  C   UNL     1     -45.763  54.887 -60.573  1.00  0.00     0.046 C 
BRANCH  31  32
HETATM   32  C   UNL     1     -46.016  56.388 -60.525  1.00  0.00     0.168 C 
BRANCH  32  33
HETATM   33  O   UNL     1     -46.876  56.673 -59.423  1.00  0.00    -0.396 OA
HETATM   34  C   UNL     1     -46.649  57.977 -58.904  1.00  0.00     0.201 C 
ENDBRANCH  32  33
ENDBRANCH  31  32
ENDBRANCH  30  31
ENDBRANCH  27  30
ENDBRANCH   7  26
TORSDOF 8
ENDMDL
MODEL 7
REMARK VINA RESULT:      -7.8      3.777      6.015
REMARK  8 active torsions:
REMARK  status: ('A' for Active; 'I' for Inactive)
REMARK    1  A    between atoms: C_4  and  N_5 
REMARK    2  A    between atoms: N_5  and  S_6 
REMARK    3  A    between atoms: S_6  and  C_7 
REMARK    4  A    between atoms: C_13  and  C_14 
REMARK       I    between atoms: C_14  and  N_15 
REMARK    5  A    between atoms: N_15  and  C_16 
REMARK    6  A    between atoms: C_16  and  C_17 
REMARK    7  A    between atoms: C_17  and  C_18 
REMARK    8  A    between atoms: C_18  and  O_19 
ROOT
HETATM    1  C   UNL     1     -41.701  54.540 -50.088  1.00  0.00     0.081 A 
HETATM    2  C   UNL     1     -41.422  55.846 -50.501  1.00  0.00     0.043 A 
HETATM    3  C   UNL     1     -42.472  56.661 -50.934  1.00  0.00     0.043 A 
HETATM    4  C   UNL     1     -43.797  56.191 -50.940  1.00  0.00     0.046 A 
HETATM    5  N   UNL     1     -44.822  57.011 -51.424  1.00  0.00    -0.364 N 
HETATM    6  C   UNL     1     -44.563  58.297 -51.827  1.00  0.00     0.109 A 
HETATM    7  C   UNL     1     -43.351  58.875 -51.857  1.00  0.00     0.098 A 
HETATM    8  C   UNL     1     -42.199  58.048 -51.399  1.00  0.00     0.201 A 
HETATM    9  O   UNL     1     -41.049  58.481 -51.403  1.00  0.00    -0.286 OA
HETATM   10  C   UNL     1     -44.057  54.883 -50.519  1.00  0.00     0.032 A 
HETATM   11  C   UNL     1     -43.015  54.060 -50.080  1.00  0.00     0.027 A 
HETATM   12  H   UNL     1     -45.789  56.725 -51.309  1.00  0.00     0.165 HD
ENDROOT
BRANCH   1  13
HETATM   13  S   UNL     1     -40.372  53.505 -49.513  1.00  0.00     0.263 S 
HETATM   14  O   UNL     1     -40.916  52.193 -49.240  1.00  0.00    -0.200 OA
HETATM   15  O   UNL     1     -39.662  54.250 -48.494  1.00  0.00    -0.200 OA
BRANCH  13  16
HETATM   16  N   UNL     1     -39.344  53.439 -50.851  1.00  0.00    -0.281 N 
HETATM   17  H   UNL     1     -38.732  54.251 -50.914  1.00  0.00     0.179 HD
BRANCH  16  18
HETATM   18  C   UNL     1     -39.826  52.876 -52.064  1.00  0.00     0.043 A 
HETATM   19  C   UNL     1     -39.445  51.583 -52.428  1.00  0.00     0.037 A 
HETATM   20  C   UNL     1     -39.883  51.038 -53.641  1.00  0.00    -0.059 A 
HETATM   21  C   UNL     1     -39.492  49.648 -54.049  1.00  0.00     0.048 C 
HETATM   22  C   UNL     1     -40.722  51.797 -54.469  1.00  0.00     0.013 A 
HETATM   23  C   UNL     1     -41.105  53.095 -54.111  1.00  0.00    -0.059 A 
HETATM   24  C   UNL     1     -40.645  53.631 -52.903  1.00  0.00     0.037 A 
HETATM   25  C   UNL     1     -42.024  53.882 -55.000  1.00  0.00     0.048 C 
ENDBRANCH  16  18
ENDBRANCH  13  16
ENDBRANCH   1  13
BRANCH   7  26
HETATM   26  C   UNL     1     -43.246  60.280 -52.349  1.00  0.00     0.257 C 
HETATM   27  N   UNL     1     -43.354  60.437 -53.707  1.00  0.00    -0.357 N 
HETATM   28  H   UNL     1     -43.499  59.605 -54.282  1.00  0.00     0.162 HD
HETATM   29  O   UNL     1     -43.082  61.222 -51.578  1.00  0.00    -0.267 OA
BRANCH  27  30
HETATM   30  C   UNL     1     -43.323  61.732 -54.349  1.00  0.00     0.125 C 
BRANCH  30  31
HETATM   31  C   UNL     1     -43.001  61.639 -55.836  1.00  0.00     0.046 C 
BRANCH  31  32
HETATM   32  C   UNL     1     -42.218  60.369 -56.146  1.00  0.00     0.168 C 
BRANCH  32  33
HETATM   33  O   UNL     1     -41.312  60.637 -57.214  1.00  0.00    -0.396 OA
HETATM   34  C   UNL     1     -41.688  61.799 -57.941  1.00  0.00     0.201 C 
ENDBRANCH  32  33
ENDBRANCH  31  32
ENDBRANCH  30  31
ENDBRANCH  27  30
ENDBRANCH   7  26
TORSDOF 8
ENDMDL
MODEL 8
REMARK VINA RESULT:      -7.8      3.026      4.287
REMARK  8 active torsions:
REMARK  status: ('A' for Active; 'I' for Inactive)
REMARK    1  A    between atoms: C_4  and  N_5 
REMARK    2  A    between atoms: N_5  and  S_6 
REMARK    3  A    between atoms: S_6  and  C_7 
REMARK    4  A    between atoms: C_13  and  C_14 
REMARK       I    between atoms: C_14  and  N_15 
REMARK    5  A    between atoms: N_15  and  C_16 
REMARK    6  A    between atoms: C_16  and  C_17 
REMARK    7  A    between atoms: C_17  and  C_18 
REMARK    8  A    between atoms: C_18  and  O_19 
ROOT
HETATM    1  C   UNL     1     -41.682  54.532 -50.088  1.00  0.00     0.081 A 
HETATM    2  C   UNL     1     -41.449  55.897 -50.274  1.00  0.00     0.043 A 
HETATM    3  C   UNL     1     -42.504  56.717 -50.685  1.00  0.00     0.043 A 
HETATM    4  C   UNL     1     -43.791  56.190 -50.893  1.00  0.00     0.046 A 
HETATM    5  N   UNL     1     -44.817  57.023 -51.350  1.00  0.00    -0.364 N 
HETATM    6  C   UNL     1     -44.604  58.367 -51.532  1.00  0.00     0.109 A 
HETATM    7  C   UNL     1     -43.433  59.001 -51.355  1.00  0.00     0.098 A 
HETATM    8  C   UNL     1     -42.277  58.170 -50.912  1.00  0.00     0.201 A 
HETATM    9  O   UNL     1     -41.162  58.655 -50.736  1.00  0.00    -0.286 OA
HETATM   10  C   UNL     1     -44.006  54.822 -50.696  1.00  0.00     0.032 A 
HETATM   11  C   UNL     1     -42.959  53.993 -50.282  1.00  0.00     0.027 A 
HETATM   12  H   UNL     1     -45.770  56.677 -51.376  1.00  0.00     0.165 HD
ENDROOT
BRANCH   1  13
HETATM   13  S   UNL     1     -40.348  53.487 -49.542  1.00  0.00     0.263 S 
HETATM   14  O   UNL     1     -40.890  52.169 -49.293  1.00  0.00    -0.200 OA
HETATM   15  O   UNL     1     -39.634  54.211 -48.511  1.00  0.00    -0.200 OA
BRANCH  13  16
HETATM   16  N   UNL     1     -39.328  53.450 -50.887  1.00  0.00    -0.281 N 
HETATM   17  H   UNL     1     -38.714  54.261 -50.933  1.00  0.00     0.179 HD
BRANCH  16  18
HETATM   18  C   UNL     1     -39.818  52.917 -52.110  1.00  0.00     0.043 A 
HETATM   19  C   UNL     1     -39.463  51.623 -52.494  1.00  0.00     0.037 A 
HETATM   20  C   UNL     1     -39.909  51.107 -53.717  1.00  0.00    -0.059 A 
HETATM   21  C   UNL     1     -39.546  49.716 -54.147  1.00  0.00     0.048 C 
HETATM   22  C   UNL     1     -40.729  51.897 -54.535  1.00  0.00     0.013 A 
HETATM   23  C   UNL     1     -41.086  53.197 -54.156  1.00  0.00    -0.059 A 
HETATM   24  C   UNL     1     -40.618  53.703 -52.938  1.00  0.00     0.037 A 
HETATM   25  C   UNL     1     -41.986  54.017 -55.034  1.00  0.00     0.048 C 
ENDBRANCH  16  18
ENDBRANCH  13  16
ENDBRANCH   1  13
BRANCH   7  26
HETATM   26  C   UNL     1     -43.372  60.467 -51.622  1.00  0.00     0.257 C 
HETATM   27  N   UNL     1     -43.101  61.254 -50.532  1.00  0.00    -0.357 N 
HETATM   28  H   UNL     1     -42.960  60.799 -49.628  1.00  0.00     0.162 HD
HETATM   29  O   UNL     1     -43.545  60.923 -52.750  1.00  0.00    -0.267 OA
BRANCH  27  30
HETATM   30  C   UNL     1     -42.959  62.690 -50.621  1.00  0.00     0.125 C 
BRANCH  30  31
HETATM   31  C   UNL     1     -44.228  63.429 -50.214  1.00  0.00     0.046 C 
BRANCH  31  32
HETATM   32  C   UNL     1     -44.307  63.585 -48.701  1.00  0.00     0.168 C 
BRANCH  32  33
HETATM   33  O   UNL     1     -45.663  63.419 -48.293  1.00  0.00    -0.396 OA
HETATM   34  C   UNL     1     -46.231  62.231 -48.828  1.00  0.00     0.201 C 
ENDBRANCH  32  33
ENDBRANCH  31  32
ENDBRANCH  30  31
ENDBRANCH  27  30
ENDBRANCH   7  26
TORSDOF 8
ENDMDL
MODEL 9
REMARK VINA RESULT:      -7.7      1.812      2.286
REMARK  8 active torsions:
REMARK  status: ('A' for Active; 'I' for Inactive)
REMARK    1  A    between atoms: C_4  and  N_5 
REMARK    2  A    between atoms: N_5  and  S_6 
REMARK    3  A    between atoms: S_6  and  C_7 
REMARK    4  A    between atoms: C_13  and  C_14 
REMARK       I    between atoms: C_14  and  N_15 
REMARK    5  A    between atoms: N_15  and  C_16 
REMARK    6  A    between atoms: C_16  and  C_17 
REMARK    7  A    between atoms: C_17  and  C_18 
REMARK    8  A    between atoms: C_18  and  O_19 
ROOT
HETATM    1  C   UNL     1     -43.116  56.733 -54.660  1.00  0.00     0.081 A 
HETATM    2  C   UNL     1     -42.795  57.392 -53.470  1.00  0.00     0.043 A 
HETATM    3  C   UNL     1     -43.656  58.381 -52.987  1.00  0.00     0.043 A 
HETATM    4  C   UNL     1     -44.843  58.704 -53.670  1.00  0.00     0.046 A 
HETATM    5  N   UNL     1     -45.662  59.730 -53.191  1.00  0.00    -0.364 N 
HETATM    6  C   UNL     1     -45.363  60.382 -52.021  1.00  0.00     0.109 A 
HETATM    7  C   UNL     1     -44.275  60.163 -51.263  1.00  0.00     0.098 A 
HETATM    8  C   UNL     1     -43.327  59.113 -51.734  1.00  0.00     0.201 A 
HETATM    9  O   UNL     1     -42.297  58.849 -51.119  1.00  0.00    -0.286 OA
HETATM   10  C   UNL     1     -45.149  58.029 -54.857  1.00  0.00     0.032 A 
HETATM   11  C   UNL     1     -44.296  57.036 -55.347  1.00  0.00     0.027 A 
HETATM   12  H   UNL     1     -46.577  59.877 -53.605  1.00  0.00     0.165 HD
ENDROOT
BRANCH   1  13
HETATM   13  S   UNL     1     -42.034  55.456 -55.268  1.00  0.00     0.263 S 
HETATM   14  O   UNL     1     -40.685  55.788 -54.864  1.00  0.00    -0.200 OA
HETATM   15  O   UNL     1     -42.370  55.241 -56.660  1.00  0.00    -0.200 OA
BRANCH  13  16
HETATM   16  N   UNL     1     -42.568  54.086 -54.436  1.00  0.00    -0.281 N 
HETATM   17  H   UNL     1     -43.509  54.199 -54.063  1.00  0.00     0.179 HD
BRANCH  16  18
HETATM   18  C   UNL     1     -41.634  53.338 -53.669  1.00  0.00     0.043 A 
HETATM   19  C   UNL     1     -41.348  53.722 -52.358  1.00  0.00     0.037 A 
HETATM   20  C   UNL     1     -40.399  53.014 -51.611  1.00  0.00    -0.059 A 
HETATM   21  C   UNL     1     -40.081  53.404 -50.197  1.00  0.00     0.048 C 
HETATM   22  C   UNL     1     -39.760  51.907 -52.188  1.00  0.00     0.013 A 
HETATM   23  C   UNL     1     -40.041  51.519 -53.504  1.00  0.00    -0.059 A 
HETATM   24  C   UNL     1     -40.980  52.248 -54.243  1.00  0.00     0.037 A 
HETATM   25  C   UNL     1     -39.365  50.316 -54.095  1.00  0.00     0.048 C 
ENDBRANCH  16  18
ENDBRANCH  13  16
ENDBRANCH   1  13
BRANCH   7  26
HETATM   26  C   UNL     1     -44.091  60.982 -50.030  1.00  0.00     0.257 C 
HETATM   27  N   UNL     1     -44.912  60.658 -48.980  1.00  0.00    -0.357 N 
HETATM   28  H   UNL     1     -45.579  59.894 -49.103  1.00  0.00     0.162 HD
HETATM   29  O   UNL     1     -43.251  61.877 -49.972  1.00  0.00    -0.267 OA
BRANCH  27  30
HETATM   30  C   UNL     1     -44.835  61.318 -47.696  1.00  0.00     0.125 C 
BRANCH  30  31
HETATM   31  C   UNL     1     -45.983  62.294 -47.472  1.00  0.00     0.046 C 
BRANCH  31  32
HETATM   32  C   UNL     1     -46.898  61.812 -46.353  1.00  0.00     0.168 C 
BRANCH  32  33
HETATM   33  O   UNL     1     -47.440  62.948 -45.682  1.00  0.00    -0.396 OA
HETATM   34  C   UNL     1     -46.902  64.163 -46.188  1.00  0.00     0.201 C 
ENDBRANCH  32  33
ENDBRANCH  31  32
ENDBRANCH  30  31
ENDBRANCH  27  30
ENDBRANCH   7  26
TORSDOF 8
ENDMDL
MODEL 10
REMARK VINA RESULT:      -7.7     17.552     20.562
REMARK  8 active torsions:
REMARK  status: ('A' for Active; 'I' for Inactive)
REMARK    1  A    between atoms: C_4  and  N_5 
REMARK    2  A    between atoms: N_5  and  S_6 
REMARK    3  A    between atoms: S_6  and  C_7 
REMARK    4  A    between atoms: C_13  and  C_14 
REMARK       I    between atoms: C_14  and  N_15 
REMARK    5  A    between atoms: N_15  and  C_16 
REMARK    6  A    between atoms: C_16  and  C_17 
REMARK    7  A    between atoms: C_17  and  C_18 
REMARK    8  A    between atoms: C_18  and  O_19 
ROOT
HETATM    1  C   UNL     1     -36.950  40.943 -54.853  1.00  0.00     0.081 A 
HETATM    2  C   UNL     1     -37.396  40.059 -55.839  1.00  0.00     0.043 A 
HETATM    3  C   UNL     1     -37.311  40.438 -57.182  1.00  0.00     0.043 A 
HETATM    4  C   UNL     1     -36.768  41.683 -57.548  1.00  0.00     0.046 A 
HETATM    5  N   UNL     1     -36.738  42.058 -58.895  1.00  0.00    -0.364 N 
HETATM    6  C   UNL     1     -37.166  41.197 -59.875  1.00  0.00     0.109 A 
HETATM    7  C   UNL     1     -37.689  39.977 -59.666  1.00  0.00     0.098 A 
HETATM    8  C   UNL     1     -37.797  39.524 -58.250  1.00  0.00     0.201 A 
HETATM    9  O   UNL     1     -38.275  38.431 -57.955  1.00  0.00    -0.286 OA
HETATM   10  C   UNL     1     -36.323  42.553 -56.547  1.00  0.00     0.032 A 
HETATM   11  C   UNL     1     -36.400  42.181 -55.201  1.00  0.00     0.027 A 
HETATM   12  H   UNL     1     -36.233  42.893 -59.172  1.00  0.00     0.165 HD
ENDROOT
BRANCH   1  13
HETATM   13  S   UNL     1     -37.035  40.456 -53.143  1.00  0.00     0.263 S 
HETATM   14  O   UNL     1     -36.647  39.065 -53.058  1.00  0.00    -0.200 OA
HETATM   15  O   UNL     1     -38.312  40.911 -52.633  1.00  0.00    -0.200 OA
BRANCH  13  16
HETATM   16  N   UNL     1     -35.862  41.430 -52.417  1.00  0.00    -0.281 N 
HETATM   17  H   UNL     1     -35.942  42.407 -52.693  1.00  0.00     0.179 HD
BRANCH  16  18
HETATM   18  C   UNL     1     -34.559  40.902 -52.211  1.00  0.00     0.043 A 
HETATM   19  C   UNL     1     -33.775  40.542 -53.309  1.00  0.00     0.037 A 
HETATM   20  C   UNL     1     -32.506  39.984 -53.111  1.00  0.00    -0.059 A 
HETATM   21  C   UNL     1     -31.643  39.595 -54.275  1.00  0.00     0.048 C 
HETATM   22  C   UNL     1     -32.029  39.813 -51.804  1.00  0.00     0.013 A 
HETATM   23  C   UNL     1     -32.812  40.171 -50.699  1.00  0.00    -0.059 A 
HETATM   24  C   UNL     1     -34.084  40.712 -50.913  1.00  0.00     0.037 A 
HETATM   25  C   UNL     1     -32.273  40.004 -49.308  1.00  0.00     0.048 C 
ENDBRANCH  16  18
ENDBRANCH  13  16
ENDBRANCH   1  13
BRANCH   7  26
HETATM   26  C   UNL     1     -38.129  39.181 -60.848  1.00  0.00     0.257 C 
HETATM   27  N   UNL     1     -39.174  38.321 -60.624  1.00  0.00    -0.357 N 
HETATM   28  H   UNL     1     -39.577  38.281 -59.686  1.00  0.00     0.162 HD
HETATM   29  O   UNL     1     -37.588  39.304 -61.945  1.00  0.00    -0.267 OA
BRANCH  27  30
HETATM   30  C   UNL     1     -39.756  37.509 -61.669  1.00  0.00     0.125 C 
BRANCH  30  31
HETATM   31  C   UNL     1     -41.167  37.955 -62.036  1.00  0.00     0.046 C 
BRANCH  31  32
HETATM   32  C   UNL     1     -42.210  37.098 -61.330  1.00  0.00     0.168 C 
BRANCH  32  33
HETATM   33  O   UNL     1     -43.474  37.304 -61.958  1.00  0.00    -0.396 OA
HETATM   34  C   UNL     1     -43.528  36.695 -63.241  1.00  0.00     0.201 C 
ENDBRANCH  32  33
ENDBRANCH  31  32
ENDBRANCH  30  31
ENDBRANCH  27  30
ENDBRANCH   7  26
TORSDOF 8
ENDMDL
